@<TRIPOS>MOLECULE
63626_out_ligand_01.pdbqt
 33 37 0 0 0
SMALL
GASTEIGER

@<TRIPOS>ATOM
      1  N         17.0250  -24.0480   -6.7350 N.ar    1  UNL1       -0.3040
      2  C         16.0890  -23.4260   -7.5230 C.ar    1  UNL1        0.1710
      3  N         15.2690  -22.6690   -6.8270 N.ar    1  UNL1       -0.2210
      4  C         15.6980  -22.7880   -5.5310 C.ar    1  UNL1        0.1050
      5  C         15.2230  -22.2130   -4.3490 C.2     1  UNL1        0.0370
      6  C         15.8930  -22.5370   -3.1680 C.2     1  UNL1        0.0220
      7  C         16.9810  -23.4040   -3.2200 C.2     1  UNL1        0.1190
      8  N         17.4780  -23.9900   -4.3370 N.2     1  UNL1       -0.2410
      9  C         16.7940  -23.6380   -5.4460 C.ar    1  UNL1        0.1610
     10  C         18.0860  -24.9530   -7.1350 C.3     1  UNL1        0.1710
     11  C         19.2810  -24.2100   -7.6900 C.2     1  UNL1       -0.0400
     12  C         20.2160  -24.8690   -8.5020 C.2     1  UNL1        0.0100
     13  C         21.3320  -24.1890   -8.9940 C.2     1  UNL1        0.0170
     14  C         21.5230  -22.8360   -8.6950 C.2     1  UNL1        0.0320
     15  C         20.5990  -22.1720   -7.8830 C.2     1  UNL1        0.0170
     16  C         19.4840  -22.8550   -7.3880 C.2     1  UNL1        0.0100
     17  C         22.7320  -22.1550   -9.2370 C.2     1  UNL1        0.2520
     18  O         23.0810  -21.0700   -8.7890 O.2     1  UNL1       -0.2680
     19  N         23.4260  -22.8350  -10.2200 N.am    1  UNL1       -0.3520
     20  H         23.2400  -23.8230  -10.3290 H       1  UNL1        0.1630
     21  C         24.6910  -22.3310  -10.7130 C.3     1  UNL1        0.0840
     22  C         25.8250  -23.3650  -10.6100 C.3     1  UNL1        0.0250
     23  C         26.4610  -23.4330  -11.9970 C.3     1  UNL1        0.0020
     24  C         26.0430  -22.1430  -12.6820 C.3     1  UNL1        0.0020
     25  C         24.6190  -21.9460  -12.1910 C.3     1  UNL1        0.0250
     26  S         16.0140  -23.6280   -9.2410 S.3     1  UNL1       -0.0870
     27  C         16.2430  -21.9060   -9.7730 C.3     1  UNL1        0.1210
     28  C         17.5340  -21.7390  -10.5340 C.2     1  UNL1       -0.0490
     29  C         17.9760  -20.4670  -10.9240 C.2     1  UNL1        0.0080
     30  C         19.1790  -20.3160  -11.6140 C.2     1  UNL1        0.0010
     31  C         19.9550  -21.4320  -11.9190 C.2     1  UNL1        0.0000
     32  C         19.5300  -22.7020  -11.5310 C.2     1  UNL1        0.0010
     33  C         18.3290  -22.8550  -10.8390 C.2     1  UNL1        0.0080
@<TRIPOS>BOND
     1    24    25    1
     2    24    23    1
     3    25    21    1
     4    23    22    1
     5    31    30    2
     6    31    32    1
     7    30    29    1
     8    32    33    2
     9    29    28    2
    10    33    28    1
    11    21    22    1
    12    21    19    1
    13    28    27    1
    14    20    19    1
    15    19    17   am
    16    27    26    1
    17    26     2    1
    18    17    18    2
    19    17    14    1
    20    13    14    2
    21    13    12    1
    22    14    15    1
    23    12    11    2
    24    15    16    2
    25    11    16    1
    26    11    10    1
    27     2     3   ar
    28     2     1   ar
    29    10     1    1
    30     3     4   ar
    31     1     9   ar
    32     4     9   ar
    33     4     5    1
    34     9     8    1
    35     5     6    2
    36     8     7    2
    37     7     6    1
