@<TRIPOS>MOLECULE
63657_out_ligand_01.pdbqt
 39 43 0 0 0
SMALL
GASTEIGER

@<TRIPOS>ATOM
      1  N         22.8300  -21.5760  -12.7620 N.ar    1  UNL1       -0.2610
      2  C         23.6870  -21.9850  -13.7700 C.ar    1  UNL1        0.2640
      3  O         23.5330  -21.7120  -14.9590 O.2     1  UNL1       -0.2670
      4  C         24.8400  -22.8040  -13.3680 C.ar    1  UNL1        0.0590
      5  C         25.7570  -23.2200  -14.3480 C.2     1  UNL1        0.0190
      6  C         26.8540  -23.9990  -13.9930 C.2     1  UNL1        0.0010
      7  C         27.0310  -24.3600  -12.6630 C.2     1  UNL1        0.0020
      8  C         26.1120  -23.9440  -11.6910 C.2     1  UNL1        0.0310
      9  C         24.9990  -23.1570  -12.0280 C.ar    1  UNL1        0.0550
     10  N         24.0450  -22.7110  -11.0680 N.ar    1  UNL1       -0.2940
     11  C         22.9570  -21.9170  -11.4230 C.ar    1  UNL1        0.3320
     12  O         22.1300  -21.5470  -10.5850 O.2     1  UNL1       -0.2460
     13  C         21.6940  -20.7470  -13.1450 C.3     1  UNL1        0.1750
     14  C         20.4400  -21.0910  -12.3670 C.2     1  UNL1       -0.0400
     15  C         19.6410  -20.0780  -11.8180 C.2     1  UNL1        0.0100
     16  C         18.4850  -20.3940  -11.0980 C.2     1  UNL1        0.0170
     17  C         18.1140  -21.7320  -10.9190 C.2     1  UNL1        0.0320
     18  C         18.9240  -22.7470  -11.4370 C.2     1  UNL1        0.0170
     19  C         20.0770  -22.4290  -12.1580 C.2     1  UNL1        0.0100
     20  C         16.8830  -22.1180  -10.1770 C.2     1  UNL1        0.2510
     21  N         16.8400  -23.4110   -9.7070 N.am    1  UNL1       -0.3530
     22  H         17.6670  -23.9890   -9.7590 H       1  UNL1        0.1630
     23  O         15.9970  -21.2930   -9.9860 O.2     1  UNL1       -0.2680
     24  C         15.7600  -23.8860   -8.8720 C.3     1  UNL1        0.1610
     25  C         16.1660  -23.8340   -7.4220 C.2     1  UNL1       -0.0410
     26  C         17.2090  -24.6340   -6.9360 C.2     1  UNL1        0.0090
     27  C         17.6040  -24.5480   -5.5990 C.2     1  UNL1        0.0070
     28  C         16.9630  -23.6630   -4.7240 C.2     1  UNL1       -0.0620
     29  C         17.3870  -23.5550   -3.2900 C.3     1  UNL1        0.0480
     30  C         15.9280  -22.8540   -5.2120 C.2     1  UNL1        0.0070
     31  C         15.5340  -22.9380   -6.5490 C.2     1  UNL1        0.0090
     32  C         24.1630  -23.0890   -9.6540 C.3     1  UNL1        0.1720
     33  C         22.9220  -22.7740   -8.8370 C.2     1  UNL1       -0.0400
     34  C         22.8580  -21.6150   -8.0480 C.2     1  UNL1        0.0100
     35  C         21.7080  -21.3190   -7.3100 C.2     1  UNL1        0.0240
     36  C         20.6090  -22.1730   -7.3620 C.2     1  UNL1        0.0340
     37 CL         19.1940  -21.8050   -6.4550 Cl      1  UNL1       -0.0840
     38  C         20.6480  -23.3200   -8.1510 C.2     1  UNL1        0.0240
     39  C         21.7970  -23.6160   -8.8870 C.2     1  UNL1        0.0100
@<TRIPOS>BOND
     1     3     2    2
     2     5     6    1
     3     5     4    2
     4     6     7    2
     5     2     4   ar
     6     2     1   ar
     7     4     9   ar
     8    13     1    1
     9    13    14    1
    10     1    11   ar
    11     7     8    1
    12    14    19    2
    13    14    15    1
    14    19    18    1
    15     9     8    2
    16     9    10   ar
    17    15    16    2
    18    18    17    2
    19    11    10   ar
    20    11    12    2
    21    16    17    1
    22    10    32    1
    23    17    20    1
    24    20    23    2
    25    20    21   am
    26    22    21    1
    27    21    24    1
    28    32    33    1
    29    39    33    2
    30    39    38    1
    31    24    25    1
    32    33    34    1
    33    38    36    2
    34    34    35    2
    35    25    26    2
    36    25    31    1
    37    36    35    1
    38    36    37    1
    39    26    27    1
    40    31    30    2
    41    27    28    2
    42    30    28    1
    43    28    29    1
