@<TRIPOS>MOLECULE
63667_out_ligand_01.pdbqt
 33 36 0 0 0
SMALL
GASTEIGER

@<TRIPOS>ATOM
      1  C         20.2020  -21.8180  -10.9490 C.2     1  UNL1        0.0910
      2  C         20.6990  -21.4070  -12.1860 C.2     1  UNL1        0.0390
      3  C         21.9940  -21.7520  -12.5900 C.2     1  UNL1        0.0110
      4  C         22.8130  -22.5440  -11.7870 C.2     1  UNL1       -0.0380
      5  C         22.3220  -22.9470  -10.5420 C.2     1  UNL1        0.0370
      6  C         21.0400  -22.5600  -10.1130 C.2     1  UNL1        0.1130
      7  S         20.5310  -22.9650   -8.4560 S.O2    1  UNL1        0.2660
      8  O         20.3430  -24.3900   -8.3140 O.2     1  UNL1       -0.2000
      9  O         21.3940  -22.2250   -7.5620 O.2     1  UNL1       -0.2000
     10  N         19.0170  -22.2420   -8.3070 N.pl3   1  UNL1       -0.2800
     11  H         19.0790  -21.2350   -8.4350 H       1  UNL1        0.1790
     12  C         17.9070  -22.7940   -7.5890 C.2     1  UNL1        0.0490
     13  C         16.9790  -23.6430   -8.2030 C.2     1  UNL1        0.0310
     14  C         15.8700  -24.1160   -7.5060 C.2     1  UNL1        0.0030
     15  C         15.6610  -23.7310   -6.1880 C.2     1  UNL1        0.0070
     16  C         16.5550  -22.8600   -5.5460 C.2     1  UNL1       -0.0540
     17  C         16.2680  -22.4710   -4.1200 C.3     1  UNL1        0.0490
     18  C         17.6810  -22.3690   -6.2540 C.2     1  UNL1       -0.0290
     19  C         18.6490  -21.4170   -5.5910 C.3     1  UNL1        0.0510
     20  O         18.9490  -21.5190  -10.5020 O.2     1  UNL1       -0.3540
     21  C         18.0070  -21.0350  -11.4510 C.3     1  UNL1        0.2100
     22  C         24.2220  -22.9040  -12.2040 C.3     1  UNL1        0.1740
     23  N         24.8910  -21.8320  -12.9080 N.am    1  UNL1       -0.2740
     24  C         24.9140  -21.7100  -14.2700 C.2     1  UNL1        0.2630
     25  O         24.4220  -22.4310  -15.1210 O.2     1  UNL1       -0.2670
     26  C         25.6720  -20.5050  -14.5690 C.2     1  UNL1        0.0670
     27  C         26.0100  -19.9040  -15.7630 C.2     1  UNL1        0.0210
     28  C         26.0680  -19.9500  -13.3740 C.2     1  UNL1        0.1400
     29  C         26.7600  -18.7290  -15.6770 C.2     1  UNL1        0.0200
     30  C         27.1210  -18.2350  -14.4140 C.2     1  UNL1        0.1170
     31  N         26.7880  -18.8220  -13.2360 N.2     1  UNL1       -0.2540
     32  C         25.5520  -20.8000  -12.2890 C.2     1  UNL1        0.2800
     33  O         25.6780  -20.6020  -11.0910 O.2     1  UNL1       -0.2650
@<TRIPOS>BOND
     1    27    29    1
     2    27    26    2
     3    29    30    2
     4    25    24    2
     5    26    24    1
     6    26    28    1
     7    30    31    1
     8    24    23   am
     9    28    31    2
    10    28    32    1
    11    23    32   am
    12    23    22    1
    13     3     2    1
    14     3     4    2
    15    32    33    2
    16    22     4    1
    17     2     1    2
    18     4     5    1
    19    21    20    1
    20     1    20    1
    21     1     6    1
    22     5     6    2
    23     6     7    1
    24     7     8    2
    25     7    10    1
    26     7     9    2
    27    11    10    1
    28    10    12    1
    29    13    12    2
    30    13    14    1
    31    12    18    1
    32    14    15    2
    33    18    19    1
    34    18    16    2
    35    15    16    1
    36    16    17    1
