@<TRIPOS>MOLECULE
63668_out_ligand_01.pdbqt
 32 35 0 0 0
SMALL
GASTEIGER

@<TRIPOS>ATOM
      1  C         20.5480  -22.3330   -7.8190 C.2     1  UNL1        0.0320
      2  C         20.2500  -23.1350   -8.9240 C.2     1  UNL1        0.0190
      3  C         21.2310  -23.3710   -9.8910 C.2     1  UNL1        0.0300
      4  C         22.5030  -22.7910   -9.7780 C.2     1  UNL1        0.0350
      5  C         22.7950  -22.0030   -8.6620 C.2     1  UNL1        0.0300
      6  C         21.8250  -21.7850   -7.6780 C.2     1  UNL1        0.0190
      7  N         23.4310  -23.0610  -10.7990 N.am    1  UNL1       -0.3220
      8  C         24.4750  -22.2550  -11.2360 C.2     1  UNL1        0.2760
      9  O         24.7280  -21.1330  -10.8290 O.2     1  UNL1       -0.2660
     10  H         23.3080  -23.9220  -11.3280 H       1  UNL1        0.1690
     11  C         25.2770  -22.9020  -12.3420 C.2     1  UNL1        0.1440
     12  N         24.8220  -22.5820  -13.5990 N.2     1  UNL1       -0.2240
     13  C         25.4590  -23.1210  -14.6720 C.2     1  UNL1        0.1370
     14  C         26.5720  -23.9440  -14.5360 C.2     1  UNL1        0.0520
     15  C         27.0310  -24.2430  -13.2520 C.2     1  UNL1        0.0250
     16  C         26.3800  -23.7250  -12.1280 C.2     1  UNL1        0.0450
     17 BR         27.1210  -24.1780  -10.4410 Br      1  UNL1       -0.0480
     18  N         24.9290  -22.8310  -15.9530 N.pl3   1  UNL1       -0.2810
     19  C         24.2420  -23.6410  -16.8150 C.2     1  UNL1        0.2410
     20  N         23.9080  -22.9730  -17.8970 N.2     1  UNL1       -0.1440
     21  N         24.3980  -21.6960  -17.7660 N.2     1  UNL1       -0.1440
     22  C         24.9900  -21.6210  -16.5960 C.2     1  UNL1        0.2410
     23  C         19.5340  -22.0560   -6.7730 C.2     1  UNL1        0.2520
     24  O         19.6640  -21.0900   -6.0300 O.2     1  UNL1       -0.2680
     25  N         18.4560  -22.9240   -6.7500 N.am    1  UNL1       -0.3520
     26  H         18.3270  -23.5290   -7.5490 H       1  UNL1        0.1630
     27  C         17.2960  -22.6540   -5.9110 C.3     1  UNL1        0.0840
     28  C         16.0020  -22.7100   -6.7400 C.3     1  UNL1        0.0250
     29  C         14.7680  -22.4920   -5.8700 C.3     1  UNL1        0.0020
     30  C         14.7210  -23.4780   -4.7030 C.3     1  UNL1        0.0000
     31  C         16.0040  -23.4350   -3.8760 C.3     1  UNL1        0.0020
     32  C         17.2420  -23.6500   -4.7440 C.3     1  UNL1        0.0250
@<TRIPOS>BOND
     1    20    21    1
     2    20    19    2
     3    21    22    2
     4    19    18    1
     5    22    18    1
     6    18    13    1
     7    13    14    2
     8    13    12    1
     9    14    15    1
    10    12    11    2
    11    15    16    2
    12    11    16    1
    13    11     8    1
    14    16    17    1
    15    10     7    1
    16     8     9    2
    17     8     7   am
    18     7     4    1
    19     3     4    2
    20     3     2    1
    21     4     5    1
    22     2     1    2
    23     5     6    2
    24     1     6    1
    25     1    23    1
    26    26    25    1
    27    23    25   am
    28    23    24    2
    29    25    27    1
    30    28    27    1
    31    28    29    1
    32    27    32    1
    33    29    30    1
    34    32    31    1
    35    30    31    1
