@<TRIPOS>MOLECULE
63666_out_ligand_01.pdbqt
 34 38 0 0 0
SMALL
GASTEIGER

@<TRIPOS>ATOM
      1  C         19.4490  -23.0780   -9.2700 C.2     1  UNL1       -0.0160
      2  C         18.2180  -22.8540   -9.9240 C.2     1  UNL1        0.0130
      3  C         18.1150  -21.9710  -11.0010 C.2     1  UNL1        0.0430
      4  C         19.2410  -21.3010  -11.4500 C.2     1  UNL1        0.1170
      5  F         19.1400  -20.4430  -12.4710 F       1  UNL1       -0.2060
      6  C         20.4750  -21.5170  -10.8590 C.2     1  UNL1        0.0680
      7  C         20.5880  -22.4200   -9.7900 C.2     1  UNL1        0.0900
      8  S         22.2450  -22.6850   -9.1780 S.O2    1  UNL1        0.2600
      9  O         22.5450  -24.0970   -9.1530 O.2     1  UNL1       -0.2000
     10  O         22.4000  -21.8510   -8.0090 O.2     1  UNL1       -0.2000
     11  N         23.1840  -22.0020  -10.3780 N.3     1  UNL1       -0.3060
     12  H         23.4650  -21.0390  -10.2150 H       1  UNL1        0.1730
     13  C         24.0470  -22.8550  -11.2030 C.3     1  UNL1        0.1260
     14  C         25.4630  -22.8410  -10.6080 C.3     1  UNL1        0.0310
     15  C         26.4870  -23.6450  -11.4200 C.3     1  UNL1        0.0070
     16  C         26.0630  -23.9870  -12.8510 C.3     1  UNL1        0.0390
     17  C         25.1530  -22.9470  -13.4520 C.2     1  UNL1       -0.0500
     18  C         25.2630  -22.5870  -14.7990 C.2     1  UNL1        0.0070
     19  C         24.1330  -22.3930  -12.6500 C.2     1  UNL1       -0.0290
     20  C         24.3710  -21.6690  -15.3520 C.2     1  UNL1        0.0010
     21  C         23.3580  -21.1230  -14.5690 C.2     1  UNL1        0.0010
     22  C         23.2330  -21.4870  -13.2260 C.2     1  UNL1        0.0100
     23  C         19.5360  -24.0070   -8.0680 C.3     1  UNL1        0.1760
     24  N         18.6780  -23.6560   -6.9490 N.am    1  UNL1       -0.2740
     25  C         17.6650  -24.4510   -6.4750 C.2     1  UNL1        0.2800
     26  C         17.1140  -23.7450   -5.3090 C.2     1  UNL1        0.1400
     27  O         17.2840  -25.5200   -6.9170 O.2     1  UNL1       -0.2650
     28  N         16.0920  -24.1550   -4.5370 N.2     1  UNL1       -0.2540
     29  C         17.8270  -22.5830   -5.1430 C.2     1  UNL1        0.0670
     30  C         15.7960  -23.3070   -3.5210 C.2     1  UNL1        0.1170
     31  C         16.4690  -22.1020   -3.2740 C.2     1  UNL1        0.0200
     32  C         17.5220  -21.7240   -4.1120 C.2     1  UNL1        0.0210
     33  C         18.8370  -22.5290   -6.1900 C.2     1  UNL1        0.2630
     34  O         19.6410  -21.6240   -6.3080 O.2     1  UNL1       -0.2670
@<TRIPOS>BOND
     1    20    18    1
     2    20    21    2
     3    18    17    2
     4    21    22    1
     5    17    16    1
     6    17    19    1
     7    22    19    2
     8    16    15    1
     9    19    13    1
    10     5     4    1
    11     4     3    2
    12     4     6    1
    13    15    14    1
    14    13    14    1
    15    13    11    1
    16     3     2    1
    17     6     7    2
    18    11    12    1
    19    11     8    1
    20     2     1    2
    21     7     1    1
    22     7     8    1
    23     1    23    1
    24     8     9    2
    25     8    10    2
    26    23    24    1
    27    24    25   am
    28    24    33   am
    29    27    25    2
    30    25    26    1
    31    34    33    2
    32    33    29    1
    33    26    29    2
    34    26    28    1
    35    29    32    1
    36    28    30    2
    37    32    31    2
    38    30    31    1
