@<TRIPOS>MOLECULE
63673_out_ligand_01.pdbqt
 33 36 0 0 0
SMALL
GASTEIGER

@<TRIPOS>ATOM
      1  C         16.0530  -22.5770   -7.9700 C.2     1  UNL1        0.0230
      2  C         15.7360  -23.8060   -8.5420 C.2     1  UNL1        0.0240
      3  C         16.1050  -24.0730   -9.8600 C.2     1  UNL1        0.0020
      4  C         16.8000  -23.1140  -10.5990 C.2     1  UNL1        0.0070
      5  C         17.1380  -21.8810  -10.0240 C.2     1  UNL1       -0.0560
      6  C         16.7630  -21.6200   -8.6980 C.2     1  UNL1        0.0310
      7  N         15.7110  -22.3330   -6.5970 N.pl3   1  UNL1       -0.1810
      8  H         15.7620  -21.3340   -6.3870 H       1  UNL1        0.1460
      9  S         16.7530  -23.1120   -5.4870 S.O2    1  UNL1        0.2450
     10  O         16.4810  -24.5290   -5.6010 O.2     1  UNL1       -0.2060
     11  O         16.7500  -22.4190   -4.2200 O.2     1  UNL1       -0.2060
     12  C         18.3260  -22.7900   -6.2520 C.2     1  UNL1        0.0750
     13  C         19.0250  -21.6180   -5.9570 C.2     1  UNL1        0.0250
     14  C         20.2510  -21.3780   -6.5750 C.2     1  UNL1        0.0020
     15  C         20.7720  -22.3040   -7.4840 C.2     1  UNL1        0.0160
     16  C         20.0740  -23.4850   -7.7870 C.2     1  UNL1        0.0490
     17  C         18.8350  -23.7190   -7.1680 C.2     1  UNL1        0.0410
     18  C         20.6270  -24.4690   -8.7890 C.3     1  UNL1        0.4170
     19  F         20.4840  -25.7600   -8.3830 F       1  UNL1       -0.1660
     20  F         21.9580  -24.2940   -9.0270 F       1  UNL1       -0.1660
     21  F         20.0200  -24.3880  -10.0070 F       1  UNL1       -0.1660
     22  C         17.8810  -20.8400  -10.8310 C.3     1  UNL1        0.0460
     23  C         18.6610  -21.4340  -12.0080 C.3     1  UNL1        0.0830
     24  C         20.1290  -21.5010  -11.7450 C.ar    1  UNL1        0.1050
     25  N         20.7240  -21.3490  -10.5800 N.ar    1  UNL1       -0.2330
     26  C         22.0660  -21.5060  -10.8280 C.ar    1  UNL1        0.0850
     27  C         23.1550  -21.4510   -9.9450 C.2     1  UNL1        0.0340
     28  C         22.2960  -21.7580  -12.1750 C.ar    1  UNL1        0.0620
     29  C         24.4430  -21.6540  -10.4560 C.2     1  UNL1        0.0020
     30  C         24.6440  -21.9080  -11.8150 C.2     1  UNL1        0.0020
     31  C         23.5690  -21.9660  -12.7110 C.2     1  UNL1        0.0320
     32  N         21.0470  -21.7420  -12.7390 N.ar    1  UNL1       -0.3430
     33  H         20.8320  -21.9190  -13.7090 H       1  UNL1        0.1670
@<TRIPOS>BOND
     1    33    32    1
     2    32    28   ar
     3    32    24   ar
     4    31    28    1
     5    31    30    2
     6    28    26   ar
     7    23    24    1
     8    23    22    1
     9    30    29    1
    10    24    25   ar
    11    22     5    1
    12    26    25   ar
    13    26    27    1
    14     4     5    2
    15     4     3    1
    16    29    27    2
    17     5     6    1
    18    21    18    1
    19     3     2    2
    20    20    18    1
    21    18    19    1
    22    18    16    1
    23     6     1    2
    24     2     1    1
    25     1     7    1
    26    16    15    2
    27    16    17    1
    28    15    14    1
    29    17    12    2
    30     7     8    1
    31     7     9    1
    32    14    13    2
    33    12    13    1
    34    12     9    1
    35    10     9    2
    36     9    11    2
