@<TRIPOS>MOLECULE
63675_out_ligand_01.pdbqt
 37 41 0 0 0
SMALL
GASTEIGER

@<TRIPOS>ATOM
      1  C         18.3220  -22.4970  -10.0990 C.2     1  UNL1        0.0320
      2  C         19.3230  -23.2290   -9.4530 C.2     1  UNL1        0.0190
      3  C         20.6350  -23.2080   -9.9370 C.2     1  UNL1        0.0300
      4  C         20.9690  -22.4500  -11.0660 C.2     1  UNL1        0.0360
      5  C         19.9690  -21.7100  -11.7000 C.2     1  UNL1        0.0300
      6  C         18.6530  -21.7260  -11.2190 C.2     1  UNL1        0.0190
      7  C         16.9380  -22.5510   -9.5490 C.2     1  UNL1        0.2510
      8  O         16.0730  -21.8020   -9.9890 O.2     1  UNL1       -0.2680
      9  N         16.7150  -23.4460   -8.5240 N.am    1  UNL1       -0.3570
     10  H         17.4980  -23.9060   -8.0810 H       1  UNL1        0.1620
     11  C         15.4230  -23.5290   -7.8670 C.3     1  UNL1        0.1270
     12  C         15.4940  -24.2520   -6.5190 C.3     1  UNL1        0.0600
     13  C         15.9170  -23.3380   -5.4110 C.2     1  UNL1       -0.0290
     14  C         15.2370  -23.1000   -4.2330 C.2     1  UNL1        0.0960
     15  N         15.9600  -22.2040   -3.4940 N.pl3   1  UNL1       -0.3650
     16  C         17.1080  -21.8490   -4.1630 C.2     1  UNL1        0.0420
     17  H         15.6940  -21.8450   -2.5870 H       1  UNL1        0.1650
     18  C         18.1350  -20.9730   -3.7940 C.2     1  UNL1        0.0300
     19  C         17.1060  -22.5430   -5.3730 C.2     1  UNL1       -0.0020
     20  C         19.1950  -20.8020   -4.6900 C.2     1  UNL1        0.0020
     21  C         19.2230  -21.4800   -5.9060 C.2     1  UNL1        0.0010
     22  C         18.1870  -22.3520   -6.2610 C.2     1  UNL1        0.0140
     23  N         22.3080  -22.4930  -11.4930 N.am    1  UNL1       -0.3090
     24  C         23.4070  -21.8530  -10.9470 C.2     1  UNL1        0.3270
     25  O         23.3930  -21.1980   -9.9080 O.2     1  UNL1       -0.2460
     26  N         24.6010  -22.0910  -11.6710 N.am    1  UNL1       -0.2990
     27  C         25.8320  -21.6210  -11.0280 C.3     1  UNL1        0.1340
     28  C         24.6170  -22.1980  -13.0970 C.2     1  UNL1        0.0450
     29  C         27.1210  -22.3300  -11.4320 C.3     1  UNL1        0.0210
     30  C         26.8750  -23.8100  -11.6770 C.3     1  UNL1        0.0060
     31  C         26.4050  -24.0830  -13.1040 C.3     1  UNL1        0.0410
     32  C         25.4620  -23.1020  -13.7660 C.2     1  UNL1       -0.0310
     33  C         25.3900  -23.1690  -15.1750 C.2     1  UNL1        0.0090
     34  C         24.5280  -22.3520  -15.9050 C.2     1  UNL1        0.0010
     35  C         23.7100  -21.4510  -15.2410 C.2     1  UNL1        0.0020
     36  C         23.7540  -21.3750  -13.8500 C.2     1  UNL1        0.0300
     37  H         22.5230  -23.1270  -12.2510 H       1  UNL1        0.1700
@<TRIPOS>BOND
     1    34    35    2
     2    34    33    1
     3    35    36    1
     4    33    32    2
     5    36    28    2
     6    32    31    1
     7    32    28    1
     8    31    30    1
     9    28    26    1
    10    37    23    1
    11     5     6    1
    12     5     4    2
    13    30    29    1
    14    26    27    1
    15    26    24   am
    16    23     4    1
    17    23    24   am
    18    29    27    1
    19     6     1    2
    20     4     3    1
    21    24    25    2
    22     1     7    1
    23     1     2    1
    24     8     7    2
    25     3     2    2
    26     7     9   am
    27     9    10    1
    28     9    11    1
    29    11    12    1
    30    12    13    1
    31    22    21    2
    32    22    19    1
    33    21    20    1
    34    13    19    1
    35    13    14    2
    36    19    16    2
    37    20    18    2
    38    14    15    1
    39    16    18    1
    40    16    15    1
    41    15    17    1
