@<TRIPOS>MOLECULE
63680_out_ligand_01.pdbqt
 36 40 0 0 0
SMALL
GASTEIGER

@<TRIPOS>ATOM
      1  C         16.2550  -21.8040   -9.9890 C.3     1  UNL1        0.1210
      2  C         17.6330  -21.6990  -10.5980 C.2     1  UNL1       -0.0480
      3  C         18.4330  -22.8420  -10.7490 C.2     1  UNL1        0.0090
      4  C         19.7120  -22.7460  -11.3030 C.2     1  UNL1        0.0170
      5  C         20.1970  -21.5060  -11.7310 C.2     1  UNL1        0.0320
      6  C         19.4080  -20.3590  -11.5830 C.2     1  UNL1        0.0170
      7  C         18.1330  -20.4570  -11.0210 C.2     1  UNL1        0.0090
      8  C         21.5660  -21.4360  -12.3040 C.2     1  UNL1        0.2520
      9  O         21.7310  -21.0530  -13.4560 O.2     1  UNL1       -0.2680
     10  N         22.5880  -21.8050  -11.4560 N.am    1  UNL1       -0.3520
     11  H         22.3730  -22.0490  -10.4960 H       1  UNL1        0.1630
     12  C         23.9780  -21.9040  -11.9030 C.3     1  UNL1        0.0840
     13  C         24.9090  -21.4580  -10.7670 C.3     1  UNL1        0.0250
     14  C         26.4090  -21.3750  -11.0860 C.3     1  UNL1        0.0020
     15  C         26.7660  -21.3590  -12.5700 C.3     1  UNL1        0.0000
     16  C         26.5700  -22.6900  -13.3080 C.3     1  UNL1        0.0000
     17  C         25.6920  -23.7300  -12.6140 C.3     1  UNL1        0.0020
     18  C         24.2350  -23.3230  -12.4270 C.3     1  UNL1        0.0250
     19  S         15.8900  -23.5060   -9.4580 S.3     1  UNL1       -0.0870
     20  C         15.9790  -23.3220   -7.7360 C.ar    1  UNL1        0.1710
     21  N         15.1000  -22.6640   -7.0110 N.ar    1  UNL1       -0.2210
     22  C         15.5470  -22.7850   -5.7220 C.ar    1  UNL1        0.1050
     23  C         15.0270  -22.2990   -4.5190 C.2     1  UNL1        0.0370
     24  C         16.7170  -23.5350   -5.6680 C.ar    1  UNL1        0.1610
     25  C         15.7270  -22.6050   -3.3490 C.2     1  UNL1        0.0220
     26  C         16.8910  -23.3640   -3.4330 C.2     1  UNL1        0.1190
     27  N         17.4330  -23.8610   -4.5720 N.2     1  UNL1       -0.2410
     28  N         16.9820  -23.8690   -6.9720 N.ar    1  UNL1       -0.3040
     29  C         18.0850  -24.7130   -7.3940 C.3     1  UNL1        0.1710
     30  C         19.3430  -23.9160   -7.6550 C.2     1  UNL1       -0.0370
     31  C         19.4730  -22.6030   -7.1720 C.2     1  UNL1        0.0090
     32  C         20.6290  -21.8590   -7.4210 C.2     1  UNL1        0.0040
     33  C         21.6710  -22.4200   -8.1570 C.2     1  UNL1        0.0420
     34  C         21.5470  -23.7210   -8.6300 C.2     1  UNL1        0.1170
     35  F         22.5480  -24.2670   -9.3350 F       1  UNL1       -0.2060
     36  C         20.4020  -24.4710   -8.3860 C.2     1  UNL1        0.0510
@<TRIPOS>BOND
     1     9     8    2
     2    16    17    1
     3    16    15    1
     4    17    18    1
     5    15    14    1
     6    18    12    1
     7     8     5    1
     8     8    10   am
     9    12    10    1
    10    12    13    1
    11     5     6    2
    12     5     4    1
    13     6     7    1
    14    10    11    1
    15     4     3    2
    16    14    13    1
    17     7     2    2
    18     3     2    1
    19     2     1    1
    20     1    19    1
    21    19    20    1
    22    35    34    1
    23    34    36    1
    24    34    33    2
    25    36    30    2
    26    33    32    1
    27    20    21   ar
    28    20    28   ar
    29    30    29    1
    30    30    31    1
    31    32    31    2
    32    29    28    1
    33    21    22   ar
    34    28    24   ar
    35    22    24   ar
    36    22    23    1
    37    24    27    1
    38    27    26    2
    39    23    25    2
    40    26    25    1
