@<TRIPOS>MOLECULE
63695_out_ligand_01.pdbqt
 30 33 0 0 0
SMALL
GASTEIGER

@<TRIPOS>ATOM
      1  C         17.1750  -21.7720  -10.6600 C.ar    1  UNL1        0.1580
      2  N         17.0500  -20.7360  -11.4990 N.ar    1  UNL1       -0.1110
      3  O         18.3300  -20.6180  -12.0430 O.2     1  UNL1       -0.1890
      4  C         19.1030  -21.5990  -11.4720 C.ar    1  UNL1        0.2230
      5  C         20.4890  -21.7820  -11.7650 C.ar    1  UNL1        0.0950
      6  N         21.1190  -21.0590  -12.7460 N.ar    1  UNL1       -0.3520
      7  C         22.4440  -21.4120  -12.8380 C.ar    1  UNL1        0.0430
      8  C         23.4460  -20.9330  -13.6880 C.2     1  UNL1        0.0310
      9  C         24.7270  -21.4820  -13.5540 C.2     1  UNL1        0.0090
     10  C         24.9980  -22.4810  -12.6150 C.2     1  UNL1       -0.0610
     11  C         26.3880  -23.0270  -12.4710 C.3     1  UNL1        0.0480
     12  C         23.9730  -22.9300  -11.7640 C.2     1  UNL1        0.0210
     13  C         22.6710  -22.3960  -11.8780 C.ar    1  UNL1       -0.0010
     14  C         21.4320  -22.6270  -11.1940 C.ar    1  UNL1       -0.0180
     15  C         21.2000  -23.5890  -10.0800 C.3     1  UNL1        0.0520
     16  N         18.4190  -22.3370  -10.6230 N.ar    1  UNL1       -0.2030
     17  H         20.6730  -20.3620  -13.3280 H       1  UNL1        0.1660
     18  C         16.0450  -22.2880   -9.8500 C.3     1  UNL1        0.1030
     19  C         16.3200  -22.2750   -8.3420 C.3     1  UNL1        0.1330
     20  N         16.6360  -23.5920   -7.7620 N.am    1  UNL1       -0.3520
     21  C         17.5440  -23.7850   -6.7140 C.2     1  UNL1        0.2530
     22  O         17.5690  -24.7910   -6.0100 O.2     1  UNL1       -0.2670
     23  C         15.6750  -24.6610   -7.9920 C.3     1  UNL1        0.1520
     24  C         18.5330  -22.7270   -6.4230 C.2     1  UNL1        0.0320
     25  C         19.6870  -22.6490   -7.2060 C.2     1  UNL1        0.0170
     26  C         20.6270  -21.6480   -6.9520 C.2     1  UNL1        0.0070
     27  C         20.4040  -20.7070   -5.9370 C.2     1  UNL1       -0.0620
     28  C         21.4310  -19.6520   -5.6450 C.3     1  UNL1        0.0480
     29  C         19.2340  -20.7870   -5.1680 C.2     1  UNL1        0.0070
     30  C         18.2920  -21.7860   -5.4190 C.2     1  UNL1        0.0170
@<TRIPOS>BOND
     1     8     9    1
     2     8     7    2
     3     9    10    2
     4    17     6    1
     5     7     6   ar
     6     7    13   ar
     7     6     5   ar
     8    10    11    1
     9    10    12    1
    10     3     2   ar
    11     3     4   ar
    12    13    12    2
    13    13    14   ar
    14     5     4    1
    15     5    14   ar
    16     2     1   ar
    17     4    16   ar
    18    14    15    1
    19     1    16   ar
    20     1    18    1
    21    18    19    1
    22    19    20    1
    23    23    20    1
    24    20    21   am
    25    25    26    1
    26    25    24    2
    27    26    27    2
    28    21    24    1
    29    21    22    2
    30    24    30    1
    31    27    28    1
    32    27    29    1
    33    30    29    2
