@<TRIPOS>MOLECULE
63697_out_ligand_01.pdbqt
 33 36 0 0 0
SMALL
GASTEIGER

@<TRIPOS>ATOM
      1  C         19.2160  -22.8780  -10.0320 C.2     1  UNL1       -0.0040
      2  C         19.2620  -21.7630  -11.0650 C.2     1  UNL1        0.0580
      3  C         17.9730  -21.0820  -11.4650 C.3     1  UNL1        0.0720
      4  N         20.3380  -21.3230  -11.6520 N.2     1  UNL1       -0.0650
      5  C         21.5050  -21.9300  -11.3260 C.cat   1  UNL1        0.7520
      6  N         22.7150  -21.6850  -11.7810 N.2     1  UNL1       -0.0330
      7  C         23.4720  -22.6400  -11.1640 C.2     1  UNL1        0.2270
      8  N         22.8310  -23.4330  -10.3140 N.pl3   1  UNL1       -0.1240
      9  N         21.5550  -22.9940  -10.4200 N.pl3   1  UNL1       -0.0610
     10  C         20.4080  -23.4650   -9.7700 C.3     1  UNL1        0.0590
     11  C         20.6130  -24.5980   -8.7950 C.3     1  UNL1        0.0720
     12  S         25.1730  -22.8520  -11.4740 S.3     1  UNL1       -0.0790
     13  C         25.8040  -21.3200  -10.7270 C.3     1  UNL1        0.1850
     14  C         26.0370  -20.2590  -11.8040 C.2     1  UNL1        0.2310
     15  O         26.4590  -19.1420  -11.5060 O.2     1  UNL1       -0.2720
     16  N         25.7240  -20.6950  -13.0780 N.am    1  UNL1       -0.3270
     17  H         25.4530  -21.6720  -13.1700 H       1  UNL1        0.1690
     18  C         25.9010  -20.0090  -14.2990 C.2     1  UNL1        0.0350
     19  C         26.4980  -18.7580  -14.4050 C.2     1  UNL1        0.0300
     20  C         26.6620  -18.1570  -15.6600 C.2     1  UNL1        0.0090
     21  C         26.2220  -18.7890  -16.8310 C.2     1  UNL1       -0.0560
     22  C         26.3930  -18.0920  -18.1530 C.3     1  UNL1        0.0490
     23  C         25.5960  -20.0460  -16.7330 C.2     1  UNL1       -0.0540
     24  C         25.0490  -20.7440  -17.9440 C.3     1  UNL1        0.0490
     25  C         25.4640  -20.6500  -15.4680 C.2     1  UNL1        0.0370
     26  C         17.8970  -23.2920   -9.4300 C.3     1  UNL1        0.0810
     27  C         17.8350  -23.1770   -7.9190 C.2     1  UNL1       -0.0540
     28  C         17.4150  -24.2670   -7.1470 C.2     1  UNL1        0.0080
     29  C         17.3910  -24.1940   -5.7520 C.2     1  UNL1        0.0070
     30  C         17.7810  -23.0260   -5.0950 C.2     1  UNL1       -0.0620
     31  C         17.7810  -22.9590   -3.5960 C.3     1  UNL1        0.0480
     32  C         18.2150  -21.9410   -5.8570 C.2     1  UNL1        0.0070
     33  C         18.2490  -22.0200   -7.2580 C.2     1  UNL1        0.0080
@<TRIPOS>BOND
     1    22    21    1
     2    24    23    1
     3    21    23    2
     4    21    20    1
     5    23    25    1
     6    20    19    2
     7    25    18    2
     8    19    18    1
     9    18    16    1
    10    17    16    1
    11    16    14   am
    12    14    15    2
    13    14    13    1
    14     6     5    1
    15     6     7    2
    16     4     5    2
    17     4     2    1
    18    12     7    1
    19    12    13    1
    20     3     2    1
    21     5     9    1
    22     7     8    1
    23     2     1    2
    24     9     8    1
    25     9    10    1
    26     1    10    1
    27     1    26    1
    28    10    11    1
    29    26    27    1
    30    27    33    2
    31    27    28    1
    32    33    32    1
    33    28    29    2
    34    32    30    2
    35    29    30    1
    36    30    31    1
