@<TRIPOS>MOLECULE
63701_out_ligand_01.pdbqt
 34 36 0 0 0
SMALL
GASTEIGER

@<TRIPOS>ATOM
      1  C         24.2170  -21.8930  -10.2490 C.ar    1  UNL1        0.2310
      2  N         24.0280  -23.1560   -9.9150 N.ar    1  UNL1       -0.1140
      3  N         23.1450  -23.1620   -8.8590 N.ar    1  UNL1       -0.1240
      4  C         22.8670  -21.8990   -8.6010 C.ar    1  UNL1        0.1870
      5  O         23.5090  -21.0370   -9.4540 O.2     1  UNL1       -0.2670
      6  S         25.2120  -21.3610  -11.5650 S.3     1  UNL1       -0.0730
      7  C         24.3430  -22.1010  -12.9760 C.3     1  UNL1        0.1860
      8  C         22.8840  -21.6680  -13.0010 C.2     1  UNL1        0.2310
      9  O         22.4530  -20.9790  -13.9220 O.2     1  UNL1       -0.2720
     10  N         22.1590  -22.1230  -11.9120 N.am    1  UNL1       -0.3270
     11  H         22.6920  -22.5580  -11.1610 H       1  UNL1        0.1690
     12  C         20.7900  -21.9250  -11.6460 C.2     1  UNL1        0.0340
     13  C         20.1540  -22.8780  -10.8410 C.2     1  UNL1        0.0320
     14  C         18.7920  -22.7660  -10.5290 C.2     1  UNL1        0.0390
     15  C         18.0470  -21.6980  -11.0210 C.2     1  UNL1        0.0780
     16  C         18.6820  -20.7470  -11.8250 C.2     1  UNL1        0.0390
     17  C         20.0410  -20.8580  -12.1370 C.2     1  UNL1        0.0320
     18  O         16.7210  -21.4610  -10.8050 O.2     1  UNL1       -0.2550
     19  C         16.0470  -22.2790   -9.8640 C.3     1  UNL1        0.5300
     20  F         14.7180  -22.1990  -10.0920 F       1  UNL1       -0.1440
     21  F         16.2820  -21.8650   -8.6000 F       1  UNL1       -0.1440
     22  F         16.4170  -23.5730   -9.9900 F       1  UNL1       -0.1440
     23  C         21.9710  -21.3360   -7.5530 C.3     1  UNL1        0.2110
     24  N         20.8270  -22.1910   -7.3040 N.am    1  UNL1       -0.3490
     25  C         19.8150  -21.7990   -6.4570 C.2     1  UNL1        0.2550
     26  O         19.8900  -20.7840   -5.7730 O.2     1  UNL1       -0.2680
     27  H         20.6690  -22.9690   -7.9360 H       1  UNL1        0.1630
     28  C         18.5940  -22.6500   -6.3980 C.2     1  UNL1        0.0700
     29  C         17.4980  -22.1930   -5.6500 C.2     1  UNL1        0.0200
     30  C         16.3270  -22.9510   -5.5670 C.2     1  UNL1        0.0010
     31  C         16.2390  -24.1740   -6.2300 C.2     1  UNL1        0.0030
     32  C         17.3210  -24.6370   -6.9780 C.2     1  UNL1        0.0430
     33  C         18.4860  -23.8770   -7.0580 C.2     1  UNL1        0.1320
     34  F         19.5010  -24.3590   -7.7930 F       1  UNL1       -0.2050
@<TRIPOS>BOND
     1     9     8    2
     2     8     7    1
     3     8    10   am
     4     7     6    1
     5    17    16    1
     6    17    12    2
     7    10    12    1
     8    10    11    1
     9    16    15    2
    10    12    13    1
    11     6     1    1
    12    15    18    1
    13    15    14    1
    14    13    14    2
    15    18    19    1
    16     1     2   ar
    17     1     5   ar
    18    20    19    1
    19    22    19    1
    20     2     3   ar
    21    19    21    1
    22     5     4   ar
    23     3     4   ar
    24     4    23    1
    25    27    24    1
    26    34    33    1
    27    23    24    1
    28    24    25   am
    29    33    32    1
    30    33    28    2
    31    32    31    2
    32    25    28    1
    33    25    26    2
    34    28    29    1
    35    31    30    1
    36    29    30    2
