@<TRIPOS>MOLECULE
63705_out_ligand_01.pdbqt
 37 39 0 0 0
SMALL
GASTEIGER

@<TRIPOS>ATOM
      1  C         26.3200  -19.8500  -17.4300 C.3     1  UNL1        0.0500
      2  C         26.1460  -20.5030  -16.0820 C.2     1  UNL1       -0.0340
      3  C         26.5200  -19.6780  -14.9500 C.2     1  UNL1        0.0330
      4  C         26.4680  -20.1350  -13.6880 C.2     1  UNL1        0.0120
      5  C         26.8870  -19.2500  -12.5440 C.3     1  UNL1        0.0680
      6  N         26.0140  -21.4320  -13.4470 N.am    1  UNL1       -0.3080
      7  C         25.5730  -22.2700  -14.4790 C.2     1  UNL1        0.2690
      8  O         25.0710  -23.3700  -14.2650 O.2     1  UNL1       -0.2660
      9  C         25.6910  -21.7540  -15.8760 C.2     1  UNL1        0.1180
     10  C         25.3040  -22.6180  -16.9370 C.1     1  UNL1        0.1050
     11  N         24.9940  -23.2820  -17.8370 N.1     1  UNL1       -0.1910
     12  C         25.9880  -21.9820  -12.0790 C.3     1  UNL1        0.2350
     13  C         24.6920  -21.7450  -11.2890 C.2     1  UNL1        0.2400
     14  O         24.7120  -21.0410  -10.2800 O.2     1  UNL1       -0.2710
     15  N         23.5990  -22.4450  -11.7670 N.am    1  UNL1       -0.3260
     16  H         23.7610  -23.0090  -12.5920 H       1  UNL1        0.1690
     17  C         22.2940  -22.4770  -11.2330 C.2     1  UNL1        0.0340
     18  C         21.2220  -21.7410  -11.7480 C.2     1  UNL1        0.0300
     19  C         19.9570  -21.8220  -11.1550 C.2     1  UNL1        0.0190
     20  C         19.7410  -22.6550  -10.0550 C.2     1  UNL1        0.0320
     21  C         20.8110  -23.3850   -9.5230 C.2     1  UNL1        0.0190
     22  C         22.0800  -23.2920  -10.1130 C.2     1  UNL1        0.0300
     23  C         18.3750  -22.7050   -9.4680 C.2     1  UNL1        0.2510
     24  O         17.4130  -22.9690  -10.1800 O.2     1  UNL1       -0.2680
     25  N         18.2800  -22.4880   -8.1110 N.am    1  UNL1       -0.3530
     26  H         19.1230  -22.4330   -7.5500 H       1  UNL1        0.1630
     27  C         17.0180  -22.5970   -7.4070 C.3     1  UNL1        0.1620
     28  C         17.1610  -22.3620   -5.9150 C.2     1  UNL1       -0.0250
     29  C         18.3270  -21.7390   -5.4220 C.2     1  UNL1        0.0090
     30  C         18.5080  -21.5130   -4.0570 C.2     1  UNL1        0.0010
     31  C         17.5370  -21.9180   -3.1530 C.2     1  UNL1        0.0010
     32  C         16.3900  -22.5640   -3.6130 C.2     1  UNL1        0.0170
     33  C         16.1930  -22.8110   -4.9880 C.2     1  UNL1        0.0550
     34  C         14.9370  -23.5360   -5.4190 C.3     1  UNL1        0.4180
     35  F         15.0800  -24.2220   -6.5900 F       1  UNL1       -0.1660
     36  F         13.8750  -22.7030   -5.6120 F       1  UNL1       -0.1660
     37  F         14.5320  -24.4560   -4.4980 F       1  UNL1       -0.1660
@<TRIPOS>BOND
     1    11    10    3
     2     1     2    1
     3    10     9    1
     4     2     9    2
     5     2     3    1
     6     9     7    1
     7     3     4    2
     8     7     8    2
     9     7     6   am
    10     4     6    1
    11     4     5    1
    12     6    12    1
    13    16    15    1
    14    12    13    1
    15    15    13   am
    16    15    17    1
    17    18    17    2
    18    18    19    1
    19    13    14    2
    20    17    22    1
    21    19    20    2
    22    24    23    2
    23    22    21    2
    24    20    21    1
    25    20    23    1
    26    23    25   am
    27    25    26    1
    28    25    27    1
    29    27    28    1
    30    35    34    1
    31    28    29    2
    32    28    33    1
    33    36    34    1
    34    29    30    1
    35    34    33    1
    36    34    37    1
    37    33    32    2
    38    30    31    2
    39    32    31    1
