@<TRIPOS>MOLECULE
63710_out_ligand_01.pdbqt
 32 35 0 0 0
SMALL
GASTEIGER

@<TRIPOS>ATOM
      1  C         19.3290  -22.9480   -9.9530 C.2     1  UNL1       -0.0040
      2  C         19.1230  -21.8810  -11.0230 C.2     1  UNL1        0.0580
      3  C         17.7380  -21.3020  -11.2260 C.3     1  UNL1        0.0720
      4  N         20.0540  -21.4050  -11.7980 N.2     1  UNL1       -0.0650
      5  C         21.3040  -21.9080  -11.6350 C.cat   1  UNL1        0.7520
      6  N         22.4040  -21.5930  -12.2840 N.2     1  UNL1       -0.0330
      7  C         23.3380  -22.4200  -11.7370 C.2     1  UNL1        0.2270
      8  N         22.9000  -23.2210  -10.7700 N.pl3   1  UNL1       -0.1240
      9  N         21.5870  -22.9010  -10.6950 N.pl3   1  UNL1       -0.0610
     10  C         20.5960  -23.4210   -9.8500 C.3     1  UNL1        0.0590
     11  C         21.0590  -24.4690   -8.8740 C.3     1  UNL1        0.0720
     12  S         25.0010  -22.4560  -12.2480 S.3     1  UNL1       -0.0790
     13  C         24.8260  -22.8530  -14.0070 C.3     1  UNL1        0.1850
     14  C         24.7050  -21.5900  -14.8470 C.2     1  UNL1        0.2310
     15  O         23.6620  -21.3260  -15.4390 O.2     1  UNL1       -0.2720
     16  N         25.8630  -20.8310  -14.8600 N.am    1  UNL1       -0.3270
     17  H         26.5720  -21.0950  -14.1720 H       1  UNL1        0.1690
     18  C         26.1090  -19.6380  -15.5630 C.2     1  UNL1        0.0340
     19  C         26.4260  -18.4240  -14.9510 C.2     1  UNL1        0.0310
     20  C         26.6540  -17.2790  -15.7230 C.2     1  UNL1        0.0210
     21  C         26.5640  -17.3470  -17.1110 C.2     1  UNL1        0.0110
     22 BR         26.8740  -15.8020  -18.1530 Br      1  UNL1       -0.0510
     23  C         26.2450  -18.5500  -17.7350 C.2     1  UNL1        0.0210
     24  C         26.0170  -19.6900  -16.9610 C.2     1  UNL1        0.0310
     25  C         18.1440  -23.4160   -9.1410 C.3     1  UNL1        0.0810
     26  C         18.1620  -22.9780   -7.6930 C.2     1  UNL1       -0.0540
     27  C         17.3980  -23.6690   -6.7440 C.2     1  UNL1        0.0080
     28  C         17.4120  -23.2860   -5.4000 C.2     1  UNL1        0.0070
     29  C         18.1950  -22.2060   -4.9780 C.2     1  UNL1       -0.0620
     30  C         18.2300  -21.8150   -3.5310 C.3     1  UNL1        0.0480
     31  C         18.9870  -21.5360   -5.9150 C.2     1  UNL1        0.0070
     32  C         18.9730  -21.9200   -7.2590 C.2     1  UNL1        0.0080
@<TRIPOS>BOND
     1    22    21    1
     2    23    21    2
     3    23    24    1
     4    21    20    1
     5    24    18    2
     6    20    19    2
     7    18    19    1
     8    18    16    1
     9    15    14    2
    10    16    14   am
    11    16    17    1
    12    14    13    1
    13    13    12    1
    14     6     7    2
    15     6     5    1
    16    12     7    1
    17     4     5    2
    18     4     2    1
    19     7     8    1
    20     5     9    1
    21     3     2    1
    22     2     1    2
    23     8     9    1
    24     9    10    1
    25     1    10    1
    26     1    25    1
    27    10    11    1
    28    25    26    1
    29    26    32    2
    30    26    27    1
    31    32    31    1
    32    27    28    2
    33    31    29    2
    34    28    29    1
    35    29    30    1
