@<TRIPOS>MOLECULE
63718_out_ligand_01.pdbqt
 32 34 0 0 0
SMALL
GASTEIGER

@<TRIPOS>ATOM
      1  S         21.0090  -23.6210   -8.9070 S.O2    1  UNL1        0.2660
      2  O         19.9360  -24.5930   -8.9300 O.2     1  UNL1       -0.2000
      3  O         22.3890  -24.0510   -8.8200 O.2     1  UNL1       -0.2000
      4  C         20.8350  -22.5990  -10.3450 C.2     1  UNL1        0.1140
      5  C         21.9110  -22.4780  -11.2350 C.2     1  UNL1        0.0420
      6  C         21.8000  -21.6750  -12.3810 C.2     1  UNL1        0.0020
      7  C         20.5960  -20.9920  -12.6030 C.2     1  UNL1        0.0170
      8  C         19.5220  -21.1150  -11.7150 C.2     1  UNL1        0.0390
      9  C         19.6330  -21.9380  -10.5930 C.2     1  UNL1        0.0910
     10  C         22.9180  -21.5480  -13.3080 C.ar    1  UNL1        0.1190
     11  O         22.7280  -20.6710  -14.3340 O.2     1  UNL1       -0.2120
     12  N         23.8390  -20.6480  -15.1490 N.ar    1  UNL1       -0.1330
     13  C         24.7010  -21.5150  -14.6110 C.ar    1  UNL1        0.0670
     14  C         26.0220  -21.7370  -15.2470 C.3     1  UNL1        0.0730
     15  C         24.1750  -22.1130  -13.4310 C.ar    1  UNL1        0.0010
     16  C         24.8410  -23.0970  -12.5470 C.3     1  UNL1        0.0530
     17  O         18.6010  -22.0060   -9.6960 O.2     1  UNL1       -0.3540
     18  C         17.3830  -22.3950  -10.3390 C.3     1  UNL1        0.2100
     19  N         20.6890  -22.5580   -7.6240 N.pl3   1  UNL1       -0.2810
     20  H         21.5380  -22.4430   -7.0690 H       1  UNL1        0.1790
     21  C         19.4640  -22.6900   -6.9070 C.2     1  UNL1        0.0420
     22  C         19.0380  -21.6230   -6.1080 C.2     1  UNL1        0.0310
     23  C         17.8450  -21.7160   -5.3890 C.2     1  UNL1        0.0270
     24  C         17.0740  -22.8770   -5.4850 C.2     1  UNL1        0.0740
     25  C         17.4940  -23.9490   -6.2780 C.2     1  UNL1        0.0270
     26  C         18.6880  -23.8470   -6.9970 C.2     1  UNL1        0.0310
     27  S         15.5560  -23.0100   -4.5780 S.O2    1  UNL1        0.2390
     28  O         14.5370  -22.2690   -5.2810 O.2     1  UNL1       -0.2060
     29  O         15.3830  -24.3860   -4.1750 O.2     1  UNL1       -0.2060
     30  N         15.9330  -22.1720   -3.1660 N.3     1  UNL1       -0.2250
     31  H         15.6550  -21.1920   -3.1870 H       1  UNL1        0.1360
     32  H         16.9280  -22.2890   -2.9670 H       1  UNL1        0.1360
@<TRIPOS>BOND
     1    14    13    1
     2    12    13   ar
     3    12    11   ar
     4    13    15   ar
     5    11    10   ar
     6    15    10   ar
     7    15    16    1
     8    10     6    1
     9     7     6    2
    10     7     8    1
    11     6     5    1
    12     8     9    2
    13     5     4    2
    14     9     4    1
    15     9    17    1
    16     4     1    1
    17    18    17    1
    18     2     1    2
    19     1     3    2
    20     1    19    1
    21    19    20    1
    22    19    21    1
    23    26    21    2
    24    26    25    1
    25    21    22    1
    26    25    24    2
    27    22    23    2
    28    24    23    1
    29    24    27    1
    30    28    27    2
    31    27    29    2
    32    27    30    1
    33    31    30    1
    34    30    32    1
