@<TRIPOS>MOLECULE
63714_out_ligand_01.pdbqt
 38 41 0 0 0
SMALL
GASTEIGER

@<TRIPOS>ATOM
      1  C         17.1710  -21.7990  -10.6380 C.2     1  UNL1        0.0700
      2  C         17.5980  -20.9850  -11.6820 C.2     1  UNL1        0.0380
      3  C         18.9610  -20.8710  -11.9610 C.2     1  UNL1        0.0160
      4  C         19.9040  -21.5700  -11.1950 C.2     1  UNL1       -0.0080
      5  C         21.3240  -21.4350  -11.5000 C.2     1  UNL1        0.0270
      6  C         22.2530  -22.1120  -10.8070 C.2     1  UNL1        0.0240
      7  C         21.8350  -23.0100   -9.6870 C.2     1  UNL1        0.2560
      8  O         22.6880  -23.6670   -9.0930 O.2     1  UNL1       -0.2670
      9  N         20.4800  -23.0870   -9.3790 N.am    1  UNL1       -0.3040
     10  C         19.4890  -22.3890  -10.1370 C.2     1  UNL1        0.0510
     11  C         18.1150  -22.4960   -9.8740 C.2     1  UNL1        0.0670
     12  C         23.7460  -22.0500  -11.0230 C.3     1  UNL1        0.1360
     13  N         24.2410  -23.2830  -11.6410 N.pl3   1  UNL1       -0.2880
     14  H         24.9860  -23.7060  -11.0920 H       1  UNL1        0.1280
     15  C         24.5910  -23.2850  -13.0000 C.2     1  UNL1        0.0110
     16  C         24.1840  -22.1970  -13.7830 C.2     1  UNL1        0.0260
     17  C         24.5440  -22.0870  -15.1290 C.2     1  UNL1        0.0410
     18  C         25.3480  -23.0580  -15.7240 C.2     1  UNL1        0.1010
     19  C         25.8030  -24.1390  -14.9470 C.2     1  UNL1        0.1030
     20  C         25.4340  -24.2330  -13.5950 C.2     1  UNL1        0.0630
     21  O         25.7510  -23.0400  -17.0350 O.2     1  UNL1       -0.3530
     22  C         24.7430  -23.0640  -18.0350 C.3     1  UNL1        0.2100
     23  O         26.6060  -25.0470  -15.5970 O.2     1  UNL1       -0.3530
     24  C         27.1200  -26.1360  -14.8460 C.3     1  UNL1        0.2100
     25  C         20.0870  -23.9020   -8.2210 C.3     1  UNL1        0.2350
     26  C         19.3260  -23.1470   -7.1200 C.2     1  UNL1        0.2400
     27  O         19.7560  -22.0720   -6.7040 O.2     1  UNL1       -0.2710
     28  N         18.2300  -23.8260   -6.6230 N.am    1  UNL1       -0.3260
     29  H         18.0540  -24.7330   -7.0380 H       1  UNL1        0.1690
     30  C         17.3400  -23.4160   -5.6120 C.2     1  UNL1        0.0370
     31  C         17.6770  -23.7490   -4.2920 C.2     1  UNL1        0.0290
     32  C         16.8500  -23.3850   -3.2240 C.2     1  UNL1        0.0050
     33  C         15.6740  -22.6830   -3.4710 C.2     1  UNL1        0.0420
     34  C         15.3410  -22.3540   -4.7800 C.2     1  UNL1        0.1180
     35  F         14.2060  -21.6800   -5.0150 F       1  UNL1       -0.2060
     36  C         16.1590  -22.7130   -5.8490 C.2     1  UNL1        0.0710
     37  O         15.8720  -22.0030  -10.2600 O.2     1  UNL1       -0.3560
     38  C         15.5760  -23.2180   -9.5830 C.3     1  UNL1        0.2100
@<TRIPOS>BOND
     1    22    21    1
     2    21    18    1
     3    18    17    2
     4    18    19    1
     5    23    19    1
     6    23    24    1
     7    17    16    1
     8    19    20    2
     9    16    15    2
    10    20    15    1
    11    15    13    1
    12     3     2    1
    13     3     4    2
    14     2     1    2
    15    13    14    1
    16    13    12    1
    17     5     4    1
    18     5     6    2
    19     4    10    1
    20    12     6    1
    21     6     7    1
    22     1    37    1
    23     1    11    1
    24    37    38    1
    25    10    11    2
    26    10     9    1
    27     7     9   am
    28     7     8    2
    29     9    25    1
    30    25    26    1
    31    26    27    2
    32    26    28   am
    33    29    28    1
    34    28    30    1
    35    36    30    2
    36    36    34    1
    37    30    31    1
    38    35    34    1
    39    34    33    2
    40    31    32    2
    41    33    32    1
