@<TRIPOS>MOLECULE
63728_out_ligand_01.pdbqt
 32 36 0 0 0
SMALL
GASTEIGER

@<TRIPOS>ATOM
      1  N         21.9440  -22.7830  -10.5090 N.ar    1  UNL1       -0.2660
      2  C         20.7620  -22.2440  -10.9930 C.ar    1  UNL1        0.0310
      3  C         19.5660  -22.5940  -10.5160 C.ar    1  UNL1        0.0010
      4  C         19.5920  -23.5650   -9.4330 C.ar    1  UNL1        0.1090
      5  N         20.6480  -24.1440   -8.9860 N.ar    1  UNL1       -0.1860
      6  C         21.8780  -23.7920   -9.4990 C.ar    1  UNL1        0.3540
      7  O         22.8770  -24.3820   -9.0890 O.2     1  UNL1       -0.2440
      8  C         18.4430  -21.8550  -11.1400 C.3     1  UNL1        0.0440
      9  C         19.1770  -20.6820  -11.7940 C.3     1  UNL1        0.0110
     10  C         20.6240  -21.1460  -12.0020 C.3     1  UNL1        0.0590
     11  S         18.0620  -23.9670   -8.6910 S.3     1  UNL1       -0.0690
     12  C         17.5810  -22.3180   -8.0810 C.3     1  UNL1        0.3190
     13  N         16.1650  -22.1200   -8.3870 N.3     1  UNL1        0.0970
     14  H         15.8360  -22.9490   -8.8790 H       1  UNL1        0.3140
     15  H         16.1050  -21.3720   -9.0760 H       1  UNL1        0.3140
     16  C         17.8940  -22.0760   -6.6090 C.2     1  UNL1       -0.0040
     17  C         18.9700  -21.2190   -6.2800 C.2     1  UNL1        0.0110
     18  C         19.2430  -20.8760   -4.9610 C.2     1  UNL1        0.0020
     19  C         18.4420  -21.3700   -3.9400 C.2     1  UNL1        0.0120
     20  C         17.3680  -22.2250   -4.2160 C.2     1  UNL1       -0.0250
     21  C         16.5740  -22.6870   -3.1530 C.2     1  UNL1        0.0120
     22  C         17.0820  -22.6100   -5.5540 C.2     1  UNL1       -0.0170
     23  C         15.4970  -23.5390   -3.3760 C.2     1  UNL1        0.0010
     24  C         15.2070  -23.9490   -4.6670 C.2     1  UNL1        0.0010
     25  C         15.9870  -23.4950   -5.7360 C.2     1  UNL1        0.0130
     26  C         23.2420  -22.3740  -10.9770 C.2     1  UNL1        0.0440
     27  C         24.0190  -21.4800  -10.2270 C.2     1  UNL1        0.0310
     28  C         25.2720  -21.0560  -10.6820 C.2     1  UNL1        0.0090
     29  C         25.7840  -21.5310  -11.8920 C.2     1  UNL1       -0.0620
     30  C         27.1160  -21.0560  -12.3920 C.3     1  UNL1        0.0480
     31  C         25.0150  -22.4200  -12.6470 C.2     1  UNL1        0.0090
     32  C         23.7610  -22.8410  -12.1910 C.2     1  UNL1        0.0310
@<TRIPOS>BOND
     1    31    32    1
     2    31    29    2
     3    30    29    1
     4    32    26    2
     5    10     9    1
     6    10     2    1
     7    29    28    1
     8     9     8    1
     9     8     3    1
    10     2     3   ar
    11     2     1   ar
    12    26     1    1
    13    26    27    1
    14    28    27    2
    15     3     4   ar
    16     1     6   ar
    17     6     7    2
    18     6     5   ar
    19     4     5   ar
    20     4    11    1
    21    15    13    1
    22    14    13    1
    23    11    12    1
    24    13    12    1
    25    12    16    1
    26    16    17    2
    27    16    22    1
    28    17    18    1
    29    25    22    1
    30    25    24    2
    31    22    20    2
    32    18    19    2
    33    24    23    1
    34    20    19    1
    35    20    21    1
    36    23    21    2
