@<TRIPOS>MOLECULE
63769_out_ligand_01.pdbqt
 37 41 0 0 0
SMALL
GASTEIGER

@<TRIPOS>ATOM
      1  C         23.6460  -21.7020  -10.0130 C.ar    1  UNL1        0.1920
      2  N         24.8730  -21.2410   -9.9990 N.ar    1  UNL1       -0.1220
      3  N         25.3250  -21.2240  -11.2950 N.ar    1  UNL1       -0.1280
      4  C         24.3590  -21.6800  -12.0710 C.ar    1  UNL1        0.1730
      5  N         23.2610  -21.9810  -11.2980 N.ar    1  UNL1       -0.3040
      6  S         22.6640  -21.9480   -8.6180 S.3     1  UNL1       -0.0810
      7  C         22.3510  -23.7320   -8.7620 C.3     1  UNL1        0.1850
      8  C         20.8950  -24.0670   -8.4710 C.2     1  UNL1        0.2310
      9  N         20.1580  -22.9850   -8.0140 N.am    1  UNL1       -0.3260
     10  H         20.6180  -22.0770   -8.0790 H       1  UNL1        0.1690
     11  O         20.4940  -25.2190   -8.6190 O.2     1  UNL1       -0.2720
     12  C         18.8360  -22.9810   -7.5110 C.2     1  UNL1        0.0410
     13  C         18.5140  -22.1260   -6.4340 C.2     1  UNL1       -0.0350
     14  C         17.2060  -22.1440   -5.9090 C.2     1  UNL1        0.0090
     15  C         19.5180  -21.1820   -5.8180 C.3     1  UNL1        0.0500
     16  C         16.2310  -22.9920   -6.4350 C.2     1  UNL1        0.0070
     17  C         16.5390  -23.8340   -7.5000 C.2     1  UNL1       -0.0600
     18  C         15.5160  -24.7810   -8.0480 C.3     1  UNL1        0.0480
     19  C         17.8400  -23.8260   -8.0250 C.2     1  UNL1        0.0370
     20  C         21.9820  -22.4960  -11.7520 C.3     1  UNL1        0.1650
     21  C         20.7990  -21.6810  -11.2340 C.3     1  UNL1        0.1400
     22  C         20.2680  -20.6910  -12.2620 C.3     1  UNL1        0.0350
     23  C         18.8440  -20.5090  -11.7950 C.3     1  UNL1        0.0290
     24  C         18.4770  -21.9060  -11.3450 C.3     1  UNL1        0.1680
     25  O         19.6910  -22.5430  -10.9250 O.3     1  UNL1       -0.3840
     26  C         24.4580  -21.8040  -13.4940 C.ar    1  UNL1        0.0820
     27  S         24.2490  -20.4260  -14.4880 S.2     1  UNL1       -0.0630
     28  C         24.5380  -21.3210  -15.9060 C.ar    1  UNL1        0.1100
     29  N         24.5260  -20.7160  -17.1170 N.2     1  UNL1       -0.2530
     30  C         24.7640  -22.6700  -15.6530 C.ar    1  UNL1        0.0270
     31  C         24.7510  -21.5510  -18.1530 C.2     1  UNL1        0.1180
     32  C         24.9830  -22.9090  -18.0490 C.2     1  UNL1        0.0200
     33  C         25.0010  -23.4900  -16.7810 C.2     1  UNL1        0.0180
     34  C         24.7130  -22.9390  -14.2410 C.ar    1  UNL1        0.0600
     35  N         24.9110  -24.1780  -13.7130 N.pl3   1  UNL1       -0.3970
     36  H         24.5050  -24.3970  -12.8040 H       1  UNL1        0.1560
     37  H         24.8830  -24.9870  -14.3270 H       1  UNL1        0.1560
@<TRIPOS>BOND
     1    31    32    2
     2    31    29    1
     3    32    33    1
     4    29    28    2
     5    33    30    2
     6    28    30   ar
     7    28    27   ar
     8    30    34   ar
     9    27    26   ar
    10    37    35    1
    11    34    35    1
    12    34    26   ar
    13    35    36    1
    14    26     4    1
    15    22    23    1
    16    22    21    1
    17     4     5   ar
    18     4     3   ar
    19    23    24    1
    20    20     5    1
    21    20    21    1
    22    24    25    1
    23     5     1   ar
    24     3     2   ar
    25    21    25    1
    26     1     2   ar
    27     1     6    1
    28     7     6    1
    29     7     8    1
    30    11     8    2
    31     8     9   am
    32    10     9    1
    33    18    17    1
    34    19    12    2
    35    19    17    1
    36     9    12    1
    37    12    13    1
    38    17    16    2
    39    16    14    1
    40    13    14    2
    41    13    15    1
