@<TRIPOS>MOLECULE
63776_out_ligand_01.pdbqt
 29 32 0 0 0
SMALL
GASTEIGER

@<TRIPOS>ATOM
      1  C         21.5100  -21.7200  -10.6910 C.2     1  UNL1        0.0400
      2  C         21.1180  -21.2660  -11.9590 C.2     1  UNL1        0.0180
      3  C         19.7590  -21.2010  -12.3020 C.2     1  UNL1        0.0030
      4  C         18.7770  -21.5830  -11.3850 C.2     1  UNL1        0.0300
      5  C         19.1690  -22.0190  -10.1300 C.2     1  UNL1        0.0440
      6  C         20.5210  -22.0810   -9.7790 C.2     1  UNL1       -0.0140
      7  C         20.6850  -22.5320   -8.3620 C.2     1  UNL1        0.0620
      8  C         19.2470  -22.8740   -7.9580 C.2     1  UNL1        0.1370
      9  N         18.3640  -22.4490   -9.0570 N.am    1  UNL1       -0.3130
     10  C         16.9790  -22.4290   -9.0370 C.2     1  UNL1        0.2580
     11  O         16.2410  -21.9960   -9.9150 O.2     1  UNL1       -0.2670
     12  C         22.9470  -21.7820  -10.3120 C.2     1  UNL1        0.2520
     13  O         23.3730  -21.1170   -9.3760 O.2     1  UNL1       -0.2680
     14  N         23.7290  -22.6330  -11.0620 N.am    1  UNL1       -0.3530
     15  H         23.3160  -23.1760  -11.8070 H       1  UNL1        0.1630
     16  C         25.1590  -22.7220  -10.8750 C.3     1  UNL1        0.1620
     17  C         25.8690  -21.6800  -11.6880 C.2     1  UNL1       -0.0230
     18  C         26.2910  -20.4760  -11.1160 C.2     1  UNL1        0.0120
     19  C         26.9280  -19.5230  -11.9040 C.2     1  UNL1        0.0200
     20  C         27.1210  -19.8040  -13.2460 C.2     1  UNL1        0.1160
     21  N         26.7270  -20.9530  -13.8360 N.2     1  UNL1       -0.2730
     22  C         26.1110  -21.8610  -13.0460 C.2     1  UNL1        0.1240
     23  C         16.3200  -22.9610   -7.8250 C.2     1  UNL1        0.0320
     24  C         15.9850  -24.3180   -7.7410 C.2     1  UNL1        0.0200
     25  C         15.3490  -24.7970   -6.5950 C.2     1  UNL1        0.0430
     26  C         15.0460  -23.9160   -5.5590 C.2     1  UNL1        0.1160
     27  F         14.4360  -24.3800   -4.4620 F       1  UNL1       -0.2060
     28  C         15.3600  -22.5620   -5.6470 C.2     1  UNL1        0.0430
     29  C         15.9960  -22.0760   -6.7910 C.2     1  UNL1        0.0200
@<TRIPOS>BOND
     1    21    20    2
     2    21    22    1
     3    20    19    1
     4    22    17    2
     5     3     2    1
     6     3     4    2
     7     2     1    2
     8    19    18    2
     9    15    14    1
    10    17    18    1
    11    17    16    1
    12     4     5    1
    13    14    16    1
    14    14    12   am
    15     1    12    1
    16     1     6    1
    17    12    13    2
    18     5     6    2
    19     5     9    1
    20    11    10    2
    21     6     7    1
    22     9    10   am
    23     9     8    1
    24    10    23    1
    25     7     8    2
    26    23    24    2
    27    23    29    1
    28    24    25    1
    29    29    28    2
    30    25    26    2
    31    28    26    1
    32    26    27    1
