@<TRIPOS>MOLECULE
63786_out_ligand_01.pdbqt
 33 36 0 0 0
SMALL
GASTEIGER

@<TRIPOS>ATOM
      1  C         19.1610  -22.1180  -10.5830 C.2     1  UNL1        0.0350
      2  C         18.8200  -21.1420  -11.5340 C.2     1  UNL1        0.0170
      3  C         17.5090  -20.6610  -11.6050 C.2     1  UNL1        0.0040
      4  C         16.5360  -21.1560  -10.7380 C.2     1  UNL1        0.0370
      5  C         16.8870  -22.1420   -9.8180 C.2     1  UNL1        0.0790
      6  C         18.1870  -22.6270   -9.7190 C.2     1  UNL1        0.0540
      7  O         15.9120  -22.6520   -8.9390 O.3     1  UNL1       -0.2840
      8  C         15.8600  -24.0080   -8.5860 C.2     1  UNL1        0.2200
      9  S         15.1120  -24.9560   -9.7330 S.2     1  UNL1       -0.0330
     10  N         16.3510  -24.3220   -7.3350 N.am    1  UNL1       -0.3260
     11  H         16.9220  -25.1540   -7.3210 H       1  UNL1        0.1690
     12  C         16.2480  -23.6650   -6.0810 C.2     1  UNL1        0.0450
     13  C         15.2290  -23.9740   -5.1730 C.2     1  UNL1        0.0300
     14  C         15.1770  -23.3690   -3.9180 C.2     1  UNL1        0.0030
     15  C         16.1550  -22.4580   -3.5440 C.2     1  UNL1        0.0120
     16  C         17.2010  -22.1320   -4.4160 C.2     1  UNL1       -0.0240
     17  C         18.1780  -21.2090   -4.0040 C.2     1  UNL1        0.0120
     18  C         17.2650  -22.7260   -5.7060 C.2     1  UNL1        0.0010
     19  C         19.2250  -20.8460   -4.8470 C.2     1  UNL1        0.0010
     20  C         19.3030  -21.3940   -6.1180 C.2     1  UNL1        0.0010
     21  C         18.3390  -22.3150   -6.5420 C.2     1  UNL1        0.0140
     22  C         20.5390  -22.6650  -10.4950 C.2     1  UNL1        0.2560
     23  N         21.4810  -21.9700  -11.2270 N.am    1  UNL1       -0.3230
     24  H         21.1750  -21.1140  -11.6720 H       1  UNL1        0.1690
     25  O         20.7170  -23.6420   -9.7790 O.2     1  UNL1       -0.2670
     26  C         22.8560  -22.2600  -11.3500 C.2     1  UNL1        0.0350
     27  C         23.7040  -21.7740  -10.3510 C.2     1  UNL1        0.0300
     28  C         25.0780  -22.0190  -10.3990 C.2     1  UNL1        0.0090
     29  C         25.6370  -22.7550  -11.4510 C.2     1  UNL1       -0.0560
     30  C         27.1210  -23.0060  -11.4740 C.3     1  UNL1        0.0490
     31  C         24.7950  -23.2470  -12.4660 C.2     1  UNL1       -0.0540
     32  C         23.4100  -22.9920  -12.4030 C.2     1  UNL1        0.0370
     33  C         25.3400  -24.0450  -13.6190 C.3     1  UNL1        0.0490
@<TRIPOS>BOND
     1    33    31    1
     2    31    32    1
     3    31    29    2
     4    32    26    2
     5    24    23    1
     6     3     2    1
     7     3     4    2
     8     2     1    2
     9    30    29    1
    10    29    28    1
    11    26    23    1
    12    26    27    1
    13    23    22   am
    14     4     5    1
    15     1    22    1
    16     1     6    1
    17    22    25    2
    18    28    27    2
    19     5     6    2
    20     5     7    1
    21     9     8    2
    22     7     8    1
    23     8    10    1
    24    10    11    1
    25    10    12    1
    26    21    20    2
    27    21    18    1
    28    20    19    1
    29    12    18    2
    30    12    13    1
    31    18    16    1
    32    13    14    2
    33    19    17    2
    34    16    17    1
    35    16    15    2
    36    14    15    1
