@<TRIPOS>MOLECULE
63785_out_ligand_01.pdbqt
 39 43 0 0 0
SMALL
GASTEIGER

@<TRIPOS>ATOM
      1  N         14.8110  -22.9970   -7.5810 N.1     1  UNL1       -0.1910
      2  C         15.9240  -22.9050   -7.8980 C.1     1  UNL1        0.1060
      3  C         17.3030  -22.7900   -8.2350 C.2     1  UNL1        0.1230
      4  C         18.2840  -22.5930   -7.3230 C.2     1  UNL1        0.0030
      5  C         19.6710  -22.4790   -7.7620 C.2     1  UNL1        0.0440
      6  C         19.9950  -22.5680   -9.0600 C.2     1  UNL1        0.0460
      7  N         19.0050  -22.7780   -9.9840 N.am    1  UNL1       -0.3220
      8  C         17.6710  -22.8940   -9.6800 C.2     1  UNL1        0.2670
      9  O         16.8390  -23.0760  -10.5630 O.2     1  UNL1       -0.2660
     10  H         19.2390  -22.8360  -10.9690 H       1  UNL1        0.1690
     11  C         17.9610  -22.4850   -5.8830 C.2     1  UNL1       -0.0230
     12  C         18.4260  -21.3990   -5.1290 C.2     1  UNL1        0.0120
     13  C         18.1060  -21.2920   -3.7740 C.2     1  UNL1        0.0030
     14  C         17.3130  -22.2650   -3.1670 C.2     1  UNL1        0.0240
     15  C         16.8420  -23.3410   -3.9180 C.2     1  UNL1        0.0340
     16 CL         15.8530  -24.5350   -3.1700 Cl      1  UNL1       -0.0840
     17  C         17.1600  -23.4570   -5.2710 C.2     1  UNL1        0.0360
     18  C         21.3820  -22.4650   -9.5320 C.2     1  UNL1       -0.0090
     19  C         21.7010  -21.7060  -10.6650 C.2     1  UNL1        0.0160
     20  C         23.0240  -21.6190  -11.1130 C.2     1  UNL1        0.0300
     21  C         24.0530  -22.3050  -10.4550 C.2     1  UNL1        0.0320
     22  C         23.7320  -23.0360   -9.3060 C.2     1  UNL1        0.0300
     23  C         22.4110  -23.1270   -8.8540 C.2     1  UNL1        0.0160
     24  N         25.3860  -22.1580  -10.8980 N.pl3   1  UNL1       -0.3550
     25  H         26.0510  -22.2170  -10.1300 H       1  UNL1        0.1660
     26  C         25.8870  -21.2500  -11.8740 C.2     1  UNL1        0.0460
     27  C         26.5870  -20.1040  -11.4930 C.2     1  UNL1        0.0490
     28  C         27.1190  -19.3000  -12.4790 C.2     1  UNL1        0.1190
     29  N         27.0190  -19.5590  -13.7970 N.2     1  UNL1       -0.2600
     30  C         26.3660  -20.6680  -14.1750 C.2     1  UNL1        0.0690
     31  C         26.2660  -20.9410  -15.5320 C.2     1  UNL1        0.0480
     32  C         25.7790  -21.5620  -13.2540 C.2     1  UNL1        0.0190
     33  C         25.6050  -22.0790  -16.0230 C.2     1  UNL1        0.0500
     34  C         25.0150  -22.9560  -15.1100 C.2     1  UNL1        0.0170
     35  C         25.1040  -22.7020  -13.7420 C.2     1  UNL1        0.0170
     36  C         25.4950  -22.3180  -17.5070 C.3     1  UNL1        0.4170
     37  F         24.8630  -23.4830  -17.8190 F       1  UNL1       -0.1660
     38  F         24.8040  -21.3370  -18.1520 F       1  UNL1       -0.1660
     39  F         26.7120  -22.3760  -18.1120 F       1  UNL1       -0.1660
@<TRIPOS>BOND
     1    38    36    1
     2    39    36    1
     3    37    36    1
     4    36    33    1
     5    33    31    2
     6    33    34    1
     7    31    30    1
     8    34    35    2
     9    30    29    2
    10    30    32    1
    11    29    28    1
    12    35    32    1
    13    32    26    2
    14    28    27    2
    15    26    27    1
    16    26    24    1
    17    20    19    1
    18    20    21    2
    19    10     7    1
    20    24    21    1
    21    24    25    1
    22    19    18    2
    23     9     8    2
    24    21    22    1
    25     7     8   am
    26     7     6    1
    27     8     3    1
    28    18     6    1
    29    18    23    1
    30    22    23    2
    31     6     5    2
    32     3     2    1
    33     3     4    2
    34     2     1    3
    35     5     4    1
    36     4    11    1
    37    11    17    2
    38    11    12    1
    39    17    15    1
    40    12    13    2
    41    15    16    1
    42    15    14    2
    43    13    14    1
