@<TRIPOS>MOLECULE
63790_out_ligand_01.pdbqt
 35 39 0 0 0
SMALL
GASTEIGER

@<TRIPOS>ATOM
      1  C         23.2500  -22.5280  -11.1870 C.2     1  UNL1        0.2110
      2  N         22.8360  -21.7490  -12.2270 N.2     1  UNL1       -0.1220
      3  N         21.5610  -21.3870  -12.3420 N.pl3   1  UNL1       -0.1430
      4  C         20.7180  -21.8350  -11.3790 C.ar    1  UNL1        0.1370
      5  C         19.3190  -21.6890  -11.2070 C.ar    1  UNL1        0.0250
      6  C         18.3060  -21.0400  -11.9420 C.2     1  UNL1        0.0160
      7  C         16.9850  -21.0970  -11.4910 C.2     1  UNL1        0.0010
      8  C         16.6660  -21.7840  -10.3240 C.2     1  UNL1        0.0020
      9  C         17.6510  -22.4360   -9.5760 C.2     1  UNL1        0.0300
     10  C         18.9760  -22.3840  -10.0380 C.ar    1  UNL1        0.0490
     11  N         20.1450  -22.9240   -9.5260 N.ar    1  UNL1       -0.3290
     12  C         21.2030  -22.6070  -10.3390 C.ar    1  UNL1        0.1650
     13  N         22.4840  -22.9870  -10.1790 N.pl3   1  UNL1       -0.2010
     14  S         24.9190  -23.1330  -11.2570 S.3     1  UNL1       -0.0790
     15  C         24.9500  -23.6660  -13.0000 C.3     1  UNL1        0.1850
     16  C         25.7760  -22.7070  -13.8520 C.2     1  UNL1        0.2310
     17  O         26.9800  -22.8840  -14.0120 O.2     1  UNL1       -0.2720
     18  N         25.0220  -21.6830  -14.4100 N.am    1  UNL1       -0.3260
     19  H         24.0140  -21.7270  -14.2620 H       1  UNL1        0.1690
     20  C         25.4560  -20.6900  -15.3120 C.2     1  UNL1        0.0360
     21  C         25.3440  -20.7920  -16.7020 C.2     1  UNL1        0.0320
     22  C         25.7760  -19.7490  -17.5280 C.2     1  UNL1        0.0460
     23  C         26.3200  -18.6010  -16.9650 C.2     1  UNL1        0.1380
     24  F         26.7210  -17.6110  -17.7750 F       1  UNL1       -0.2040
     25  C         26.4460  -18.4870  -15.5850 C.2     1  UNL1        0.0740
     26 CL         27.1150  -17.0690  -14.8730 Cl      1  UNL1       -0.0810
     27  C         26.0220  -19.5320  -14.7590 C.2     1  UNL1        0.0560
     28  C         20.2630  -23.7530   -8.3360 C.3     1  UNL1        0.1350
     29  C         18.9490  -23.9070   -7.5650 C.3     1  UNL1        0.0580
     30  C         18.7930  -22.8930   -6.4550 C.2     1  UNL1       -0.0570
     31  C         17.9270  -23.1410   -5.3830 C.2     1  UNL1        0.0070
     32  C         17.8100  -22.2210   -4.3420 C.2     1  UNL1        0.0010
     33  C         18.5550  -21.0430   -4.3630 C.2     1  UNL1        0.0000
     34  C         19.4190  -20.7850   -5.4270 C.2     1  UNL1        0.0010
     35  C         19.5390  -21.7060   -6.4690 C.2     1  UNL1        0.0070
@<TRIPOS>BOND
     1    24    23    1
     2    22    23    2
     3    22    21    1
     4    23    25    1
     5    21    20    2
     6    25    26    1
     7    25    27    2
     8    20    27    1
     9    20    18    1
    10    18    19    1
    11    18    16   am
    12    17    16    2
    13    16    15    1
    14    15    14    1
    15     3     2    1
    16     3     4    1
    17     2     1    2
    18     6     7    1
    19     6     5    2
    20     7     8    2
    21     4     5   ar
    22     4    12   ar
    23    14     1    1
    24     5    10   ar
    25     1    13    1
    26    12    13    1
    27    12    11   ar
    28     8     9    1
    29    10     9    2
    30    10    11   ar
    31    11    28    1
    32    28    29    1
    33    29    30    1
    34    35    30    2
    35    35    34    1
    36    30    31    1
    37    34    33    2
    38    31    32    2
    39    33    32    1
