@<TRIPOS>MOLECULE
63800_out_ligand_01.pdbqt
 30 33 0 0 0
SMALL
GASTEIGER

@<TRIPOS>ATOM
      1  C         19.3470  -22.5760   -9.8800 C.2     1  UNL1        0.0340
      2  C         18.5830  -21.6900  -10.6470 C.2     1  UNL1        0.0170
      3  C         19.1590  -21.0570  -11.7450 C.2     1  UNL1        0.0030
      4  C         20.4940  -21.3100  -12.0730 C.2     1  UNL1        0.0290
      5  C         21.2680  -22.1970  -11.3100 C.2     1  UNL1        0.0360
      6  C         20.6890  -22.8200  -10.2040 C.2     1  UNL1        0.0460
      7  N         22.6060  -22.3820  -11.7120 N.am    1  UNL1       -0.3220
      8  C         23.7500  -21.8790  -11.1060 C.2     1  UNL1        0.2760
      9  O         23.7870  -21.2470  -10.0570 O.2     1  UNL1       -0.2660
     10  H         22.7600  -23.0160  -12.4860 H       1  UNL1        0.1690
     11  C         24.9740  -22.2140  -11.8550 C.ar    1  UNL1        0.1440
     12  N         25.8360  -23.0910  -11.3320 N.ar    1  UNL1       -0.2050
     13  S         27.0960  -23.3100  -12.3720 S.2     1  UNL1        0.0120
     14  C         26.5350  -22.2380  -13.5890 C.ar    1  UNL1        0.0360
     15  C         27.1200  -21.9120  -14.8250 C.2     1  UNL1        0.0210
     16  C         25.3290  -21.6790  -13.1600 C.ar    1  UNL1        0.0170
     17  C         26.4680  -20.9880  -15.6440 C.2     1  UNL1        0.0010
     18  C         25.2730  -20.4040  -15.2430 C.2     1  UNL1        0.0010
     19  C         24.6990  -20.7360  -14.0100 C.2     1  UNL1        0.0150
     20  C         18.7710  -23.2430   -8.6860 C.2     1  UNL1        0.2520
     21  O         19.1750  -24.3470   -8.3440 O.2     1  UNL1       -0.2680
     22  N         17.7760  -22.5450   -8.0310 N.am    1  UNL1       -0.3520
     23  H         17.4800  -21.6480   -8.3880 H       1  UNL1        0.1630
     24  C         17.1640  -23.0400   -6.7990 C.3     1  UNL1        0.0840
     25  C         15.7330  -22.4920   -6.6930 C.3     1  UNL1        0.0250
     26  C         14.8940  -23.2150   -5.6430 C.3     1  UNL1        0.0020
     27  C         15.0050  -22.6550   -4.2280 C.3     1  UNL1        0.0000
     28  C         16.3870  -22.2080   -3.7650 C.3     1  UNL1        0.0000
     29  C         17.5410  -23.0870   -4.2360 C.3     1  UNL1        0.0020
     30  C         18.0690  -22.6820   -5.6120 C.3     1  UNL1        0.0250
@<TRIPOS>BOND
     1    17    18    2
     2    17    15    1
     3    18    19    1
     4    15    14    2
     5    19    16    2
     6    14    16   ar
     7    14    13   ar
     8    16    11   ar
     9    10     7    1
    10    13    12   ar
    11     4     3    2
    12     4     5    1
    13    11    12   ar
    14    11     8    1
    15     3     2    1
    16     7     5    1
    17     7     8   am
    18     5     6    2
    19     8     9    2
    20     2     1    2
    21     6     1    1
    22     1    20    1
    23    20    21    2
    24    20    22   am
    25    23    22    1
    26    22    24    1
    27    24    25    1
    28    24    30    1
    29    25    26    1
    30    26    27    1
    31    30    29    1
    32    29    28    1
    33    27    28    1
