@<TRIPOS>MOLECULE
63802_out_ligand_01.pdbqt
 32 36 0 0 0
SMALL
GASTEIGER

@<TRIPOS>ATOM
      1  C         21.8240  -22.4370  -11.2600 C.2     1  UNL1        0.1430
      2  C         21.3710  -21.6150  -12.2800 C.2     1  UNL1        0.0450
      3  C         22.4480  -21.4390  -13.1840 C.2     1  UNL1        0.0370
      4  C         23.5100  -22.1520  -12.6680 C.2     1  UNL1        0.0720
      5  O         23.1310  -22.7670  -11.5120 O.2     1  UNL1       -0.3080
      6  C         24.9110  -22.3970  -13.1190 C.3     1  UNL1        0.1990
      7  N         25.2780  -21.4740  -14.1880 N.am    1  UNL1       -0.2890
      8  C         25.8210  -20.2400  -13.8460 C.2     1  UNL1        0.2770
      9  O         26.0300  -19.8980  -12.6840 O.2     1  UNL1       -0.2650
     10  C         26.1410  -19.3770  -14.9560 C.2     1  UNL1        0.1080
     11  C         26.6840  -18.1050  -14.9590 C.2     1  UNL1        0.0370
     12  N         25.9280  -19.7510  -16.2590 N.pl3   1  UNL1       -0.3140
     13  C         26.8030  -17.6960  -16.3050 C.2     1  UNL1        0.0200
     14  C         26.3300  -18.7290  -17.0890 C.2     1  UNL1        0.0980
     15  C         25.3830  -21.0010  -16.5880 C.2     1  UNL1        0.0860
     16  C         25.1630  -21.3960  -17.9100 C.2     1  UNL1        0.0350
     17  C         25.0560  -21.8620  -15.5360 C.2     1  UNL1        0.1600
     18  C         24.6210  -22.6520  -18.1490 C.2     1  UNL1        0.0220
     19  C         24.3210  -23.4530  -17.0610 C.2     1  UNL1        0.1190
     20  N         24.5230  -23.0840  -15.7760 N.2     1  UNL1       -0.2410
     21  C         21.2060  -22.9890  -10.0590 C.2     1  UNL1        0.2790
     22  N         20.0700  -22.3030   -9.6480 N.am    1  UNL1       -0.3210
     23  H         19.8250  -21.4800  -10.1770 H       1  UNL1        0.1690
     24  O         21.6660  -23.9720   -9.4840 O.2     1  UNL1       -0.2650
     25  C         19.2330  -22.5840   -8.5460 C.2     1  UNL1        0.0350
     26  C         19.6310  -22.0830   -7.3030 C.2     1  UNL1        0.0300
     27  C         18.8660  -22.3180   -6.1580 C.2     1  UNL1        0.0090
     28  C         17.6810  -23.0630   -6.2290 C.2     1  UNL1       -0.0560
     29  C         16.8810  -23.3010   -4.9780 C.3     1  UNL1        0.0490
     30  C         17.2630  -23.5600   -7.4770 C.2     1  UNL1       -0.0540
     31  C         18.0500  -23.3200   -8.6210 C.2     1  UNL1        0.0370
     32  C         16.0030  -24.3700   -7.6170 C.3     1  UNL1        0.0490
@<TRIPOS>BOND
     1    18    16    1
     2    18    19    2
     3    16    15    2
     4    14    13    2
     5    14    12    1
     6    19    20    1
     7    15    12    1
     8    15    17    1
     9    13    11    1
    10    12    10    1
    11    20    17    2
    12    17     7    1
    13    11    10    2
    14    10     8    1
    15     7     8   am
    16     7     6    1
    17     8     9    2
    18     3     4    2
    19     3     2    1
    20     6     4    1
    21     4     5    1
    22     2     1    2
    23     5     1    1
    24     1    21    1
    25    23    22    1
    26    21    22   am
    27    21    24    2
    28    22    25    1
    29    31    25    2
    30    31    30    1
    31    25    26    1
    32    32    30    1
    33    30    28    2
    34    26    27    2
    35    28    27    1
    36    28    29    1
