@<TRIPOS>MOLECULE
63803_out_ligand_01.pdbqt
 31 34 0 0 0
SMALL
GASTEIGER

@<TRIPOS>ATOM
      1  C         21.4540  -22.1620  -10.5390 C.2     1  UNL1        0.0570
      2  C         20.2640  -21.6060  -11.0160 C.2     1  UNL1        0.0400
      3  C         19.0600  -21.9660  -10.4100 C.ar    1  UNL1        0.0790
      4  C         17.7880  -21.4170  -10.8850 C.ar    1  UNL1        0.2630
      5  O         17.7430  -20.6590  -11.8450 O.2     1  UNL1       -0.2670
      6  N         16.6750  -21.8090  -10.1980 N.ar    1  UNL1       -0.2740
      7  C         16.6260  -22.7090   -9.1680 C.ar    1  UNL1        0.3310
      8  O         15.5380  -22.9900   -8.6720 O.2     1  UNL1       -0.2460
      9  N         17.8320  -23.2270   -8.7480 N.ar    1  UNL1       -0.2770
     10  C         19.0550  -22.8560   -9.3490 C.ar    1  UNL1        0.1500
     11  N         20.2090  -23.3850   -8.8700 N.2     1  UNL1       -0.2340
     12  C         21.3920  -23.0430   -9.4580 C.2     1  UNL1        0.0490
     13  C         22.6140  -23.6970   -8.8800 C.3     1  UNL1        0.0710
     14  H         15.7850  -21.4540  -10.5170 H       1  UNL1        0.1730
     15  C         22.7450  -21.7950  -11.1710 C.2     1  UNL1        0.2580
     16  N         22.8630  -22.1950  -12.4910 N.am    1  UNL1       -0.3230
     17  H         22.1230  -22.7740  -12.8730 H       1  UNL1        0.1690
     18  O         23.5760  -21.2080  -10.4930 O.2     1  UNL1       -0.2670
     19  C         23.9510  -21.9600  -13.3580 C.2     1  UNL1        0.0350
     20  C         25.1800  -22.6120  -13.2630 C.2     1  UNL1        0.0300
     21  C         26.2110  -22.3240  -14.1640 C.2     1  UNL1        0.0090
     22  C         26.0290  -21.3770  -15.1780 C.2     1  UNL1       -0.0620
     23  C         27.1210  -21.0740  -16.1590 C.3     1  UNL1        0.0480
     24  C         24.7990  -20.7180  -15.2700 C.2     1  UNL1        0.0090
     25  C         23.7720  -21.0020  -14.3650 C.2     1  UNL1        0.0300
     26  C         17.8460  -24.2360   -7.6970 C.3     1  UNL1        0.2000
     27  C         17.8470  -23.5930   -6.3510 C.2     1  UNL1        0.0700
     28  C         18.1880  -22.3300   -5.9100 C.2     1  UNL1        0.0360
     29  C         17.9580  -22.3180   -4.5130 C.2     1  UNL1        0.0270
     30  C         17.4970  -23.5710   -4.1890 C.2     1  UNL1        0.1420
     31  O         17.4270  -24.3540   -5.2970 O.2     1  UNL1       -0.3250
@<TRIPOS>BOND
     1    23    22    1
     2    24    22    2
     3    24    25    1
     4    22    21    1
     5    25    19    2
     6    21    20    2
     7    19    20    1
     8    19    16    1
     9    17    16    1
    10    16    15   am
    11     5     4    2
    12    15     1    1
    13    15    18    2
    14     2     1    2
    15     2     3    1
    16     4     3   ar
    17     4     6   ar
    18     1    12    1
    19    14     6    1
    20     3    10   ar
    21     6     7   ar
    22    12    13    1
    23    12    11    2
    24    10    11    1
    25    10     9   ar
    26     7     9   ar
    27     7     8    2
    28     9    26    1
    29    26    27    1
    30    27    28    2
    31    27    31    1
    32    28    29    1
    33    31    30    1
    34    29    30    2
