@<TRIPOS>MOLECULE
63817_out_ligand_01.pdbqt
 34 36 0 0 0
SMALL
GASTEIGER

@<TRIPOS>ATOM
      1  C         20.7630  -23.4850   -8.4220 C.2     1  UNL1        0.0800
      2  C         20.9280  -22.3660   -7.6100 C.2     1  UNL1        0.0370
      3  C         22.0750  -21.5860   -7.7360 C.2     1  UNL1        0.0050
      4  C         23.0540  -21.9230   -8.6750 C.2     1  UNL1        0.0300
      5  C         22.9010  -23.0540   -9.4800 C.2     1  UNL1        0.0450
      6  C         21.7310  -23.8120   -9.3760 C.2     1  UNL1        0.0670
      7  O         19.5750  -24.1680   -8.3160 O.2     1  UNL1       -0.2910
      8  C         18.4230  -23.5300   -8.7550 C.2     1  UNL1        0.1850
      9  N         18.3760  -23.1530  -10.0640 N.2     1  UNL1       -0.2360
     10  C         17.2340  -22.5930  -10.5080 C.2     1  UNL1        0.1190
     11  C         16.1240  -22.3880   -9.7110 C.2     1  UNL1        0.0200
     12  C         16.1920  -22.7850   -8.3770 C.2     1  UNL1        0.0230
     13  C         17.3580  -23.3760   -7.8680 C.2     1  UNL1        0.0850
     14  C         17.3640  -23.7640   -6.4280 C.2     1  UNL1        0.2560
     15  N         17.3130  -22.7680   -5.4780 N.am    1  UNL1       -0.3530
     16  H         17.4130  -21.8020   -5.7690 H       1  UNL1        0.1630
     17  O         17.4040  -24.9550   -6.1270 O.2     1  UNL1       -0.2680
     18  C         17.3660  -23.0490   -4.0480 C.3     1  UNL1        0.0800
     19  C         18.2280  -22.0040   -3.3390 C.3     1  UNL1        0.0320
     20  C         15.9530  -23.0760   -3.4480 C.3     1  UNL1        0.0200
     21  C         14.9380  -22.3240   -4.2980 C.3     1  UNL1        0.0070
     22  N         23.8330  -23.4250  -10.4910 N.pl3   1  UNL1       -0.2810
     23  H         24.0160  -24.4130  -10.6520 H       1  UNL1        0.1790
     24  S         25.1250  -22.4510  -10.9570 S.O2    1  UNL1        0.2630
     25  O         24.7920  -21.1160  -10.5090 O.2     1  UNL1       -0.2000
     26  O         26.3470  -23.0950  -10.5260 O.2     1  UNL1       -0.2000
     27  C         25.0260  -22.4320  -12.7440 C.2     1  UNL1        0.0850
     28  C         26.1540  -22.9080  -13.4360 C.2     1  UNL1        0.0260
     29  C         26.1790  -22.9140  -14.8300 C.2     1  UNL1        0.0080
     30  C         25.0830  -22.4410  -15.5520 C.2     1  UNL1       -0.0610
     31  C         25.0870  -22.4640  -17.0520 C.3     1  UNL1        0.0480
     32  C         23.9480  -21.9960  -14.8590 C.2     1  UNL1        0.0150
     33  C         23.8940  -21.9910  -13.4530 C.2     1  UNL1       -0.0380
     34  C         22.6260  -21.5200  -12.7980 C.3     1  UNL1        0.0500
@<TRIPOS>BOND
     1    31    30    1
     2    30    32    2
     3    30    29    1
     4    32    33    1
     5    29    28    2
     6    33    34    1
     7    33    27    2
     8    28    27    1
     9    27    24    1
    10    24    26    2
    11    24    25    2
    12    24    22    1
    13    23    22    1
    14    10     9    1
    15    10    11    2
    16    22     5    1
    17     9     8    2
    18    11    12    1
    19     5     6    1
    20     5     4    2
    21     6     1    2
    22     8     7    1
    23     8    13    1
    24     4     3    1
    25     1     7    1
    26     1     2    1
    27    12    13    2
    28    13    14    1
    29     3     2    2
    30    14    17    2
    31    14    15   am
    32    16    15    1
    33    15    18    1
    34    21    20    1
    35    18    20    1
    36    18    19    1
