@<TRIPOS>MOLECULE
63822_out_ligand_01.pdbqt
 38 41 0 0 0
SMALL
GASTEIGER

@<TRIPOS>ATOM
      1  C         21.8320  -22.5890  -11.4280 C.2     1  UNL1        0.0450
      2  C         20.5100  -22.3990  -11.0310 C.2     1  UNL1        0.0430
      3  C         19.7450  -21.3970  -11.6370 C.2     1  UNL1        0.0330
      4  C         20.3040  -20.6140  -12.6580 C.2     1  UNL1        0.0190
      5  C         21.6370  -20.8070  -13.0450 C.2     1  UNL1        0.0260
      6  C         22.4270  -21.7800  -12.4230 C.2     1  UNL1        0.0330
      7  N         22.6690  -23.5790  -10.7990 N.pl3   1  UNL1       -0.1800
      8  H         22.0470  -24.3680  -10.5720 H       1  UNL1        0.1460
      9  S         23.3920  -23.0830   -9.3410 S.O2    1  UNL1        0.2460
     10  O         24.0800  -21.8310   -9.6060 O.2     1  UNL1       -0.2060
     11  O         24.0770  -24.1860   -8.7070 O.2     1  UNL1       -0.2060
     12  C         21.9440  -22.7100   -8.3590 C.2     1  UNL1        0.0800
     13  C         21.9200  -21.4860   -7.6730 C.2     1  UNL1        0.0260
     14  C         20.8280  -21.1470   -6.8740 C.2     1  UNL1        0.0080
     15  C         19.7550  -22.0290   -6.7360 C.2     1  UNL1       -0.0610
     16  C         18.5720  -21.6640   -5.8890 C.3     1  UNL1        0.0480
     17  C         19.7780  -23.2470   -7.4330 C.2     1  UNL1        0.0150
     18  C         20.8660  -23.6100   -8.2500 C.2     1  UNL1       -0.0390
     19  C         20.8380  -24.9540   -8.9220 C.3     1  UNL1        0.0500
     20  N         23.7820  -22.0050  -12.7460 N.pl3   1  UNL1       -0.2790
     21  C         23.9810  -22.4920  -14.1360 C.3     1  UNL1        0.1250
     22  C         24.8620  -21.5370  -14.9710 C.3     1  UNL1        0.2840
     23  N         26.1780  -21.2390  -14.3780 N.3     1  UNL1        0.0850
     24  C         26.1140  -21.1780  -12.9060 C.3     1  UNL1        0.2840
     25  H         26.5140  -20.3520  -14.7500 H       1  UNL1        0.3150
     26  C         24.7040  -20.9270  -12.3290 C.3     1  UNL1        0.1250
     27  C         18.3440  -21.2080  -11.1690 C.2     1  UNL1        0.2510
     28  O         17.6860  -20.2590  -11.5770 O.2     1  UNL1       -0.2680
     29  N         17.8400  -22.1700  -10.3170 N.am    1  UNL1       -0.3530
     30  H         18.3580  -23.0170  -10.1450 H       1  UNL1        0.1630
     31  C         16.4530  -22.1520   -9.9030 C.3     1  UNL1        0.1610
     32  C         16.2160  -22.7890   -8.5520 C.2     1  UNL1       -0.0380
     33  C         16.5870  -24.1130   -8.2560 C.2     1  UNL1        0.0090
     34  C         16.3100  -24.6750   -7.0050 C.2     1  UNL1        0.0040
     35  C         15.6370  -23.9290   -6.0380 C.2     1  UNL1        0.0420
     36  C         15.2460  -22.6290   -6.3320 C.2     1  UNL1        0.1170
     37  F         14.5790  -21.9150   -5.4180 F       1  UNL1       -0.2060
     38  C         15.5270  -22.0570   -7.5700 C.2     1  UNL1        0.0510
@<TRIPOS>BOND
     1    22    23    1
     2    22    21    1
     3    25    23    1
     4    23    24    1
     5    21    20    1
     6     5     4    2
     7     5     6    1
     8    24    26    1
     9    20     6    1
    10    20    26    1
    11     4     3    1
    12     6     1    2
    13     3    27    1
    14     3     2    2
    15    28    27    2
    16     1     2    1
    17     1     7    1
    18    27    29   am
    19     7     8    1
    20     7     9    1
    21    29    30    1
    22    29    31    1
    23    31    32    1
    24    10     9    2
    25     9    11    2
    26     9    12    1
    27    19    18    1
    28    32    33    2
    29    32    38    1
    30    12    18    2
    31    12    13    1
    32    33    34    1
    33    18    17    1
    34    13    14    2
    35    38    36    2
    36    17    15    2
    37    34    35    2
    38    14    15    1
    39    15    16    1
    40    36    35    1
    41    36    37    1
