@<TRIPOS>MOLECULE
63841_out_ligand_01.pdbqt
 32 35 0 0 0
SMALL
GASTEIGER

@<TRIPOS>ATOM
      1  C         21.8640  -22.9420   -8.9020 C.2     1  UNL1        0.0320
      2  C         21.0870  -22.1760   -8.0240 C.2     1  UNL1        0.0200
      3  C         19.9300  -22.7210   -7.4620 C.2     1  UNL1        0.0380
      4  C         19.5460  -24.0220   -7.7900 C.2     1  UNL1        0.0780
      5  C         20.3410  -24.8050   -8.6220 C.2     1  UNL1        0.0380
      6  C         21.5000  -24.2640   -9.1800 C.2     1  UNL1        0.0200
      7  O         18.4320  -24.6030   -7.2390 O.2     1  UNL1       -0.2900
      8  C         17.5040  -23.7550   -6.6430 C.2     1  UNL1        0.2060
      9  N         17.7480  -23.2750   -5.3910 N.2     1  UNL1       -0.2330
     10  C         16.8180  -22.4260   -4.9050 C.2     1  UNL1        0.1380
     11  C         15.6950  -22.0600   -5.6280 C.2     1  UNL1        0.1370
     12  N         15.4460  -22.5250   -6.8740 N.2     1  UNL1       -0.2480
     13  C         16.3720  -23.3820   -7.3830 C.2     1  UNL1        0.1510
     14  S         16.0500  -23.9920   -9.0290 S.3     1  UNL1       -0.0660
     15  C         16.9310  -22.7630   -9.9730 C.2     1  UNL1        0.0070
     16  C         18.1720  -23.0670  -10.5420 C.2     1  UNL1        0.0190
     17  C         18.8560  -22.1070  -11.2950 C.2     1  UNL1        0.0010
     18  C         18.3000  -20.8410  -11.4830 C.2     1  UNL1        0.0000
     19  C         17.0650  -20.5300  -10.9150 C.2     1  UNL1        0.0010
     20  C         16.3790  -21.4910  -10.1660 C.2     1  UNL1        0.0190
     21  C         23.0890  -22.3940   -9.5460 C.2     1  UNL1        0.2510
     22  O         23.3930  -21.2150   -9.4030 O.2     1  UNL1       -0.2680
     23  N         23.8560  -23.2960  -10.2440 N.am    1  UNL1       -0.3530
     24  H         23.6510  -24.2900  -10.1860 H       1  UNL1        0.1630
     25  C         25.1070  -22.8930  -10.8390 C.3     1  UNL1        0.1610
     26  C         24.9950  -22.8680  -12.3450 C.2     1  UNL1       -0.0380
     27  C         25.4950  -23.9240  -13.1260 C.2     1  UNL1        0.0090
     28  C         25.4240  -23.8730  -14.5230 C.2     1  UNL1        0.0040
     29  C         24.8550  -22.7670  -15.1520 C.2     1  UNL1        0.0420
     30  C         24.3750  -21.7140  -14.3810 C.2     1  UNL1        0.1170
     31  F         23.8680  -20.6280  -14.9850 F       1  UNL1       -0.2060
     32  C         24.4430  -21.7490  -12.9890 C.2     1  UNL1        0.0510
@<TRIPOS>BOND
     1    29    28    2
     2    29    30    1
     3    31    30    1
     4    28    27    1
     5    30    32    2
     6    27    26    2
     7    32    26    1
     8    26    25    1
     9    18    17    2
    10    18    19    1
    11    17    16    1
    12    19    20    2
    13    25    23    1
    14    16    15    2
    15    23    24    1
    16    23    21   am
    17    20    15    1
    18    15    14    1
    19    21    22    2
    20    21     1    1
    21     6     1    2
    22     6     5    1
    23    14    13    1
    24     1     2    1
    25     5     4    2
    26     2     3    2
    27     4     3    1
    28     4     7    1
    29    13    12    2
    30    13     8    1
    31     7     8    1
    32    12    11    1
    33     8     9    2
    34    11    10    2
    35     9    10    1
