@<TRIPOS>MOLECULE
63848_out_ligand_01.pdbqt
 32 35 0 0 0
SMALL
GASTEIGER

@<TRIPOS>ATOM
      1  C         20.5320  -22.2120  -11.0080 C.2     1  UNL1       -0.0070
      2  C         21.7410  -22.8510  -10.6710 C.2     1  UNL1        0.0150
      3  C         22.8930  -22.6900  -11.4510 C.2     1  UNL1        0.0180
      4  C         22.8570  -21.8880  -12.5960 C.2     1  UNL1        0.0320
      5  C         21.6740  -21.2330  -12.9420 C.2     1  UNL1        0.0180
      6  C         20.5250  -21.4040  -12.1620 C.2     1  UNL1        0.0150
      7  C         19.3070  -22.3690  -10.1960 C.2     1  UNL1        0.0720
      8  C         19.3110  -22.9500   -8.9410 C.2     1  UNL1        0.0900
      9  C         18.0990  -23.0210   -8.2840 C.2     1  UNL1        0.1730
     10  N         16.9470  -22.6000   -8.8350 N.2     1  UNL1       -0.2170
     11  C         17.0460  -22.0470  -10.0460 C.2     1  UNL1        0.2360
     12  N         18.1720  -21.9030  -10.7580 N.2     1  UNL1       -0.2410
     13  O         17.9370  -23.5970   -7.0400 O.2     1  UNL1       -0.2890
     14  C         18.0260  -22.7890   -5.9280 C.2     1  UNL1        0.1110
     15  C         18.9100  -21.7090   -6.0150 C.2     1  UNL1        0.0400
     16  C         19.0770  -20.8610   -4.9230 C.2     1  UNL1        0.0030
     17  C         18.3730  -21.1040   -3.7450 C.2     1  UNL1        0.0030
     18  C         17.5100  -22.2010   -3.6480 C.2     1  UNL1        0.0390
     19  C         17.3360  -23.0640   -4.7350 C.2     1  UNL1        0.1020
     20  O         16.5300  -24.1690   -4.7360 O.2     1  UNL1       -0.3530
     21  C         15.1510  -23.9780   -4.4490 C.3     1  UNL1        0.2100
     22  C         24.0620  -21.6860  -13.4480 C.2     1  UNL1        0.2560
     23  O         25.1530  -21.6010  -12.9000 O.2     1  UNL1       -0.2670
     24  N         23.7990  -21.5790  -14.8020 N.am    1  UNL1       -0.3230
     25  H         22.8270  -21.5330  -15.0770 H       1  UNL1        0.1690
     26  C         24.7390  -21.4270  -15.8440 C.2     1  UNL1        0.0370
     27  C         24.9390  -22.5290  -16.6900 C.2     1  UNL1        0.0290
     28  C         25.8560  -22.4660  -17.7440 C.2     1  UNL1        0.0050
     29  C         26.5830  -21.3000  -17.9590 C.2     1  UNL1        0.0420
     30  C         26.3860  -20.2110  -17.1180 C.2     1  UNL1        0.1180
     31  F         27.0910  -19.0910  -17.3260 F       1  UNL1       -0.2060
     32  C         25.4740  -20.2630  -16.0660 C.2     1  UNL1        0.0710
@<TRIPOS>BOND
     1    29    28    2
     2    29    30    1
     3    28    27    1
     4    31    30    1
     5    30    32    2
     6    27    26    2
     7    32    26    1
     8    26    24    1
     9    25    24    1
    10    24    22   am
    11    22    23    2
    12    22     4    1
    13     5     4    2
    14     5     6    1
    15     4     3    1
    16     6     1    2
    17     3     2    2
    18     1     2    1
    19     1     7    1
    20    12     7    1
    21    12    11    2
    22     7     8    2
    23    11    10    1
    24     8     9    1
    25    10     9    2
    26     9    13    1
    27    13    14    1
    28    15    14    2
    29    15    16    1
    30    14    19    1
    31    16    17    2
    32    20    19    1
    33    20    21    1
    34    19    18    2
    35    17    18    1
