@<TRIPOS>MOLECULE
63849_out_ligand_01.pdbqt
 31 34 0 0 0
SMALL
GASTEIGER

@<TRIPOS>ATOM
      1  C         21.9800  -22.9660   -8.9220 C.2     1  UNL1        0.0320
      2  C         21.1890  -22.1620   -8.0920 C.2     1  UNL1        0.0200
      3  C         19.9970  -22.6560   -7.5510 C.2     1  UNL1        0.0380
      4  C         19.5930  -23.9640   -7.8290 C.2     1  UNL1        0.0780
      5  C         20.3900  -24.7710   -8.6490 C.2     1  UNL1        0.0380
      6  C         21.5820  -24.2800   -9.1920 C.2     1  UNL1        0.0200
      7  O         18.4540  -24.5750   -7.3550 O.2     1  UNL1       -0.2900
      8  C         17.4930  -23.7820   -6.7680 C.2     1  UNL1        0.2060
      9  N         17.7450  -23.3740   -5.4940 N.2     1  UNL1       -0.2330
     10  C         16.8170  -22.5510   -4.9610 C.2     1  UNL1        0.1380
     11  C         15.6950  -22.1440   -5.6630 C.2     1  UNL1        0.1370
     12  N         15.4460  -22.5370   -6.9340 N.2     1  UNL1       -0.2480
     13  C         16.3710  -23.3630   -7.4940 C.2     1  UNL1        0.1510
     14  S         16.0360  -23.8710   -9.1690 S.3     1  UNL1       -0.0660
     15  C         16.9850  -22.6680  -10.0810 C.2     1  UNL1        0.0070
     16  C         18.2200  -23.0380  -10.6290 C.2     1  UNL1        0.0190
     17  C         18.9750  -22.1110  -11.3500 C.2     1  UNL1        0.0010
     18  C         18.4990  -20.8130  -11.5320 C.2     1  UNL1        0.0000
     19  C         17.2640  -20.4410  -11.0010 C.2     1  UNL1        0.0010
     20  C         16.5080  -21.3680  -10.2800 C.2     1  UNL1        0.0190
     21  C         23.2400  -22.3930   -9.4740 C.2     1  UNL1        0.2510
     22  O         23.4450  -21.1860   -9.4080 O.2     1  UNL1       -0.2680
     23  N         24.1040  -23.2860  -10.0730 N.am    1  UNL1       -0.3530
     24  H         23.7570  -24.2020  -10.3180 H       1  UNL1        0.1630
     25  C         25.2800  -22.8330  -10.7810 C.3     1  UNL1        0.1610
     26  C         25.0260  -22.7920  -12.2660 C.2     1  UNL1       -0.0410
     27  C         24.3670  -21.7020  -12.8540 C.2     1  UNL1        0.0090
     28  C         24.1570  -21.6620  -14.2330 C.2     1  UNL1        0.0010
     29  C         24.6060  -22.7080  -15.0390 C.2     1  UNL1        0.0000
     30  C         25.2710  -23.7930  -14.4680 C.2     1  UNL1        0.0010
     31  C         25.4830  -23.8330  -13.0890 C.2     1  UNL1        0.0090
@<TRIPOS>BOND
     1    29    30    2
     2    29    28    1
     3    30    31    1
     4    28    27    2
     5    31    26    2
     6    27    26    1
     7    26    25    1
     8    18    17    2
     9    18    19    1
    10    17    16    1
    11    19    20    2
    12    25    23    1
    13    16    15    2
    14    24    23    1
    15    20    15    1
    16    15    14    1
    17    23    21   am
    18    21    22    2
    19    21     1    1
    20     6     1    2
    21     6     5    1
    22    14    13    1
    23     1     2    1
    24     5     4    2
    25     2     3    2
    26     4     3    1
    27     4     7    1
    28    13    12    2
    29    13     8    1
    30     7     8    1
    31    12    11    1
    32     8     9    2
    33    11    10    2
    34     9    10    1
