@<TRIPOS>MOLECULE
63862_out_ligand_01.pdbqt
 32 35 0 0 0
SMALL
GASTEIGER

@<TRIPOS>ATOM
      1  C         17.6490  -22.0780  -10.3670 C.2     1  UNL1        0.1580
      2  C         19.0170  -22.1850  -10.1790 C.2     1  UNL1        0.1460
      3  N         19.5490  -21.3230  -11.0920 N.pl3   1  UNL1       -0.2810
      4  N         18.5940  -20.7620  -11.8470 N.2     1  UNL1        0.0050
      5  N         17.4240  -21.2020  -11.4050 N.2     1  UNL1       -0.1530
      6  C         20.9430  -21.0410  -11.3420 C.3     1  UNL1        0.1710
      7  C         21.8600  -22.2660  -11.5500 C.3     1  UNL1        0.1130
      8  C         22.1350  -23.0930  -10.2920 C.3     1  UNL1        0.1070
      9  C         23.4890  -22.6060   -9.8080 C.3     1  UNL1        0.2610
     10  F         24.1450  -23.5950   -9.1660 F       1  UNL1       -0.2040
     11  F         23.3250  -21.5980   -8.9250 F       1  UNL1       -0.2040
     12  C         24.2230  -22.1480  -11.0620 C.3     1  UNL1        0.2050
     13  N         23.1850  -21.9620  -12.0830 N.am    1  UNL1       -0.3340
     14  C         23.3340  -21.4580  -13.3700 C.2     1  UNL1        0.2740
     15  O         22.3510  -21.3370  -14.1050 O.2     1  UNL1       -0.2660
     16  C         24.6740  -21.0560  -13.8970 C.2     1  UNL1        0.1410
     17  C         25.4640  -22.0200  -14.5140 C.2     1  UNL1        0.1530
     18  N         26.7020  -21.7540  -15.0060 N.2     1  UNL1       -0.2690
     19  C         27.1140  -20.4750  -14.8640 C.2     1  UNL1        0.1350
     20  C         26.3360  -19.5110  -14.2450 C.2     1  UNL1        0.1360
     21  N         25.1080  -19.7760  -13.7400 N.2     1  UNL1       -0.2530
     22  C         16.5610  -22.7410   -9.6540 C.2     1  UNL1        0.2730
     23  O         15.3780  -22.5910   -9.9490 O.2     1  UNL1       -0.2660
     24  N         16.9550  -23.5480   -8.6030 N.am    1  UNL1       -0.3510
     25  H         17.9060  -23.4940   -8.2710 H       1  UNL1        0.1630
     26  C         15.9740  -24.1450   -7.7300 C.3     1  UNL1        0.1610
     27  C         16.0750  -23.5590   -6.3480 C.2     1  UNL1       -0.0410
     28  C         17.2820  -23.6320   -5.6370 C.2     1  UNL1        0.0090
     29  C         17.3920  -23.0600   -4.3700 C.2     1  UNL1        0.0010
     30  C         16.3030  -22.4010   -3.8040 C.2     1  UNL1        0.0000
     31  C         15.1020  -22.3130   -4.5050 C.2     1  UNL1        0.0010
     32  C         14.9880  -22.8850   -5.7740 C.2     1  UNL1        0.0090
@<TRIPOS>BOND
     1    18    19    2
     2    18    17    1
     3    19    20    1
     4    17    16    2
     5    20    21    2
     6    15    14    2
     7    16    21    1
     8    16    14    1
     9    14    13   am
    10    13     7    1
    11    13    12    1
    12     4     5    2
    13     4     3    1
    14     7     6    1
    15     7     8    1
    16     5     1    1
    17     6     3    1
    18     3     2    1
    19    12     9    1
    20     1     2    2
    21     1    22    1
    22     8     9    1
    23    23    22    2
    24     9    10    1
    25     9    11    1
    26    22    24   am
    27    24    25    1
    28    24    26    1
    29    26    27    1
    30    27    32    2
    31    27    28    1
    32    32    31    1
    33    28    29    2
    34    31    30    2
    35    29    30    1
