@<TRIPOS>MOLECULE
63861_out_ligand_01.pdbqt
 36 39 0 0 0
SMALL
GASTEIGER

@<TRIPOS>ATOM
      1  C         17.5880  -22.2800   -9.3070 C.2     1  UNL1        0.0380
      2  C         16.4930  -22.5160  -10.1510 C.2     1  UNL1        0.0300
      3  C         16.5170  -22.1490  -11.4990 C.2     1  UNL1        0.0030
      4  C         17.6370  -21.5240  -12.0340 C.2     1  UNL1        0.0070
      5  C         18.7390  -21.2510  -11.2200 C.2     1  UNL1       -0.0470
      6  C         18.7070  -21.6400   -9.8660 C.2     1  UNL1        0.0370
      7  N         17.5690  -22.7080   -7.9280 N.am    1  UNL1       -0.3100
      8  C         16.6340  -22.1470   -7.0310 C.2     1  UNL1        0.2590
      9  O         15.9050  -21.1820   -7.2550 O.2     1  UNL1       -0.2670
     10  C         18.4760  -23.8010   -7.5180 C.3     1  UNL1        0.1710
     11  C         19.9100  -23.6140   -7.9780 C.2     1  UNL1       -0.0400
     12  C         20.5480  -24.5730   -8.7750 C.2     1  UNL1        0.0090
     13  C         21.8660  -24.3830   -9.2010 C.2     1  UNL1        0.0070
     14  C         22.5730  -23.2330   -8.8360 C.2     1  UNL1       -0.0620
     15  C         23.9780  -23.0190   -9.3190 C.3     1  UNL1        0.0480
     16  C         21.9300  -22.2590   -8.0660 C.2     1  UNL1        0.0070
     17  C         20.6130  -22.4460   -7.6440 C.2     1  UNL1        0.0090
     18  C         16.5240  -22.7110   -5.6680 C.2     1  UNL1        0.0380
     19  C         15.5570  -23.6990   -5.4380 C.2     1  UNL1        0.0170
     20  C         15.4420  -24.2760   -4.1750 C.2     1  UNL1        0.0010
     21  C         16.3060  -23.8840   -3.1530 C.2     1  UNL1        0.0010
     22  C         17.2940  -22.9250   -3.3940 C.2     1  UNL1        0.0070
     23  C         17.4190  -22.3250   -4.6560 C.2     1  UNL1       -0.0460
     24  C         18.5300  -21.3470   -4.9100 C.3     1  UNL1        0.0490
     25  C         19.9420  -20.5290  -11.7810 C.3     1  UNL1        0.1410
     26  C         21.1070  -21.4250  -12.1970 C.2     1  UNL1        0.2260
     27  O         21.1940  -22.5600  -11.7330 O.2     1  UNL1       -0.2730
     28  N         22.0200  -20.8170  -13.0420 N.am    1  UNL1       -0.3270
     29  H         21.7910  -19.8840  -13.3640 H       1  UNL1        0.1690
     30  C         23.2000  -21.3670  -13.5840 C.2     1  UNL1        0.0350
     31  C         23.5180  -21.0160  -14.9020 C.2     1  UNL1        0.0290
     32  C         24.6640  -21.5240  -15.5180 C.2     1  UNL1        0.0030
     33  C         25.5060  -22.3860  -14.8210 C.2     1  UNL1        0.0070
     34  C         25.2140  -22.7390  -13.4990 C.2     1  UNL1       -0.0600
     35  C         26.0960  -23.7010  -12.7580 C.3     1  UNL1        0.0480
     36  C         24.0520  -22.2330  -12.8920 C.2     1  UNL1        0.0360
@<TRIPOS>BOND
     1    32    31    1
     2    32    33    2
     3    31    30    2
     4    33    34    1
     5    30    28    1
     6    30    36    1
     7    34    36    2
     8    34    35    1
     9    29    28    1
    10    28    26   am
    11    26    25    1
    12    26    27    2
    13     4     3    2
    14     4     5    1
    15    25     5    1
    16     3     2    1
    17     5     6    2
    18     2     1    2
    19     6     1    1
    20    15    14    1
    21     1     7    1
    22    13    14    2
    23    13    12    1
    24    14    16    1
    25    12    11    2
    26    16    17    2
    27    11    17    1
    28    11    10    1
    29     7    10    1
    30     7     8   am
    31     9     8    2
    32     8    18    1
    33    18    19    2
    34    18    23    1
    35    19    20    1
    36    24    23    1
    37    23    22    2
    38    20    21    2
    39    22    21    1
