@<TRIPOS>MOLECULE
63886_out_ligand_01.pdbqt
 33 35 0 0 0
SMALL
GASTEIGER

@<TRIPOS>ATOM
      1  C         24.4680  -22.0310  -10.3710 C.2     1  UNL1        0.2530
      2  O         25.0030  -20.9540  -10.6190 O.2     1  UNL1       -0.2680
      3  N         25.1680  -23.2130  -10.3520 N.am    1  UNL1       -0.3570
      4  H         24.6550  -24.0770  -10.2720 H       1  UNL1        0.1620
      5  C         23.0290  -22.1460  -10.1260 C.2     1  UNL1        0.0560
      6  C         22.4510  -22.5060   -8.8690 C.2     1  UNL1        0.0490
      7  C         21.0750  -22.5150   -8.9860 C.2     1  UNL1        0.0430
      8  N         20.8010  -22.1790  -10.2890 N.pl3   1  UNL1       -0.3580
      9  C         21.9610  -21.9790  -11.0040 C.2     1  UNL1        0.0210
     10  H         19.8670  -22.0930  -10.6670 H       1  UNL1        0.1660
     11  C         21.8880  -21.6820  -12.4600 C.3     1  UNL1        0.0690
     12  C         20.0350  -22.7820   -7.9920 C.2     1  UNL1       -0.0090
     13  C         19.2260  -23.9150   -8.1070 C.2     1  UNL1        0.0140
     14  C         18.2360  -24.1830   -7.1570 C.2     1  UNL1        0.0080
     15  C         18.0280  -23.3190   -6.0730 C.2     1  UNL1       -0.0560
     16  C         16.9480  -23.6360   -5.0750 C.3     1  UNL1        0.0490
     17  C         18.8300  -22.1670   -5.9500 C.2     1  UNL1       -0.0550
     18  C         19.8250  -21.9130   -6.9130 C.2     1  UNL1        0.0210
     19  C         18.6370  -21.1950   -4.8170 C.3     1  UNL1        0.0490
     20  C         26.5900  -23.2710  -10.6280 C.3     1  UNL1        0.1270
     21  C         26.9430  -24.1610  -11.8240 C.3     1  UNL1        0.0580
     22  C         26.4250  -23.6160  -13.1370 C.2     1  UNL1       -0.0570
     23  C         26.6760  -22.2830  -13.4960 C.2     1  UNL1        0.0090
     24  C         26.2250  -21.7820  -14.7170 C.2     1  UNL1        0.0250
     25  C         25.5140  -22.6180  -15.5810 C.2     1  UNL1        0.0740
     26  C         25.2630  -23.9490  -15.2440 C.2     1  UNL1        0.0250
     27  C         25.7180  -24.4450  -14.0210 C.2     1  UNL1        0.0090
     28  S         24.9570  -21.9820  -17.1390 S.O2    1  UNL1        0.2390
     29  O         23.7900  -22.7300  -17.5480 O.2     1  UNL1       -0.2060
     30  O         26.1050  -21.8060  -17.9960 O.2     1  UNL1       -0.2060
     31  N         24.3920  -20.4580  -16.6990 N.3     1  UNL1       -0.2250
     32  H         25.1220  -19.7470  -16.6870 H       1  UNL1        0.1360
     33  H         23.9140  -20.5300  -15.7990 H       1  UNL1        0.1360
@<TRIPOS>BOND
     1    30    28    2
     2    29    28    2
     3    28    31    1
     4    28    25    1
     5    31    32    1
     6    31    33    1
     7    25    26    2
     8    25    24    1
     9    26    27    1
    10    24    23    2
    11    27    22    2
    12    23    22    1
    13    22    21    1
    14    11     9    1
    15    21    20    1
    16     9     8    1
    17     9     5    2
    18    10     8    1
    19    20     3    1
    20     2     1    2
    21     1     3   am
    22     1     5    1
    23     3     4    1
    24     8     7    1
    25     5     6    1
    26     7     6    2
    27     7    12    1
    28    13    12    2
    29    13    14    1
    30    12    18    1
    31    14    15    2
    32    18    17    2
    33    15    17    1
    34    15    16    1
    35    17    19    1
