@<TRIPOS>MOLECULE
63884_out_ligand_01.pdbqt
 30 33 0 0 0
SMALL
GASTEIGER

@<TRIPOS>ATOM
      1  C         20.7240  -22.1460  -11.0330 C.2     1  UNL1        0.0340
      2  C         20.0520  -21.5280  -12.0910 C.2     1  UNL1        0.0170
      3  C         18.7040  -21.1990  -11.9550 C.2     1  UNL1        0.0030
      4  C         18.0260  -21.4770  -10.7640 C.2     1  UNL1        0.0290
      5  C         18.6900  -22.0800   -9.6930 C.2     1  UNL1        0.0360
      6  C         20.0430  -22.4060   -9.8350 C.2     1  UNL1        0.0460
      7  N         18.0850  -22.3770   -8.4550 N.am    1  UNL1       -0.3220
      8  C         16.8840  -23.0380   -8.2320 C.2     1  UNL1        0.2760
      9  O         16.1650  -23.5270   -9.0970 O.2     1  UNL1       -0.2660
     10  H         18.6140  -22.1240   -7.6290 H       1  UNL1        0.1690
     11  C         16.5400  -23.1230   -6.7990 C.ar    1  UNL1        0.1440
     12  N         15.4970  -23.8760   -6.4310 N.ar    1  UNL1       -0.2050
     13  S         15.3420  -23.8370   -4.7910 S.2     1  UNL1        0.0120
     14  C         16.6730  -22.7950   -4.4920 C.ar    1  UNL1        0.0360
     15  C         17.1610  -22.3070   -3.2670 C.2     1  UNL1        0.0210
     16  C         17.2520  -22.4600   -5.7180 C.ar    1  UNL1        0.0170
     17  C         18.2620  -21.4480   -3.2870 C.2     1  UNL1        0.0010
     18  C         18.8530  -21.0810   -4.4880 C.2     1  UNL1        0.0010
     19  C         18.3600  -21.5730   -5.7020 C.2     1  UNL1        0.0150
     20  C         22.1620  -22.5150  -11.1180 C.2     1  UNL1        0.2520
     21  O         22.6880  -23.1610  -10.2190 O.2     1  UNL1       -0.2680
     22  N         22.8290  -22.1270  -12.2590 N.am    1  UNL1       -0.3530
     23  H         22.2910  -21.8390  -13.0660 H       1  UNL1        0.1630
     24  C         24.1960  -22.5390  -12.4790 C.3     1  UNL1        0.1620
     25  C         25.1290  -21.3730  -12.3690 C.2     1  UNL1       -0.0230
     26  C         25.5360  -20.6480  -13.4930 C.2     1  UNL1        0.0120
     27  C         26.3840  -19.5550  -13.3370 C.2     1  UNL1        0.0200
     28  C         26.7870  -19.2150  -12.0570 C.2     1  UNL1        0.1160
     29  N         26.4070  -19.8830  -10.9480 N.2     1  UNL1       -0.2730
     30  C         25.5880  -20.9440  -11.1280 C.2     1  UNL1        0.1240
@<TRIPOS>BOND
     1    26    27    1
     2    26    25    2
     3    27    28    2
     4    23    22    1
     5    24    25    1
     6    24    22    1
     7    25    30    1
     8    22    20   am
     9     2     3    1
    10     2     1    2
    11    28    29    1
    12     3     4    2
    13    30    29    2
    14    20     1    1
    15    20    21    2
    16     1     6    1
    17     4     5    1
    18     6     5    2
    19     5     7    1
    20     9     8    2
    21     7     8   am
    22     7    10    1
    23     8    11    1
    24    11    12   ar
    25    11    16   ar
    26    12    13   ar
    27    16    19    1
    28    16    14   ar
    29    19    18    2
    30    13    14   ar
    31    14    15    1
    32    18    17    1
    33    17    15    2
