@<TRIPOS>MOLECULE
63905_out_ligand_01.pdbqt
 37 41 0 0 0
SMALL
GASTEIGER

@<TRIPOS>ATOM
      1  C         18.6010  -23.3580   -8.8940 C.2     1  UNL1        0.0800
      2  C         18.9020  -22.5590   -9.9990 C.2     1  UNL1        0.0270
      3  C         20.2180  -22.4900  -10.4680 C.2     1  UNL1        0.0310
      4  C         21.2280  -23.2360   -9.8580 C.2     1  UNL1        0.0340
      5  C         20.9020  -24.0760   -8.7840 C.2     1  UNL1        0.0310
      6  C         19.5940  -24.1380   -8.2970 C.2     1  UNL1        0.0270
      7  N         22.5820  -23.1920  -10.2410 N.am    1  UNL1       -0.3260
      8  C         23.5240  -22.2290   -9.9170 C.2     1  UNL1        0.2400
      9  O         23.3090  -21.1640   -9.3460 O.2     1  UNL1       -0.2710
     10  H         22.9200  -23.9780  -10.7910 H       1  UNL1        0.1690
     11  C         24.9260  -22.5640  -10.4300 C.3     1  UNL1        0.2350
     12  N         25.1370  -22.0670  -11.7720 N.am    1  UNL1       -0.3040
     13  C         24.7770  -22.7280  -12.9360 C.2     1  UNL1        0.2590
     14  O         24.2680  -23.8240  -13.0440 O.2     1  UNL1       -0.2670
     15  C         25.2360  -21.8640  -14.0420 C.2     1  UNL1        0.0450
     16  C         25.1490  -21.9820  -15.4120 C.2     1  UNL1        0.0180
     17  C         25.8770  -20.8000  -13.4720 C.2     1  UNL1        0.0170
     18  C         25.7380  -20.9720  -16.1900 C.2     1  UNL1        0.0020
     19  C         26.4060  -19.8820  -15.5920 C.2     1  UNL1        0.0120
     20  C         26.4890  -19.7800  -14.1870 C.2     1  UNL1       -0.0230
     21  C         27.1130  -18.7920  -13.4060 C.2     1  UNL1        0.0120
     22  C         27.0960  -18.8840  -11.9960 C.2     1  UNL1        0.0030
     23  C         26.4570  -19.9480  -11.3330 C.2     1  UNL1        0.0310
     24  C         25.8420  -20.9030  -12.1070 C.2     1  UNL1        0.0500
     25  S         16.9350  -23.4200   -8.2790 S.O2    1  UNL1        0.2630
     26  O         16.0480  -23.3790   -9.4170 O.2     1  UNL1       -0.2000
     27  O         16.8670  -24.5100   -7.3280 O.2     1  UNL1       -0.2000
     28  N         16.7720  -22.0140   -7.3590 N.pl3   1  UNL1       -0.2800
     29  H         16.1320  -21.3460   -7.7780 H       1  UNL1        0.1790
     30  C         16.8510  -22.0710   -5.9360 C.2     1  UNL1        0.0540
     31  C         15.7020  -22.3860   -5.1800 C.2     1  UNL1       -0.0340
     32  C         15.8250  -22.5400   -3.7880 C.2     1  UNL1        0.0090
     33  C         14.3350  -22.5970   -5.7690 C.3     1  UNL1        0.0500
     34  C         17.0510  -22.3640   -3.1530 C.2     1  UNL1        0.0010
     35  C         18.1720  -22.0140   -3.9000 C.2     1  UNL1        0.0090
     36  C         18.0830  -21.8470   -5.2920 C.2     1  UNL1       -0.0340
     37  C         19.3310  -21.4350   -6.0230 C.3     1  UNL1        0.0500
@<TRIPOS>BOND
     1    18    19    2
     2    18    16    1
     3    19    20    1
     4    16    15    2
     5    20    17    2
     6    20    21    1
     7    15    17    1
     8    15    13    1
     9    17    24    1
    10    21    22    2
    11    14    13    2
    12    13    12   am
    13    24    12    1
    14    24    23    2
    15    22    23    1
    16    12    11    1
    17    10     7    1
    18     3     2    1
    19     3     4    2
    20    11     8    1
    21     7     8   am
    22     7     4    1
    23     2     1    2
    24     8     9    2
    25     4     5    1
    26    26    25    2
    27     1     6    1
    28     1    25    1
    29     5     6    2
    30    25    28    1
    31    25    27    2
    32    29    28    1
    33    28    30    1
    34    37    36    1
    35    30    36    2
    36    30    31    1
    37    33    31    1
    38    36    35    1
    39    31    32    2
    40    35    34    2
    41    32    34    1
