@<TRIPOS>MOLECULE
63920_out_ligand_01.pdbqt
 33 36 0 0 0
SMALL
GASTEIGER

@<TRIPOS>ATOM
      1  C         21.9000  -22.5270   -9.0700 C.2     1  UNL1        0.1460
      2  N         21.1340  -22.9020   -8.0350 N.2     1  UNL1       -0.2190
      3  C         19.8040  -22.7780   -8.1720 C.3     1  UNL1        0.1180
      4  C         19.2140  -22.3120   -9.3620 C.2     1  UNL1        0.0340
      5  C         17.8170  -22.2090   -9.5770 C.2     1  UNL1        0.0170
      6  C         17.3080  -21.7340  -10.7800 C.2     1  UNL1        0.0020
      7  C         18.1860  -21.3610  -11.7880 C.2     1  UNL1        0.0090
      8  C         19.5730  -21.4650  -11.5950 C.2     1  UNL1       -0.0320
      9  C         20.5020  -21.0720  -12.7160 C.3     1  UNL1        0.0500
     10  C         20.1010  -21.9430  -10.3860 C.2     1  UNL1        0.0780
     11  N         21.4280  -22.0390  -10.2360 N.pl3   1  UNL1       -0.2300
     12  C         23.4000  -22.6700   -8.9330 C.3     1  UNL1        0.2030
     13  N         24.1200  -21.7240   -9.7720 N.am    1  UNL1       -0.3480
     14  C         24.9900  -22.1830  -10.7420 C.2     1  UNL1        0.2700
     15  O         25.2890  -23.3650  -10.8590 O.2     1  UNL1       -0.2660
     16  H         23.6630  -20.8290   -9.9040 H       1  UNL1        0.1630
     17  C         25.5360  -21.1350  -11.6630 C.2     1  UNL1        0.1240
     18  C         26.4060  -20.1630  -11.1780 C.2     1  UNL1        0.0370
     19  C         26.8990  -19.2190  -12.0720 C.2     1  UNL1        0.0040
     20  C         26.5100  -19.2790  -13.4090 C.2     1  UNL1        0.0270
     21  C         25.6300  -20.2820  -13.8130 C.2     1  UNL1        0.0310
     22  C         25.2090  -20.3860  -15.2490 C.3     1  UNL1        0.0700
     23  N         25.1400  -21.2090  -12.9590 N.2     1  UNL1       -0.2480
     24  N         18.9780  -23.1530   -7.0910 N.3     1  UNL1       -0.2720
     25  H         18.0970  -23.5030   -7.4550 H       1  UNL1        0.1290
     26  C         18.7730  -22.1220   -6.0790 C.3     1  UNL1        0.1350
     27  C         17.3830  -22.2620   -5.5130 C.2     1  UNL1       -0.0060
     28  C         16.2730  -22.4200   -6.3610 C.2     1  UNL1        0.0110
     29  C         14.9910  -22.5770   -5.8280 C.2     1  UNL1        0.0010
     30  C         14.8030  -22.5800   -4.4450 C.2     1  UNL1        0.0030
     31  C         15.8980  -22.4260   -3.5940 C.2     1  UNL1        0.0430
     32  C         17.1740  -22.2710   -4.1310 C.2     1  UNL1        0.1230
     33  F         18.2100  -22.1210   -3.2900 F       1  UNL1       -0.2060
@<TRIPOS>BOND
     1    22    21    1
     2    21    20    2
     3    21    23    1
     4    20    19    1
     5    23    17    2
     6     9     8    1
     7    19    18    2
     8     7     8    2
     9     7     6    1
    10    17    18    1
    11    17    14    1
    12     8    10    1
    13    15    14    2
    14     6     5    2
    15    14    13   am
    16    10    11    1
    17    10     4    2
    18    11     1    1
    19    16    13    1
    20    13    12    1
    21     5     4    1
    22     4     3    1
    23     1    12    1
    24     1     2    2
    25     3     2    1
    26     3    24    1
    27    25    24    1
    28    24    26    1
    29    28    29    1
    30    28    27    2
    31    26    27    1
    32    29    30    2
    33    27    32    1
    34    30    31    1
    35    32    31    2
    36    32    33    1
