@<TRIPOS>MOLECULE
6394_out_ligand_01.pdbqt
 32 35 0 0 0
SMALL
GASTEIGER

@<TRIPOS>ATOM
      1  C         19.4060  -22.8210   -8.1710 C.2     1  UNL1        0.0710
      2  C         18.8640  -22.1630   -9.4030 C.2     1  UNL1        0.0690
      3  C         19.7350  -21.9680  -10.4130 C.2     1  UNL1        0.1460
      4  N         21.0540  -22.3800  -10.2740 N.pl3   1  UNL1       -0.2100
      5  N         22.0700  -22.2710  -11.1670 N.2     1  UNL1       -0.1600
      6  C         23.1370  -22.8280  -10.5600 C.2     1  UNL1        0.1480
      7  C         22.8080  -23.2970   -9.2700 C.2     1  UNL1        0.0910
      8  C         21.4770  -23.0040   -9.0970 C.2     1  UNL1        0.1540
      9  N         20.6400  -23.2280   -8.0440 N.2     1  UNL1       -0.2290
     10  C         24.4480  -22.9090  -11.2190 C.2     1  UNL1        0.2720
     11  O         25.4540  -22.3640  -10.7770 O.2     1  UNL1       -0.2660
     12  N         24.4300  -23.6640  -12.3700 N.am    1  UNL1       -0.3510
     13  H         23.5580  -24.1470  -12.5630 H       1  UNL1        0.1630
     14  C         25.6260  -24.0120  -13.0880 C.3     1  UNL1        0.1630
     15  C         25.6120  -23.4440  -14.4760 C.2     1  UNL1       -0.0230
     16  C         25.9540  -22.1120  -14.7270 C.2     1  UNL1        0.0120
     17  C         25.9080  -21.6230  -16.0300 C.2     1  UNL1        0.0200
     18  C         25.5140  -22.4820  -17.0410 C.2     1  UNL1        0.1160
     19  N         25.1660  -23.7700  -16.8370 N.2     1  UNL1       -0.2730
     20  C         25.2160  -24.2200  -15.5620 C.2     1  UNL1        0.1240
     21  C         19.3720  -21.3370  -11.7020 C.3     1  UNL1        0.4340
     22  F         19.4920  -19.9800  -11.6440 F       1  UNL1       -0.1650
     23  F         20.1710  -21.7350  -12.7240 F       1  UNL1       -0.1650
     24  F         18.0880  -21.5800  -12.0650 F       1  UNL1       -0.1650
     25  C         18.4510  -23.0380   -7.0480 C.2     1  UNL1       -0.0070
     26  C         17.4090  -23.9520   -7.2240 C.2     1  UNL1        0.0140
     27  C         16.4900  -24.1760   -6.1980 C.2     1  UNL1        0.0080
     28  C         16.6020  -23.4980   -4.9750 C.2     1  UNL1       -0.0560
     29  C         15.5940  -23.7720   -3.8910 C.3     1  UNL1        0.0490
     30  C         17.6660  -22.5950   -4.7790 C.2     1  UNL1       -0.0550
     31  C         18.5840  -22.3730   -5.8220 C.2     1  UNL1        0.0210
     32  C         17.8390  -21.8600   -3.4770 C.3     1  UNL1        0.0490
@<TRIPOS>BOND
     1    18    19    2
     2    18    17    1
     3    19    20    1
     4    17    16    2
     5    20    15    2
     6    16    15    1
     7    15    14    1
     8    14    12    1
     9    23    21    1
    10    13    12    1
    11    12    10   am
    12    24    21    1
    13    21    22    1
    14    21     3    1
    15    10    11    2
    16    10     6    1
    17     5     6    2
    18     5     4    1
    19     6     7    1
    20     3     4    1
    21     3     2    2
    22     4     8    1
    23     2     1    1
    24     7     8    2
    25     8     9    1
    26     1     9    2
    27     1    25    1
    28    26    25    2
    29    26    27    1
    30    25    31    1
    31    27    28    2
    32    31    30    2
    33    28    30    1
    34    28    29    1
    35    30    32    1
