@<TRIPOS>MOLECULE
63953_out_ligand_01.pdbqt
 34 38 0 0 0
SMALL
GASTEIGER

@<TRIPOS>ATOM
      1  C         20.5660  -24.1430   -9.0160 C.3     1  UNL1        0.0510
      2  C         20.4940  -23.0790  -10.0730 C.ar    1  UNL1       -0.0230
      3  C         21.5900  -22.6170  -10.7960 C.ar    1  UNL1        0.0810
      4  S         21.1850  -21.3690  -11.8950 S.2     1  UNL1       -0.0630
      5  C         19.5430  -21.4460  -11.4660 C.ar    1  UNL1        0.1140
      6  N         18.6660  -20.6470  -12.0920 N.2     1  UNL1       -0.2340
      7  C         17.4290  -20.8040  -11.6280 C.2     1  UNL1        0.2360
      8  N         17.0280  -21.6180  -10.6420 N.2     1  UNL1       -0.2290
      9  C         17.9220  -22.4280  -10.0340 C.2     1  UNL1        0.1180
     10  C         19.2760  -22.3670  -10.4590 C.ar    1  UNL1        0.0470
     11  N         17.4980  -23.2830   -9.0170 N.pl3   1  UNL1       -0.2760
     12  H         18.2860  -23.7020   -8.5450 H       1  UNL1        0.1290
     13  C         16.4450  -22.8290   -8.1040 C.3     1  UNL1        0.1080
     14  C         16.8040  -23.0650   -6.5950 C.3     1  UNL1        0.0030
     15  C         15.4700  -23.0610   -5.7750 C.3     1  UNL1        0.0420
     16  C         15.5000  -23.9490   -4.5310 C.3     1  UNL1        0.1680
     17  O         16.8310  -24.1500   -4.0600 O.3     1  UNL1       -0.3910
     18  C         17.6420  -24.8770   -4.9850 C.3     1  UNL1        0.1680
     19  C         17.3730  -24.5090   -6.4490 C.3     1  UNL1        0.0420
     20  C         17.8950  -22.0610   -6.1330 C.2     1  UNL1       -0.0480
     21  C         19.1710  -22.0740   -6.7420 C.2     1  UNL1        0.0080
     22  C         20.1970  -21.2240   -6.3290 C.2     1  UNL1        0.0010
     23  C         19.9670  -20.3200   -5.2990 C.2     1  UNL1        0.0000
     24  C         18.7210  -20.2750   -4.6830 C.2     1  UNL1        0.0010
     25  C         17.6980  -21.1410   -5.0900 C.2     1  UNL1        0.0080
     26  C         22.9730  -23.0480  -10.7420 C.2     1  UNL1        0.2590
     27  O         23.5610  -23.3360   -9.7060 O.2     1  UNL1       -0.2670
     28  N         23.5850  -23.0890  -11.9850 N.am    1  UNL1       -0.3520
     29  H         23.1170  -22.6000  -12.7410 H       1  UNL1        0.1630
     30  C         25.0100  -23.3500  -12.1100 C.3     1  UNL1        0.0840
     31  C         25.3210  -24.0850  -13.4130 C.3     1  UNL1        0.0250
     32  C         25.4390  -22.9920  -14.4740 C.3     1  UNL1        0.0020
     33  C         25.6710  -21.6830  -13.7220 C.3     1  UNL1        0.0020
     34  C         25.8240  -22.0690  -12.2520 C.3     1  UNL1        0.0250
@<TRIPOS>BOND
     1    32    33    1
     2    32    31    1
     3    33    34    1
     4    31    30    1
     5    29    28    1
     6    34    30    1
     7    30    28    1
     8     6     7    1
     9     6     5    2
    10    28    26   am
    11     4     5   ar
    12     4     3   ar
    13     7     8    2
    14     5    10   ar
    15     3    26    1
    16     3     2   ar
    17    26    27    2
    18     8     9    1
    19    10     2   ar
    20    10     9    2
    21     2     1    1
    22     9    11    1
    23    11    12    1
    24    11    13    1
    25    13    14    1
    26    21    22    1
    27    21    20    2
    28    14    19    1
    29    14    20    1
    30    14    15    1
    31    19    18    1
    32    22    23    2
    33    20    25    1
    34    15    16    1
    35    23    24    1
    36    25    24    2
    37    18    17    1
    38    16    17    1
