@<TRIPOS>MOLECULE
6396_out_ligand_01.pdbqt
 31 35 0 0 0
SMALL
GASTEIGER

@<TRIPOS>ATOM
      1  C         17.2810  -20.9060  -11.0830 C.3     1  UNL1        0.0500
      2  C         18.7170  -21.3560  -11.0840 C.2     1  UNL1       -0.0350
      3  C         19.5230  -21.0000  -12.1780 C.2     1  UNL1        0.0100
      4  C         20.8620  -21.3860  -12.2370 C.2     1  UNL1        0.0160
      5  C         21.4290  -22.1380  -11.2050 C.2     1  UNL1        0.0120
      6  C         20.6250  -22.4870  -10.1060 C.2     1  UNL1        0.0450
      7  C         19.2760  -22.1120  -10.0300 C.2     1  UNL1        0.0420
      8  N         18.4490  -22.4590   -8.9360 N.am    1  UNL1       -0.3220
      9  C         18.5600  -23.5510   -8.0960 C.2     1  UNL1        0.2570
     10  O         19.3870  -24.4510   -8.1210 O.2     1  UNL1       -0.2670
     11  H         17.6980  -21.8190   -8.7200 H       1  UNL1        0.1690
     12  C         17.5090  -23.5850   -7.0490 C.2     1  UNL1        0.0430
     13  C         16.3820  -24.3810   -7.2970 C.2     1  UNL1        0.0180
     14  C         15.3560  -24.4340   -6.3620 C.2     1  UNL1        0.0020
     15  C         15.4550  -23.6940   -5.1840 C.2     1  UNL1        0.0120
     16  C         16.5810  -22.8940   -4.9170 C.2     1  UNL1       -0.0250
     17  C         16.6620  -22.1560   -3.7260 C.2     1  UNL1        0.0120
     18  C         17.6400  -22.8320   -5.8560 C.2     1  UNL1       -0.0100
     19  C         17.7720  -21.3580   -3.4490 C.2     1  UNL1        0.0010
     20  C         18.8180  -21.2880   -4.3610 C.2     1  UNL1        0.0010
     21  C         18.7530  -22.0150   -5.5500 C.2     1  UNL1        0.0130
     22  C         22.8350  -22.5550  -11.2340 C.ar    1  UNL1        0.1390
     23  N         23.5840  -22.8470  -10.1870 N.ar    1  UNL1       -0.2280
     24  C         24.8170  -23.1950  -10.6780 C.ar    1  UNL1        0.0860
     25  C         25.9770  -23.5880   -9.9980 C.2     1  UNL1        0.0340
     26  C         24.8330  -23.1250  -12.0640 C.ar    1  UNL1        0.0620
     27  C         27.1210  -23.8980  -10.7450 C.2     1  UNL1        0.0020
     28  C         27.1070  -23.8200  -12.1400 C.2     1  UNL1        0.0020
     29  C         25.9560  -23.4310  -12.8360 C.2     1  UNL1        0.0320
     30  N         23.5640  -22.7240  -12.3910 N.ar    1  UNL1       -0.3380
     31  H         23.2130  -22.5980  -13.3270 H       1  UNL1        0.1670
@<TRIPOS>BOND
     1    31    30    1
     2    29    28    2
     3    29    26    1
     4    30    26   ar
     5    30    22   ar
     6     4     3    1
     7     4     5    2
     8     3     2    2
     9    28    27    1
    10    26    24   ar
    11    22     5    1
    12    22    23   ar
    13     5     6    1
    14     2     1    1
    15     2     7    1
    16    27    25    2
    17    24    23   ar
    18    24    25    1
    19     6     7    2
    20     7     8    1
    21     8    11    1
    22     8     9   am
    23    10     9    2
    24     9    12    1
    25    13    12    2
    26    13    14    1
    27    12    18    1
    28    14    15    2
    29    18    21    1
    30    18    16    2
    31    21    20    2
    32    15    16    1
    33    16    17    1
    34    20    19    1
    35    17    19    2
