@<TRIPOS>MOLECULE
63971_out_ligand_01.pdbqt
 31 34 0 0 0
SMALL
GASTEIGER

@<TRIPOS>ATOM
      1  C         22.2510  -22.0080  -11.2040 C.2     1  UNL1       -0.0290
      2  C         21.6070  -21.1620  -12.1180 C.2     1  UNL1        0.0120
      3  C         20.2170  -21.1480  -12.2140 C.2     1  UNL1        0.0380
      4  C         19.4540  -21.9720  -11.3890 C.2     1  UNL1        0.0760
      5  C         20.0630  -22.8530  -10.4890 C.2     1  UNL1        0.0040
      6  C         21.4660  -22.8570  -10.4030 C.2     1  UNL1        0.0210
      7  C         19.2500  -23.8160   -9.6560 C.3     1  UNL1        0.3140
      8  N         18.3340  -23.2070   -8.6810 N.3     1  UNL1        0.0990
      9  C         17.1780  -22.5800   -9.3490 C.3     1  UNL1        0.2990
     10  C         17.4760  -21.4350  -10.3280 C.3     1  UNL1        0.2060
     11  O         18.0940  -21.9080  -11.5320 O.2     1  UNL1       -0.3490
     12  C         23.7620  -22.0600  -11.1080 C.3     1  UNL1        0.1550
     13  O         24.1700  -21.4060   -9.9030 O.3     1  UNL1       -0.3910
     14  H         23.4910  -20.7350   -9.7110 H       1  UNL1        0.2100
     15  C         24.4130  -21.3890  -12.3310 C.3     1  UNL1        0.0750
     16  C         24.7130  -22.3800  -13.4350 C.2     1  UNL1       -0.0550
     17  C         24.6190  -21.9950  -14.7790 C.2     1  UNL1        0.0070
     18  C         24.8710  -22.9170  -15.7960 C.2     1  UNL1        0.0010
     19  C         25.2200  -24.2280  -15.4800 C.2     1  UNL1        0.0000
     20  C         25.3180  -24.6200  -14.1460 C.2     1  UNL1        0.0010
     21  C         25.0650  -23.7010  -13.1270 C.2     1  UNL1        0.0070
     22  C         19.0360  -22.3410   -7.7250 C.3     1  UNL1        0.3170
     23  C         18.5510  -22.5090   -6.3120 C.2     1  UNL1        0.0500
     24  C         17.9060  -23.6790   -5.9010 C.2     1  UNL1        0.1270
     25  F         17.7090  -24.6750   -6.7770 F       1  UNL1       -0.2050
     26  C         17.4620  -23.8500   -4.5890 C.2     1  UNL1        0.0460
     27  C         17.6610  -22.8340   -3.6550 C.2     1  UNL1        0.0480
     28  C         18.3010  -21.6630   -4.0510 C.2     1  UNL1        0.1550
     29  F         18.4850  -20.6850   -3.1530 F       1  UNL1       -0.2030
     30  C         18.7410  -21.5010   -5.3620 C.2     1  UNL1        0.1650
     31  F         19.3370  -20.3530   -5.7150 F       1  UNL1       -0.2020
@<TRIPOS>BOND
     1    18    19    2
     2    18    17    1
     3    19    20    1
     4    17    16    2
     5    20    21    2
     6    16    21    1
     7    16    15    1
     8    15    12    1
     9     3     2    1
    10     3     4    2
    11     2     1    2
    12    11     4    1
    13    11    10    1
    14     4     5    1
    15     1    12    1
    16     1     6    1
    17    12    13    1
    18     5     6    2
    19     5     7    1
    20    10     9    1
    21    13    14    1
    22     7     8    1
    23     9     8    1
    24     8    22    1
    25    22    23    1
    26    25    24    1
    27    23    24    2
    28    23    30    1
    29    24    26    1
    30    31    30    1
    31    30    28    2
    32    26    27    2
    33    28    27    1
    34    28    29    1
