@<TRIPOS>MOLECULE
63987_out_ligand_01.pdbqt
 32 35 0 0 0
SMALL
GASTEIGER

@<TRIPOS>ATOM
      1  C         18.9820  -22.8430   -7.1040 C.ar    1  UNL1        0.1610
      2  N         18.9230  -22.6720   -5.7740 N.ar    1  UNL1       -0.2310
      3  C         17.6920  -22.5910   -5.2280 C.ar    1  UNL1        0.0740
      4  C         16.5270  -22.7150   -5.9760 C.ar    1  UNL1        0.0100
      5  C         16.6880  -22.8960   -7.3440 C.ar    1  UNL1        0.1140
      6  N         17.9070  -22.9500   -7.9030 N.ar    1  UNL1       -0.2160
      7  C         15.1800  -22.5530   -5.3260 C.3     1  UNL1        0.0740
      8  C         15.2400  -22.6250   -3.7930 C.3     1  UNL1        0.2750
      9  N         16.3470  -21.8360   -3.2490 N.3     1  UNL1        0.0890
     10  C         17.6210  -22.3980   -3.7280 C.3     1  UNL1        0.3290
     11  H         16.2770  -20.8780   -3.5910 H       1  UNL1        0.3160
     12  C         20.3160  -22.9150   -7.7370 C.2     1  UNL1        0.0120
     13  C         21.2620  -21.8810   -7.5820 C.2     1  UNL1        0.0160
     14  C         22.5290  -21.9440   -8.1790 C.2     1  UNL1        0.0180
     15  C         22.8830  -23.0560   -8.9480 C.2     1  UNL1        0.0310
     16  C         21.9580  -24.0870   -9.1320 C.2     1  UNL1        0.0180
     17  C         20.6960  -24.0180   -8.5280 C.2     1  UNL1        0.0160
     18  C         24.2120  -23.1700   -9.6050 C.2     1  UNL1        0.2490
     19  N         25.0690  -24.1230   -9.1260 N.am    1  UNL1       -0.3660
     20  H         25.9020  -24.2780   -9.6800 H       1  UNL1        0.1590
     21  H         24.7390  -24.8950   -8.5660 H       1  UNL1        0.1590
     22  O         24.5230  -22.4680  -10.5580 O.2     1  UNL1       -0.2680
     23  N         15.5490  -22.9780   -8.1660 N.pl3   1  UNL1       -0.2760
     24  H         14.9400  -23.7080   -7.8040 H       1  UNL1        0.1290
     25  C         15.8010  -23.1960   -9.6020 C.3     1  UNL1        0.1000
     26  C         15.9680  -21.8720  -10.3550 C.3     1  UNL1        0.0750
     27  C         17.3430  -21.6630  -10.8960 C.2     1  UNL1        0.0520
     28  C         18.3940  -22.5570  -10.9100 C.2     1  UNL1        0.1160
     29  N         19.4270  -21.8960  -11.5100 N.pl3   1  UNL1       -0.3590
     30  C         18.9750  -20.6480  -11.8440 C.2     1  UNL1        0.2070
     31  H         20.3570  -22.2560  -11.6830 H       1  UNL1        0.1660
     32  N         17.7260  -20.4740  -11.4800 N.2     1  UNL1       -0.2470
@<TRIPOS>BOND
     1    30    29    1
     2    30    32    2
     3    31    29    1
     4    29    28    1
     5    32    27    1
     6    28    27    2
     7    27    26    1
     8    22    18    2
     9    26    25    1
    10    20    19    1
    11    18    19   am
    12    18    15    1
    13    25    23    1
    14    16    15    2
    15    16    17    1
    16    19    21    1
    17    15    14    1
    18    17    12    2
    19    14    13    2
    20    23    24    1
    21    23     5    1
    22     6     5   ar
    23     6     1   ar
    24    12    13    1
    25    12     1    1
    26     5     4   ar
    27     1     2   ar
    28     4     7    1
    29     4     3   ar
    30     2     3   ar
    31     7     8    1
    32     3    10    1
    33     8     9    1
    34    10     9    1
    35    11     9    1
