@<TRIPOS>MOLECULE
64043_out_ligand_01.pdbqt
 31 34 0 0 0
SMALL
GASTEIGER

@<TRIPOS>ATOM
      1  N         21.8170  -23.1140  -10.3260 N.3     1  UNL1        0.0940
      2  C         21.5350  -22.4580  -11.6100 C.3     1  UNL1        0.2800
      3  C         20.8350  -21.0950  -11.5450 C.3     1  UNL1        0.1110
      4  C         19.3690  -21.1950  -11.2970 C.ar    1  UNL1        0.1320
      5  N         18.4530  -20.4160  -11.8360 N.ar    1  UNL1       -0.1350
      6  N         17.2270  -20.8150  -11.3810 N.ar    1  UNL1       -0.1330
      7  C         17.4030  -21.8260  -10.5550 C.ar    1  UNL1        0.1480
      8  N         18.7500  -22.1000  -10.4700 N.ar    1  UNL1       -0.3170
      9  C         19.3710  -23.1670   -9.7130 C.3     1  UNL1        0.1620
     10  C         20.8180  -22.9000   -9.2740 C.3     1  UNL1        0.2930
     11  C         16.3150  -22.5640   -9.8630 C.3     1  UNL1        0.2030
     12  N         16.4340  -22.3330   -8.4390 N.am    1  UNL1       -0.3500
     13  C         16.3370  -23.3600   -7.5310 C.2     1  UNL1        0.2520
     14  O         16.2200  -24.5370   -7.8560 O.2     1  UNL1       -0.2680
     15  H         16.2770  -21.3800   -8.1360 H       1  UNL1        0.1630
     16  C         16.3420  -22.9780   -6.0930 C.2     1  UNL1        0.0350
     17  C         15.1970  -23.2470   -5.3260 C.2     1  UNL1        0.0170
     18  C         15.1580  -22.9090   -3.9710 C.2     1  UNL1        0.0040
     19  C         16.2670  -22.3110   -3.3760 C.2     1  UNL1        0.0420
     20  C         17.4050  -22.0630   -4.1370 C.2     1  UNL1        0.1170
     21  F         18.4760  -21.5080   -3.5560 F       1  UNL1       -0.2060
     22  C         17.4580  -22.3920   -5.4870 C.2     1  UNL1        0.0590
     23  C         23.2060  -22.9750   -9.8620 C.3     1  UNL1        0.3110
     24  C         24.2250  -22.5360  -10.8910 C.2     1  UNL1       -0.0300
     25  C         24.9200  -21.3310  -10.7400 C.2     1  UNL1        0.0090
     26  C         25.8480  -20.9220  -11.6980 C.2     1  UNL1        0.0080
     27  C         26.1100  -21.7090  -12.8290 C.2     1  UNL1       -0.0560
     28  C         27.1150  -21.2320  -13.8420 C.3     1  UNL1        0.0490
     29  C         25.4360  -22.9350  -12.9830 C.2     1  UNL1       -0.0560
     30  C         24.5000  -23.3320  -12.0130 C.2     1  UNL1        0.0160
     31  C         25.6800  -23.8200  -14.1750 C.3     1  UNL1        0.0490
@<TRIPOS>BOND
     1    31    29    1
     2    28    27    1
     3    29    27    2
     4    29    30    1
     5    27    26    1
     6    30    24    2
     7     5     6   ar
     8     5     4   ar
     9    26    25    2
    10     2     3    1
    11     2     1    1
    12     3     4    1
    13     6     7   ar
    14     4     8   ar
    15    24    25    1
    16    24    23    1
    17     7     8   ar
    18     7    11    1
    19     8     9    1
    20     1    23    1
    21     1    10    1
    22    11    12    1
    23     9    10    1
    24    12    15    1
    25    12    13   am
    26    14    13    2
    27    13    16    1
    28    16    22    2
    29    16    17    1
    30    22    20    1
    31    17    18    2
    32    20    21    1
    33    20    19    2
    34    18    19    1
