@<TRIPOS>MOLECULE
64049_out_ligand_01.pdbqt
 33 36 0 0 0
SMALL
GASTEIGER

@<TRIPOS>ATOM
      1  C         20.3660  -24.3150   -9.0250 C.3     1  UNL1        0.0510
      2  C         20.2440  -23.1870  -10.0040 C.ar    1  UNL1       -0.0220
      3  C         21.3180  -22.6060  -10.6740 C.ar    1  UNL1        0.0810
      4  S         20.8490  -21.2420  -11.5860 S.2     1  UNL1       -0.0630
      5  C         19.2170  -21.4360  -11.1710 C.ar    1  UNL1        0.1140
      6  N         18.3040  -20.5740  -11.6470 N.2     1  UNL1       -0.2340
      7  C         17.0760  -20.8520  -11.2200 C.2     1  UNL1        0.2360
      8  N         16.6980  -21.8690  -10.4360 N.2     1  UNL1       -0.2240
      9  C         17.6300  -22.7430   -9.9870 C.2     1  UNL1        0.1380
     10  C         18.9870  -22.5240  -10.3420 C.ar    1  UNL1        0.0530
     11  C         22.7280  -22.9670  -10.6920 C.2     1  UNL1        0.2590
     12  O         23.3570  -23.3150   -9.6980 O.2     1  UNL1       -0.2670
     13  N         23.3280  -22.8380  -11.9300 N.am    1  UNL1       -0.3520
     14  H         22.8150  -22.4000  -12.6820 H       1  UNL1        0.1630
     15  C         24.7450  -23.0600  -12.1150 C.3     1  UNL1        0.1640
     16  C         25.5200  -21.8390  -12.5440 C.2     1  UNL1        0.0010
     17  C         25.9410  -21.5950  -13.8620 C.2     1  UNL1        0.0120
     18  C         26.6500  -20.4300  -14.1840 C.2     1  UNL1        0.0040
     19  C         26.9540  -19.4960  -13.1930 C.2     1  UNL1        0.0450
     20  C         26.5400  -19.7280  -11.8880 C.2     1  UNL1        0.1550
     21  F         26.8290  -18.8280  -10.9360 F       1  UNL1       -0.2030
     22  C         25.8340  -20.8850  -11.5660 C.2     1  UNL1        0.1620
     23  F         25.4640  -21.0960  -10.2950 F       1  UNL1       -0.2020
     24  N         17.2210  -23.8220   -9.2080 N.pl3   1  UNL1       -0.3740
     25  H         16.7580  -24.5480   -9.7380 H       1  UNL1        0.1610
     26  C         16.6040  -23.5420   -7.9100 C.3     1  UNL1        0.1270
     27  C         17.4660  -24.0350   -6.7470 C.3     1  UNL1        0.0790
     28  C         17.9600  -22.8820   -5.9130 C.2     1  UNL1        0.0350
     29  C         18.9130  -22.0020   -6.4190 C.2     1  UNL1        0.0270
     30  C         19.3570  -20.9560   -5.6160 C.2     1  UNL1        0.0030
     31  C         18.8390  -20.8170   -4.3350 C.2     1  UNL1        0.0190
     32  C         17.8970  -21.7380   -3.9080 C.2     1  UNL1        0.1170
     33  N         17.4510  -22.7670   -4.6630 N.2     1  UNL1       -0.2660
@<TRIPOS>BOND
     1    18    17    1
     2    18    19    2
     3    17    16    2
     4    19    20    1
     5    14    13    1
     6    16    15    1
     7    16    22    1
     8    15    13    1
     9    13    11   am
    10    20    22    2
    11    20    21    1
    12     6     7    1
    13     6     5    2
    14     4     5   ar
    15     4     3   ar
    16    22    23    1
    17     7     8    2
    18     5    10   ar
    19    11     3    1
    20    11    12    2
    21     3     2   ar
    22     8     9    1
    23    10     2   ar
    24    10     9    2
    25     2     1    1
    26     9    24    1
    27    25    24    1
    28    24    26    1
    29    26    27    1
    30    27    28    1
    31    29    28    2
    32    29    30    1
    33    28    33    1
    34    30    31    2
    35    33    32    2
    36    31    32    1
