@<TRIPOS>MOLECULE
64066_out_ligand_01.pdbqt
 36 41 0 0 0
SMALL
GASTEIGER

@<TRIPOS>ATOM
      1  C         20.7500  -21.6450  -11.5660 C.2     1  UNL1        0.0760
      2  C         19.6360  -20.9250  -12.0360 C.2     1  UNL1        0.1590
      3  N         18.5020  -21.2760  -11.4490 N.2     1  UNL1       -0.1640
      4  N         18.8690  -22.1500  -10.4540 N.pl3   1  UNL1       -0.0630
      5  C         20.2300  -22.4700  -10.5670 C.2     1  UNL1        0.0760
      6  C         17.8520  -22.5470   -9.5000 C.cat   1  UNL1        0.7500
      7  N         16.7590  -23.1970   -9.9020 N.2     1  UNL1       -0.0730
      8  C         15.8890  -23.5530   -8.9410 C.2     1  UNL1        0.1460
      9  C         16.0340  -23.3020   -7.5790 C.2     1  UNL1       -0.0100
     10  C         17.1940  -22.6270   -7.2320 C.2     1  UNL1        0.0940
     11  C         14.9310  -23.8180   -6.7030 C.3     1  UNL1        0.0430
     12  N         18.0800  -22.2620   -8.1980 N.2     1  UNL1       -0.0600
     13  C         17.6470  -22.2140   -5.8690 C.2     1  UNL1        0.0000
     14  C         18.5500  -21.1240   -5.7640 C.2     1  UNL1        0.0140
     15  C         17.2800  -22.8430   -4.6600 C.2     1  UNL1       -0.0460
     16  C         19.0680  -20.6840   -4.5450 C.2     1  UNL1        0.0010
     17  C         18.7020  -21.3260   -3.3720 C.2     1  UNL1        0.0010
     18  C         17.8160  -22.3960   -3.4310 C.2     1  UNL1        0.0080
     19  C         16.2990  -23.9830   -4.6020 C.3     1  UNL1        0.0400
     20  C         14.9730  -23.5500   -5.2080 C.3     1  UNL1        0.0090
     21  C         21.1490  -23.5150   -9.8320 C.3     1  UNL1        0.0390
     22  C         20.6900  -24.5120   -8.8130 C.3     1  UNL1        0.0110
     23  C         21.5100  -23.3210   -8.3880 C.3     1  UNL1        0.0110
     24  C         22.1300  -21.5150  -12.0220 C.2     1  UNL1        0.2550
     25  N         22.2580  -21.2190  -13.3650 N.am    1  UNL1       -0.3560
     26  H         21.4390  -21.2380  -13.9630 H       1  UNL1        0.1620
     27  O         23.1010  -21.6630  -11.2860 O.2     1  UNL1       -0.2680
     28  C         23.5520  -21.0330  -13.9930 C.3     1  UNL1        0.1290
     29  C         23.9370  -22.2030  -14.8980 C.3     1  UNL1        0.0790
     30  C         25.0820  -23.0130  -14.3430 C.2     1  UNL1        0.0360
     31  C         25.6760  -24.0250  -15.0960 C.2     1  UNL1        0.0270
     32  C         26.7050  -24.7640  -14.5260 C.2     1  UNL1        0.0040
     33  C         27.1210  -24.4690  -13.2290 C.2     1  UNL1        0.0270
     34  C         26.4840  -23.4440  -12.5360 C.2     1  UNL1        0.0310
     35  C         26.9180  -23.0920  -11.1430 C.3     1  UNL1        0.0700
     36  N         25.4740  -22.7200  -13.0740 N.2     1  UNL1       -0.2580
@<TRIPOS>BOND
     1    31    32    1
     2    31    30    2
     3    29    30    1
     4    29    28    1
     5    32    33    2
     6    30    36    1
     7    28    25    1
     8    26    25    1
     9    25    24   am
    10    33    34    1
    11    36    34    2
    12    34    35    1
    13     2     1    1
    14     2     3    2
    15    24     1    1
    16    24    27    2
    17     1     5    2
    18     3     4    1
    19     5     4    1
    20     5    21    1
    21     4     6    1
    22     7     6    2
    23     7     8    1
    24    21    22    1
    25    21    23    1
    26     6    12    1
    27     8     9    2
    28    22    23    1
    29    12    10    2
    30     9    10    1
    31     9    11    1
    32    10    13    1
    33    11    20    1
    34    13    14    2
    35    13    15    1
    36    14    16    1
    37    20    19    1
    38    15    19    1
    39    15    18    2
    40    16    17    2
    41    18    17    1
