@<TRIPOS>MOLECULE
64079_out_ligand_01.pdbqt
 37 41 0 0 0
SMALL
GASTEIGER

@<TRIPOS>ATOM
      1  C         20.6120  -21.6780  -10.8400 C.2     1  UNL1        0.0760
      2  C         19.6470  -20.7000  -11.1670 C.2     1  UNL1        0.1590
      3  N         18.3990  -21.0590  -10.8820 N.2     1  UNL1       -0.1640
      4  N         18.5270  -22.2940  -10.3050 N.pl3   1  UNL1       -0.0630
      5  C         19.8450  -22.7390  -10.3810 C.2     1  UNL1        0.0760
      6  C         17.3860  -22.9440   -9.7020 C.cat   1  UNL1        0.7500
      7  N         16.6780  -23.8110  -10.4620 N.2     1  UNL1       -0.0730
      8  C         15.6120  -24.3970   -9.8950 C.2     1  UNL1        0.1390
      9  C         15.2230  -24.1630   -8.6010 C.2     1  UNL1        0.0530
     10  C         15.9910  -23.2580   -7.8980 C.2     1  UNL1        0.0880
     11  N         17.0650  -22.6430   -8.4270 N.2     1  UNL1       -0.0600
     12  C         15.7010  -22.9100   -6.5040 C.2     1  UNL1        0.0080
     13  C         14.5540  -22.1440   -6.2190 C.2     1  UNL1        0.0140
     14  C         14.2360  -21.7790   -4.9090 C.2     1  UNL1        0.0010
     15  C         15.0580  -22.1810   -3.8610 C.2     1  UNL1        0.0010
     16  C         16.1980  -22.9440   -4.1210 C.2     1  UNL1        0.0170
     17  C         16.5340  -23.3170   -5.4370 C.2     1  UNL1        0.0600
     18  C         17.7800  -24.1350   -5.6900 C.3     1  UNL1        0.4180
     19  F         18.2860  -24.7060   -4.5560 F       1  UNL1       -0.1660
     20  F         17.5900  -25.1610   -6.5580 F       1  UNL1       -0.1660
     21  F         18.8010  -23.3850   -6.1950 F       1  UNL1       -0.1660
     22  C         20.3790  -24.1370   -9.9340 C.3     1  UNL1        0.0390
     23  C         21.4960  -24.2110   -8.9180 C.3     1  UNL1        0.0110
     24  C         20.1160  -24.6310   -8.5330 C.3     1  UNL1        0.0110
     25  C         22.0610  -21.5820  -10.9780 C.2     1  UNL1        0.2550
     26  O         22.7970  -21.0820  -10.1330 O.2     1  UNL1       -0.2680
     27  N         22.5560  -22.0990  -12.1650 N.am    1  UNL1       -0.3440
     28  H         21.9030  -22.0890  -12.9390 H       1  UNL1        0.1630
     29  C         23.9410  -21.8360  -12.5500 C.3     1  UNL1        0.1770
     30  C         24.7060  -23.1530  -12.7200 C.3     1  UNL1        0.0350
     31  C         25.9620  -23.1100  -13.5950 C.3     1  UNL1        0.0040
     32  C         26.9280  -21.9560  -13.3260 C.3     1  UNL1        0.0200
     33  C         26.3570  -20.5420  -13.4790 C.3     1  UNL1        0.1220
     34  N         25.1400  -20.4860  -14.2550 N.am    1  UNL1       -0.3590
     35  C         23.9360  -21.0000  -13.8460 C.2     1  UNL1        0.2400
     36  H         25.0930  -19.9030  -15.0840 H       1  UNL1        0.1620
     37  O         22.9270  -20.8250  -14.5300 O.2     1  UNL1       -0.2710
@<TRIPOS>BOND
     1    36    34    1
     2    37    35    2
     3    34    35   am
     4    34    33    1
     5    35    29    1
     6    31    32    1
     7    31    30    1
     8    33    32    1
     9    28    27    1
    10    30    29    1
    11    29    27    1
    12    27    25   am
    13     2     3    2
    14     2     1    1
    15    25     1    1
    16    25    26    2
    17     3     4    1
    18     1     5    2
    19     7     8    1
    20     7     6    2
    21     5     4    1
    22     5    22    1
    23     4     6    1
    24    22    23    1
    25    22    24    1
    26     8     9    2
    27     6    11    1
    28    23    24    1
    29     9    10    1
    30    11    10    2
    31    10    12    1
    32    20    18    1
    33    12    13    2
    34    12    17    1
    35    13    14    1
    36    21    18    1
    37    18    17    1
    38    18    19    1
    39    17    16    2
    40    14    15    2
    41    16    15    1
