@<TRIPOS>MOLECULE
64095_out_ligand_01.pdbqt
 28 31 0 0 0
SMALL
GASTEIGER

@<TRIPOS>ATOM
      1  C         22.0830  -22.8970   -9.1960 C.2     1  UNL1        0.0340
      2  C         21.5720  -24.1860   -9.4420 C.2     1  UNL1        0.0200
      3  C         20.4120  -24.6400   -8.8010 C.2     1  UNL1        0.0410
      4  C         19.8170  -23.7400   -7.9240 C.ar    1  UNL1        0.1060
      5  O         18.6850  -23.9320   -7.1890 O.2     1  UNL1       -0.2890
      6  C         18.5300  -22.7510   -6.5050 C.ar    1  UNL1        0.1810
      7  N         19.4660  -21.8500   -6.7470 N.ar    1  UNL1       -0.2210
      8  C         20.2950  -22.4700   -7.6480 C.ar    1  UNL1        0.0940
      9  C         21.4600  -22.0270   -8.2820 C.2     1  UNL1        0.0510
     10  C         23.3110  -22.4140   -9.8780 C.2     1  UNL1        0.2520
     11  N         23.8280  -23.2470  -10.8420 N.am    1  UNL1       -0.3530
     12  H         23.3650  -24.1140  -11.0760 H       1  UNL1        0.1630
     13  O         23.7830  -21.3220   -9.5920 O.2     1  UNL1       -0.2680
     14  C         25.0270  -22.9010  -11.5690 C.3     1  UNL1        0.1640
     15  C         24.6340  -22.5030  -12.9420 C.2     1  UNL1       -0.0040
     16  C         25.1960  -22.8760  -14.1490 C.2     1  UNL1        0.1220
     17  N         24.4750  -22.2440  -15.1220 N.pl3   1  UNL1       -0.2810
     18  N         23.4840  -21.4780  -14.6350 N.2     1  UNL1       -0.1850
     19  C         23.5830  -21.6320  -13.3120 C.2     1  UNL1        0.1490
     20  C         24.6990  -22.3080  -16.5530 C.3     1  UNL1        0.1460
     21  C         24.0850  -23.5500  -17.1740 C.3     1  UNL1        0.0280
     22  C         17.3620  -22.6510   -5.6320 C.2     1  UNL1        0.0200
     23  C         17.5250  -22.7550   -4.2400 C.2     1  UNL1        0.0160
     24  C         16.4280  -22.6560   -3.3780 C.2     1  UNL1        0.0040
     25  C         15.1520  -22.4520   -3.9000 C.2     1  UNL1        0.0420
     26  C         14.9870  -22.3520   -5.2760 C.2     1  UNL1        0.1170
     27  F         13.7610  -22.1600   -5.7780 F       1  UNL1       -0.2060
     28  C         16.0720  -22.4490   -6.1420 C.2     1  UNL1        0.0580
@<TRIPOS>BOND
     1    21    20    1
     2    20    17    1
     3    17    18    1
     4    17    16    1
     5    18    19    2
     6    16    15    2
     7    19    15    1
     8    15    14    1
     9    14    11    1
    10    12    11    1
    11    11    10   am
    12    10    13    2
    13    10     1    1
    14     2     1    2
    15     2     3    1
    16     1     9    1
    17     3     4    2
    18     9     8    2
    19     4     8   ar
    20     4     5   ar
    21     8     7   ar
    22     5     6   ar
    23     7     6   ar
    24     6    22    1
    25    28    22    2
    26    28    26    1
    27    27    26    1
    28    22    23    1
    29    26    25    2
    30    23    24    2
    31    25    24    1
