@<TRIPOS>MOLECULE
64108_out_ligand_01.pdbqt
 34 38 0 0 0
SMALL
GASTEIGER

@<TRIPOS>ATOM
      1  C         23.9050  -21.7990  -12.8920 C.3     1  UNL1        0.1340
      2  C         22.4690  -21.5330  -13.3910 C.3     1  UNL1        0.0300
      3  C         21.5850  -20.9830  -12.2770 C.3     1  UNL1        0.0320
      4  C         21.5660  -21.9040  -11.0480 C.3     1  UNL1        0.2730
      5  N         22.8040  -22.6780  -10.8630 N.3     1  UNL1        0.0940
      6  C         23.9790  -21.9460  -11.3570 C.3     1  UNL1        0.2990
      7  N         24.8630  -20.8010  -13.3470 N.pl3   1  UNL1       -0.2760
      8  C         24.8520  -20.0650  -14.4930 C.2     1  UNL1        0.1470
      9  C         25.9780  -19.2720  -14.3990 C.2     1  UNL1        0.1580
     10  N         26.6130  -19.5460  -13.2110 N.2     1  UNL1       -0.1530
     11  N         25.9190  -20.4810  -12.5760 N.2     1  UNL1        0.0050
     12  C         26.4610  -18.2980  -15.3660 C.2     1  UNL1        0.2730
     13  O         27.0540  -17.2740  -15.0390 O.2     1  UNL1       -0.2660
     14  N         26.1790  -18.6340  -16.6720 N.am    1  UNL1       -0.3550
     15  H         25.6250  -19.4710  -16.8290 H       1  UNL1        0.1620
     16  C         26.4980  -17.7690  -17.7870 C.3     1  UNL1        0.1250
     17  C         25.5000  -16.6210  -17.9080 C.3     1  UNL1        0.0460
     18  C         26.1970  -15.2900  -18.1510 C.3     1  UNL1        0.1650
     19  O         27.1210  -15.0300  -17.1050 O.3     1  UNL1       -0.4010
     20  H         26.6080  -14.6990  -16.3470 H       1  UNL1        0.2090
     21  C         22.9440  -23.1090   -9.4630 C.3     1  UNL1        0.3110
     22  C         21.6150  -23.2770   -8.7520 C.2     1  UNL1       -0.0300
     23  C         20.8040  -24.4050   -9.0230 C.2     1  UNL1        0.0100
     24  C         19.5680  -24.5840   -8.3920 C.2     1  UNL1        0.0130
     25  C         19.1440  -23.6240   -7.4910 C.2     1  UNL1       -0.0190
     26  C         19.9450  -22.4940   -7.2230 C.2     1  UNL1       -0.0420
     27  C         17.9350  -23.5370   -6.6990 C.3     1  UNL1       -0.0190
     28  C         21.1710  -22.3070   -7.8410 C.2     1  UNL1        0.0170
     29  C         19.2620  -21.5960   -6.2100 C.2     1  UNL1        0.0780
     30  C         17.9780  -22.3510   -5.9350 C.2     1  UNL1       -0.0430
     31  C         16.9470  -22.0030   -5.0780 C.2     1  UNL1        0.0080
     32  C         15.8530  -22.8650   -4.9870 C.2     1  UNL1        0.0010
     33  C         15.8030  -24.0490   -5.7440 C.2     1  UNL1        0.0010
     34  C         16.8500  -24.3930   -6.6070 C.2     1  UNL1        0.0130
@<TRIPOS>BOND
     1    18    17    1
     2    18    19    1
     3    17    16    1
     4    16    14    1
     5    19    20    1
     6    15    14    1
     7    14    12   am
     8    12    13    2
     9    12     9    1
    10     8     9    2
    11     8     7    1
    12     9    10    1
    13     2     1    1
    14     2     3    1
    15     7     1    1
    16     7    11    1
    17    10    11    2
    18     1     6    1
    19     3     4    1
    20     6     5    1
    21     4     5    1
    22     5    21    1
    23    21    22    1
    24    23    22    2
    25    23    24    1
    26    22    28    1
    27    24    25    2
    28    28    26    2
    29    25    26    1
    30    25    27    1
    31    26    29    1
    32    27    34    1
    33    27    30    1
    34    34    33    2
    35    29    30    2
    36    30    31    1
    37    33    32    1
    38    31    32    2
