@<TRIPOS>MOLECULE
64110_out_ligand_01.pdbqt
 33 37 0 0 0
SMALL
GASTEIGER

@<TRIPOS>ATOM
      1  C         17.5750  -21.9240  -10.7010 C.ar    1  UNL1        0.1480
      2  N         17.4500  -20.9660  -11.5990 N.ar    1  UNL1       -0.1330
      3  N         18.6990  -20.5900  -12.0050 N.ar    1  UNL1       -0.1350
      4  C         19.5810  -21.3140  -11.3460 C.ar    1  UNL1        0.1320
      5  N         18.9150  -22.1820  -10.5130 N.ar    1  UNL1       -0.3170
      6  C         19.4920  -23.1250   -9.5760 C.3     1  UNL1        0.1620
      7  C         20.8770  -23.6650   -9.9610 C.3     1  UNL1        0.2930
      8  N         21.9830  -22.7470   -9.6710 N.3     1  UNL1        0.0940
      9  C         21.8200  -21.3750  -10.1740 C.3     1  UNL1        0.2800
     10  C         21.0590  -21.2100  -11.4960 C.3     1  UNL1        0.1110
     11  C         16.4480  -22.5740   -9.9830 C.3     1  UNL1        0.2030
     12  N         16.5830  -22.2910   -8.5720 N.am    1  UNL1       -0.3500
     13  C         16.3670  -23.2520   -7.6160 C.2     1  UNL1        0.2540
     14  O         15.9830  -24.3830   -7.9100 O.2     1  UNL1       -0.2680
     15  H         17.1110  -21.4650   -8.3370 H       1  UNL1        0.1630
     16  C         16.6550  -22.8850   -6.2350 C.2     1  UNL1        0.0630
     17  C         17.7880  -22.1140   -5.8180 C.2     1  UNL1        0.0510
     18  C         17.7070  -21.9750   -4.4520 C.2     1  UNL1        0.0500
     19  C         18.5480  -21.3040   -3.4420 C.3     1  UNL1        0.0760
     20  O         16.6080  -22.6220   -3.9910 O.2     1  UNL1       -0.3190
     21  C         15.9760  -23.1850   -5.0630 C.2     1  UNL1        0.0650
     22  C         14.7600  -23.9600   -4.7170 C.3     1  UNL1        0.0770
     23  C         23.3140  -23.3250   -9.9040 C.3     1  UNL1        0.3110
     24  C         24.1690  -22.6560  -10.9580 C.2     1  UNL1       -0.0270
     25  C         25.0170  -21.5870  -10.6290 C.2     1  UNL1        0.0120
     26  C         25.7890  -20.9600  -11.6100 C.2     1  UNL1        0.0400
     27  C         25.7280  -21.4010  -12.9300 C.2     1  UNL1        0.1020
     28  C         24.9210  -22.4920  -13.2640 C.2     1  UNL1        0.1020
     29  O         26.4960  -20.7230  -13.8420 O.2     1  UNL1       -0.3460
     30  C         24.1370  -23.1070  -12.2880 C.2     1  UNL1        0.0480
     31  O         24.8380  -23.0060  -14.5340 O.2     1  UNL1       -0.3460
     32  C         25.9220  -22.5420  -15.3500 C.3     1  UNL1        0.2020
     33  C         26.1130  -21.0420  -15.1860 C.3     1  UNL1        0.2020
@<TRIPOS>BOND
     1    32    33    1
     2    32    31    1
     3    33    29    1
     4    31    28    1
     5    29    27    1
     6    28    27    2
     7    28    30    1
     8    27    26    1
     9    30    24    2
    10     3     2   ar
    11     3     4   ar
    12    26    25    2
    13     2     1   ar
    14    10     4    1
    15    10     9    1
    16     4     5   ar
    17    24    25    1
    18    24    23    1
    19     1     5   ar
    20     1    11    1
    21     5     6    1
    22     9     8    1
    23    11    12    1
    24     7     8    1
    25     7     6    1
    26    23     8    1
    27    12    15    1
    28    12    13   am
    29    14    13    2
    30    13    16    1
    31    16    17    1
    32    16    21    2
    33    17    18    2
    34    21    22    1
    35    21    20    1
    36    18    20    1
    37    18    19    1
