@<TRIPOS>MOLECULE
64128_out_ligand_01.pdbqt
 35 39 0 0 0
SMALL
GASTEIGER

@<TRIPOS>ATOM
      1  N         21.0630  -21.5370  -10.8510 N.pl3   1  UNL1       -0.0630
      2  N         20.3760  -20.6870  -11.6760 N.2     1  UNL1       -0.1640
      3  C         19.1010  -20.8550  -11.3380 C.2     1  UNL1        0.1590
      4  C         18.9050  -21.7720  -10.2830 C.2     1  UNL1        0.0760
      5  C         20.2020  -22.1160   -9.9220 C.2     1  UNL1        0.0760
      6  C         17.6510  -22.2260   -9.6940 C.2     1  UNL1        0.2560
      7  O         16.6040  -22.3410  -10.3220 O.2     1  UNL1       -0.2680
      8  N         17.7050  -22.5080   -8.3460 N.am    1  UNL1       -0.3400
      9  H         18.5050  -22.2040   -7.8080 H       1  UNL1        0.1630
     10  C         16.4870  -22.8610   -7.5960 C.3     1  UNL1        0.2270
     11  C         16.6880  -22.5350   -6.1290 C.2     1  UNL1       -0.0090
     12  C         17.9460  -22.2610   -5.5770 C.2     1  UNL1        0.0120
     13  C         18.0600  -21.9720   -4.2200 C.2     1  UNL1        0.0200
     14  C         16.9100  -21.9640   -3.4500 C.2     1  UNL1        0.1160
     15  N         15.6790  -22.2050   -3.9470 N.2     1  UNL1       -0.2720
     16  C         15.5920  -22.4730   -5.2690 C.2     1  UNL1        0.1250
     17  C         16.0420  -24.3240   -7.8310 C.3     1  UNL1        0.4110
     18  F         17.0850  -25.1750   -7.6870 F       1  UNL1       -0.1680
     19  F         15.0980  -24.7040   -6.9350 F       1  UNL1       -0.1680
     20  F         15.5380  -24.5120   -9.0700 F       1  UNL1       -0.1680
     21  C         20.6050  -23.0350   -8.7240 C.3     1  UNL1        0.0390
     22  C         20.3030  -24.5140   -8.7880 C.3     1  UNL1        0.0110
     23  C         21.7140  -24.0430   -8.9040 C.3     1  UNL1        0.0110
     24  C         22.4780  -21.7510  -11.0270 C.cat   1  UNL1        0.7500
     25  N         23.3090  -21.3180  -10.0520 N.2     1  UNL1       -0.0730
     26  C         24.6280  -21.5150  -10.2320 C.2     1  UNL1        0.1450
     27  C         25.1700  -22.1260  -11.3410 C.2     1  UNL1       -0.0130
     28  C         26.6440  -22.2950  -11.4940 C.3     1  UNL1        0.0520
     29  C         24.2410  -22.5210  -12.2880 C.2     1  UNL1        0.1000
     30  N         22.9100  -22.3380  -12.1590 N.2     1  UNL1       -0.0590
     31  C         24.6190  -23.1480  -13.5510 C.2     1  UNL1        0.0340
     32  C         25.0580  -24.4380  -13.7770 C.2     1  UNL1        0.0220
     33  C         25.3300  -24.6830  -15.1550 C.2     1  UNL1        0.0080
     34  C         25.0960  -23.5680  -15.9320 C.2     1  UNL1        0.0500
     35  S         24.5500  -22.2400  -15.0020 S.3     1  UNL1       -0.1000
@<TRIPOS>BOND
     1    34    33    2
     2    34    35    1
     3    33    32    1
     4    35    31    1
     5    32    31    2
     6    31    29    1
     7    29    30    2
     8    29    27    1
     9    30    24    1
    10     2     3    2
    11     2     1    1
    12    28    27    1
    13    27    26    2
    14     3     4    1
    15    24     1    1
    16    24    25    2
    17     1     5    1
    18     7     6    2
    19     4     5    2
    20     4     6    1
    21    26    25    1
    22     5    21    1
    23     6     8   am
    24    20    17    1
    25    23    22    1
    26    23    21    1
    27    22    21    1
    28     8     9    1
    29     8    10    1
    30    17    18    1
    31    17    10    1
    32    17    19    1
    33    10    11    1
    34    11    12    2
    35    11    16    1
    36    12    13    1
    37    16    15    2
    38    13    14    2
    39    15    14    1
