@<TRIPOS>MOLECULE
64130_out_ligand_01.pdbqt
 30 33 0 0 0
SMALL
GASTEIGER

@<TRIPOS>ATOM
      1  C         19.2400  -21.3560  -11.5750 C.ar    1  UNL1        0.1310
      2  N         18.4020  -20.3980  -11.9120 N.ar    1  UNL1       -0.1350
      3  N         17.1950  -20.6610  -11.3240 N.ar    1  UNL1       -0.1350
      4  C         17.3040  -21.7750  -10.6290 C.ar    1  UNL1        0.1320
      5  N         18.5750  -22.2680  -10.7950 N.ar    1  UNL1       -0.3190
      6  C         19.0460  -23.5470  -10.3240 C.3     1  UNL1        0.1620
      7  C         19.0340  -23.6950   -8.7960 C.3     1  UNL1        0.2930
      8  N         17.8000  -23.2910   -8.0890 N.3     1  UNL1        0.0940
      9  C         16.5820  -23.5390   -8.8710 C.3     1  UNL1        0.2800
     10  C         16.2180  -22.3650   -9.7920 C.3     1  UNL1        0.1110
     11  C         20.6550  -21.4470  -12.0360 C.3     1  UNL1        0.1000
     12  C         21.6010  -21.7090  -10.8650 C.3     1  UNL1        0.1300
     13  N         22.8070  -22.4070  -11.2700 N.am    1  UNL1       -0.3600
     14  C         24.0350  -22.0540  -10.7520 C.2     1  UNL1        0.2210
     15  O         24.1870  -21.0800  -10.0210 O.2     1  UNL1       -0.2730
     16  H         22.6990  -23.3520  -11.6360 H       1  UNL1        0.1620
     17  C         25.1690  -22.9880  -11.1780 C.3     1  UNL1        0.0780
     18  C         26.5490  -22.3220  -11.0280 C.3     1  UNL1        0.0140
     19  C         26.9860  -21.6210  -12.3100 C.3     1  UNL1        0.0010
     20  C         27.1020  -22.5940  -13.4830 C.3     1  UNL1        0.0000
     21  C         26.2050  -23.8240  -13.3470 C.3     1  UNL1        0.0010
     22  C         24.9120  -23.5040  -12.6080 C.3     1  UNL1        0.0140
     23  C         17.7190  -23.8950   -6.7470 C.3     1  UNL1        0.3110
     24  C         18.0030  -22.9130   -5.6300 C.2     1  UNL1       -0.0270
     25  C         17.6680  -23.2290   -4.3020 C.2     1  UNL1        0.0090
     26  C         17.9310  -22.3280   -3.2660 C.2     1  UNL1        0.0040
     27  C         18.5350  -21.1040   -3.5460 C.2     1  UNL1        0.0420
     28  C         18.8700  -20.7930   -4.8590 C.2     1  UNL1        0.1170
     29  F         19.4490  -19.6160   -5.1290 F       1  UNL1       -0.2060
     30  C         18.6130  -21.6800   -5.8990 C.2     1  UNL1        0.0510
@<TRIPOS>BOND
     1    20    21    1
     2    20    19    1
     3    21    22    1
     4    22    17    1
     5    19    18    1
     6    11     1    1
     7    11    12    1
     8     2     1   ar
     9     2     3   ar
    10    16    13    1
    11     1     5   ar
    12     3     4   ar
    13    13    12    1
    14    13    14   am
    15    17    18    1
    16    17    14    1
    17     5     4   ar
    18     5     6    1
    19    14    15    2
    20     4    10    1
    21     6     7    1
    22    10     9    1
    23     9     8    1
    24     7     8    1
    25     8    23    1
    26    23    24    1
    27    30    24    2
    28    30    28    1
    29    24    25    1
    30    29    28    1
    31    28    27    2
    32    25    26    2
    33    27    26    1
