@<TRIPOS>MOLECULE
64165_out_ligand_01.pdbqt
 35 40 0 0 0
SMALL
GASTEIGER

@<TRIPOS>ATOM
      1  C         21.6520  -21.6770  -11.4170 C.2     1  UNL1        0.0760
      2  C         20.6330  -20.9870  -12.1020 C.3     1  UNL1        0.1590
      3  N         19.4090  -21.3620  -11.7490 N.3     1  UNL1       -0.1640
      4  N         19.6030  -22.2030  -10.6820 N.pl3   1  UNL1       -0.0630
      5  C         20.9490  -22.5420  -10.5740 C.2     1  UNL1        0.0760
      6  C         18.4820  -22.5170   -9.8320 C.cat   1  UNL1        0.7500
      7  N         17.3140  -22.8240  -10.4220 N.2     1  UNL1       -0.0730
      8  C         16.2710  -23.0220   -9.6060 C.2     1  UNL1        0.1460
      9  C         16.3090  -22.8840   -8.2270 C.2     1  UNL1       -0.0100
     10  C         17.5210  -22.4820   -7.6940 C.2     1  UNL1        0.0940
     11  C         15.0690  -23.1660   -7.4460 C.3     1  UNL1        0.0430
     12  N         18.6080  -22.3430   -8.5050 N.2     1  UNL1       -0.0600
     13  C         17.7920  -22.1010   -6.2680 C.2     1  UNL1        0.0000
     14  C         18.9130  -21.2520   -6.0370 C.2     1  UNL1        0.0140
     15  C         17.0510  -22.4700   -5.1190 C.2     1  UNL1       -0.0460
     16  C         19.3000  -20.8000   -4.7740 C.2     1  UNL1        0.0010
     17  C         18.5650  -21.1740   -3.6680 C.2     1  UNL1        0.0010
     18  C         17.4560  -21.9910   -3.8420 C.2     1  UNL1        0.0080
     19  C         15.7950  -23.3070   -5.0580 C.3     1  UNL1        0.0400
     20  C         15.3700  -24.0940   -6.2830 C.3     1  UNL1        0.0090
     21  C         21.6530  -23.7650   -9.8920 C.3     1  UNL1        0.0390
     22  C         22.0790  -23.6170   -8.4540 C.3     1  UNL1        0.0110
     23  C         21.1110  -24.6890   -8.8490 C.3     1  UNL1        0.0110
     24  C         23.1000  -21.5750  -11.5750 C.2     1  UNL1        0.2550
     25  N         23.5700  -21.7900  -12.8570 N.am    1  UNL1       -0.3550
     26  H         22.9300  -22.0040  -13.6050 H       1  UNL1        0.1620
     27  O         23.8540  -21.3010  -10.6470 O.2     1  UNL1       -0.2680
     28  C         24.9750  -21.6360  -13.2030 C.3     1  UNL1        0.1580
     29  C         25.4400  -22.6710  -14.2490 C.3     1  UNL1        0.2400
     30  C         25.2800  -24.1060  -13.7480 C.3     1  UNL1        0.0390
     31  C         25.2690  -24.9500  -15.0100 C.3     1  UNL1        0.0320
     32  C         24.9790  -23.9760  -16.1420 C.3     1  UNL1        0.2730
     33  N         24.6390  -22.7040  -15.4890 N.3     1  UNL1        0.0940
     34  C         24.8660  -21.5460  -16.3610 C.3     1  UNL1        0.2680
     35  C         24.8960  -21.9280  -17.8380 C.3     1  UNL1        0.0370
@<TRIPOS>BOND
     1    35    34    1
     2    34    33    1
     3    32    33    1
     4    32    31    1
     5    33    29    1
     6    31    30    1
     7    29    30    1
     8    29    28    1
     9    26    25    1
    10    28    25    1
    11    25    24   am
    12     2     3    1
    13     2     1    1
    14     3     4    1
    15    24     1    1
    16    24    27    2
    17     1     5    2
    18     4     5    1
    19     4     6    1
    20     5    21    1
    21     7     6    2
    22     7     8    1
    23    21    23    1
    24    21    22    1
    25     6    12    1
    26     8     9    2
    27    23    22    1
    28    12    10    2
    29     9    10    1
    30     9    11    1
    31    10    13    1
    32    11    20    1
    33    20    19    1
    34    13    14    2
    35    13    15    1
    36    14    16    1
    37    15    19    1
    38    15    18    2
    39    16    17    2
    40    18    17    1
