@<TRIPOS>MOLECULE
64166_out_ligand_01.pdbqt
 31 34 0 0 0
SMALL
GASTEIGER

@<TRIPOS>ATOM
      1  C         18.9170  -22.1220  -10.4160 C.2     1  UNL1        0.0760
      2  C         19.0690  -21.1480  -11.4200 C.2     1  UNL1        0.1590
      3  N         20.3350  -20.8260  -11.6530 N.2     1  UNL1       -0.1640
      4  N         21.0620  -21.6750  -10.8690 N.pl3   1  UNL1       -0.0630
      5  C         20.2220  -22.3810   -9.9870 C.2     1  UNL1        0.0750
      6  C         17.6710  -22.7080   -9.9460 C.2     1  UNL1        0.2550
      7  N         17.2220  -22.2100   -8.7520 N.am    1  UNL1       -0.3510
      8  H         17.8040  -21.6210   -8.1680 H       1  UNL1        0.1630
      9  O         17.0570  -23.5710  -10.5650 O.2     1  UNL1       -0.2680
     10  C         16.0420  -22.7400   -8.1060 C.3     1  UNL1        0.1820
     11  C         16.1110  -22.5650   -6.6040 C.2     1  UNL1        0.0520
     12  C         15.0360  -22.9530   -5.8100 C.2     1  UNL1        0.0290
     13  C         15.1350  -22.7970   -4.4330 C.2     1  UNL1        0.0040
     14  C         16.2990  -22.2670   -3.8860 C.2     1  UNL1        0.0270
     15  C         17.3390  -21.9110   -4.7370 C.2     1  UNL1        0.0310
     16  C         18.6050  -21.3330   -4.1790 C.3     1  UNL1        0.0700
     17  N         17.2610  -22.0520   -6.0810 N.2     1  UNL1       -0.2570
     18  C         20.7420  -23.2100   -8.8330 C.3     1  UNL1        0.0310
     19  C         20.4590  -22.5740   -7.4680 C.3     1  UNL1        0.0160
     20  C         20.2320  -24.6500   -8.8950 C.3     1  UNL1        0.0160
     21  C         22.5010  -21.7620  -11.0500 C.cat   1  UNL1        0.7500
     22  N         23.3130  -21.3020  -10.0750 N.2     1  UNL1       -0.0730
     23  C         24.6360  -21.4430  -10.2620 C.2     1  UNL1        0.1390
     24  C         25.1870  -22.0220  -11.3760 C.2     1  UNL1        0.0550
     25  C         24.2940  -22.4670  -12.3260 C.2     1  UNL1        0.1110
     26  N         22.9600  -22.3470  -12.1760 N.2     1  UNL1       -0.0580
     27  C         24.7480  -23.1100  -13.5570 C.2     1  UNL1        0.1040
     28  C         24.8950  -22.6950  -14.8690 C.2     1  UNL1        0.0410
     29  C         25.3850  -23.8050  -15.6010 C.2     1  UNL1        0.0270
     30  C         25.5060  -24.8320  -14.6960 C.2     1  UNL1        0.1420
     31  O         25.1220  -24.4240  -13.4620 O.2     1  UNL1       -0.3200
@<TRIPOS>BOND
     1    29    28    1
     2    29    30    2
     3    28    27    2
     4    30    31    1
     5    27    31    1
     6    27    25    1
     7    25    26    2
     8    25    24    1
     9    26    21    1
    10     3     2    2
    11     3     4    1
    12     2     1    1
    13    24    23    2
    14    21     4    1
    15    21    22    2
    16     4     5    1
    17     9     6    2
    18     1     5    2
    19     1     6    1
    20    23    22    1
    21     5    18    1
    22     6     7   am
    23    20    18    1
    24    18    19    1
    25     7     8    1
    26     7    10    1
    27    10    11    1
    28    11    17    2
    29    11    12    1
    30    17    15    1
    31    12    13    2
    32    15    16    1
    33    15    14    2
    34    13    14    1
