@<TRIPOS>MOLECULE
64171_out_ligand_01.pdbqt
 35 39 0 0 0
SMALL
GASTEIGER

@<TRIPOS>ATOM
      1  C         20.0830  -23.2290   -9.9180 C.ar    1  UNL1        0.1520
      2  N         20.5290  -24.2170   -9.1590 N.ar    1  UNL1       -0.1330
      3  N         21.8940  -24.2060   -9.1650 N.ar    1  UNL1       -0.1350
      4  C         22.2790  -23.2290   -9.9540 C.ar    1  UNL1        0.1320
      5  N         21.1720  -22.5760  -10.4410 N.ar    1  UNL1       -0.3170
      6  C         21.2680  -21.4490  -11.3380 C.3     1  UNL1        0.1620
      7  C         21.9370  -21.8020  -12.6750 C.3     1  UNL1        0.2930
      8  N         23.4060  -21.8710  -12.6270 N.3     1  UNL1        0.0940
      9  C         23.9330  -22.9930  -11.8200 C.3     1  UNL1        0.2800
     10  C         23.6720  -22.8640  -10.3120 C.3     1  UNL1        0.1110
     11  C         18.6200  -22.9380  -10.0870 C.3     1  UNL1        0.1520
     12  C         18.2320  -21.5890  -10.6720 C.3     1  UNL1        0.0400
     13  N         17.8900  -23.3230   -8.8870 N.am    1  UNL1       -0.3500
     14  C         16.5190  -23.3160   -8.7790 C.2     1  UNL1        0.2180
     15  O         15.7570  -23.2090   -9.7350 O.2     1  UNL1       -0.2740
     16  H         18.4170  -23.2380   -8.0230 H       1  UNL1        0.1630
     17  C         15.9950  -23.5000   -7.3710 C.3     1  UNL1        0.1070
     18  C         17.0390  -24.0910   -6.4260 C.3     1  UNL1        0.0470
     19  C         17.5740  -23.0950   -5.4260 C.2     1  UNL1       -0.0580
     20  C         18.3920  -22.0350   -5.8430 C.2     1  UNL1        0.0070
     21  C         18.8530  -21.0940   -4.9200 C.2     1  UNL1        0.0010
     22  C         18.4970  -21.1980   -3.5770 C.2     1  UNL1        0.0000
     23  C         17.6910  -22.2510   -3.1530 C.2     1  UNL1        0.0010
     24  C         17.2400  -23.2000   -4.0710 C.2     1  UNL1        0.0070
     25  C         24.0200  -21.8480  -13.9770 C.3     1  UNL1        0.3130
     26  C         25.0350  -20.7520  -14.2670 C.2     1  UNL1       -0.0010
     27  C         25.7680  -20.2010  -13.1950 C.2     1  UNL1        0.0110
     28  C         26.6930  -19.1850  -13.4070 C.2     1  UNL1        0.0020
     29  C         26.9010  -18.7140  -14.6960 C.2     1  UNL1        0.0140
     30  C         26.1950  -19.2640  -15.7770 C.2     1  UNL1       -0.0070
     31  C         26.4130  -18.8010  -17.0820 C.2     1  UNL1        0.0150
     32  C         25.2540  -20.3020  -15.5760 C.2     1  UNL1        0.0740
     33  C         25.7150  -19.3600  -18.1440 C.2     1  UNL1        0.0200
     34  C         24.8220  -20.3720  -17.8630 C.2     1  UNL1        0.1170
     35  N         24.5870  -20.8430  -16.6180 N.2     1  UNL1       -0.2600
@<TRIPOS>BOND
     1    33    34    1
     2    33    31    2
     3    34    35    2
     4    31    30    1
     5    35    32    1
     6    30    32    1
     7    30    29    2
     8    32    26    2
     9    29    28    1
    10    26    25    1
    11    26    27    1
    12    25     8    1
    13    28    27    2
    14     7     8    1
    15     7     6    1
    16     8     9    1
    17     9    10    1
    18     6     5    1
    19    12    11    1
    20     5     4   ar
    21     5     1   ar
    22    10     4    1
    23    11     1    1
    24    11    13    1
    25     4     3   ar
    26     1     2   ar
    27    15    14    2
    28     3     2   ar
    29    13    14   am
    30    13    16    1
    31    14    17    1
    32    17    18    1
    33    18    19    1
    34    20    19    2
    35    20    21    1
    36    19    24    1
    37    21    22    2
    38    24    23    2
    39    22    23    1
