@<TRIPOS>MOLECULE
64189_out_ligand_01.pdbqt
 34 38 0 0 0
SMALL
GASTEIGER

@<TRIPOS>ATOM
      1  N         20.3490  -21.4490  -10.7700 N.am    1  UNL1       -0.3540
      2  C         19.1020  -21.2260  -11.3050 C.2     1  UNL1        0.2730
      3  O         18.9060  -20.6130  -12.3500 O.2     1  UNL1       -0.2660
      4  H         20.4010  -22.0200   -9.9320 H       1  UNL1        0.1620
      5  C         18.0230  -21.8060  -10.5170 C.2     1  UNL1        0.1580
      6  C         18.1250  -22.7430   -9.5090 C.2     1  UNL1        0.1460
      7  N         16.8420  -22.9300   -9.1010 N.pl3   1  UNL1       -0.2800
      8  N         15.9870  -22.1630   -9.7970 N.2     1  UNL1        0.0050
      9  N         16.6980  -21.4690  -10.6750 N.2     1  UNL1       -0.1530
     10  C         16.3590  -23.8160   -8.0670 C.3     1  UNL1        0.1800
     11  C         17.5000  -24.4690   -7.2780 C.3     1  UNL1        0.1720
     12  C         17.1300  -24.8660   -5.8490 C.3     1  UNL1        0.2100
     13  O         16.7720  -23.7250   -5.0630 O.2     1  UNL1       -0.3460
     14  C         17.6960  -22.7220   -5.2030 C.2     1  UNL1        0.1020
     15  C         17.6880  -21.7230   -4.2310 C.2     1  UNL1        0.0390
     16  C         18.6030  -22.6630   -6.2640 C.2     1  UNL1        0.1020
     17  C         18.6080  -20.6750   -4.3060 C.2     1  UNL1        0.0030
     18  C         19.5310  -20.6280   -5.3530 C.2     1  UNL1        0.0030
     19  C         19.5280  -21.6230   -6.3330 C.2     1  UNL1        0.0390
     20  O         18.6410  -23.5860   -7.2770 O.2     1  UNL1       -0.3390
     21  C         21.5850  -21.0840  -11.4370 C.3     1  UNL1        0.1370
     22  C         22.7750  -22.0420  -11.1230 C.3     1  UNL1        0.0030
     23  C         23.6850  -21.5050   -9.9920 C.3     1  UNL1        0.0160
     24  C         22.9240  -21.7580   -8.6940 C.3     1  UNL1        0.0010
     25  C         22.0200  -22.9530   -8.9690 C.3     1  UNL1        0.0010
     26  C         22.2400  -23.3240  -10.4340 C.3     1  UNL1        0.0160
     27  C         23.5310  -22.3490  -12.4220 C.2     1  UNL1       -0.0480
     28  C         24.4970  -23.3690  -12.4810 C.2     1  UNL1        0.0110
     29  C         25.2200  -23.6240  -13.6540 C.2     1  UNL1        0.0370
     30  C         24.9970  -22.8600  -14.7950 C.2     1  UNL1        0.0680
     31  C         24.0470  -21.8410  -14.7500 C.2     1  UNL1        0.0370
     32  C         23.3280  -21.5810  -13.5780 C.2     1  UNL1        0.0110
     33  O         25.6300  -23.0030  -15.9990 O.2     1  UNL1       -0.3560
     34  C         24.8030  -23.0590  -17.1540 C.3     1  UNL1        0.2100
@<TRIPOS>BOND
     1    34    33    1
     2    33    30    1
     3    30    31    2
     4    30    29    1
     5    31    32    1
     6    29    28    2
     7    32    27    2
     8    28    27    1
     9    27    22    1
    10     3     2    2
    11    21    22    1
    12    21     1    1
    13     2     1   am
    14     2     5    1
    15    22    26    1
    16    22    23    1
    17     1     4    1
    18     9     5    1
    19     9     8    2
    20     5     6    2
    21    26    25    1
    22    23    24    1
    23     8     7    1
    24     6     7    1
    25     7    10    1
    26    25    24    1
    27    10    11    1
    28    11    20    1
    29    11    12    1
    30    20    16    1
    31    19    16    1
    32    19    18    2
    33    16    14    2
    34    12    13    1
    35    18    17    1
    36    14    13    1
    37    14    15    1
    38    17    15    2
