@<TRIPOS>MOLECULE
64202_out_ligand_01.pdbqt
 36 40 0 0 0
SMALL
GASTEIGER

@<TRIPOS>ATOM
      1  C         20.3440  -22.6680  -10.3530 C.ar    1  UNL1        0.0820
      2  S         21.1810  -23.4860   -9.1130 S.2     1  UNL1       -0.0630
      3  C         22.6780  -23.2330   -9.8760 C.ar    1  UNL1        0.1140
      4  N         23.7930  -23.7450   -9.3340 N.2     1  UNL1       -0.2340
      5  C         24.8790  -23.4500  -10.0430 C.2     1  UNL1        0.2360
      6  N         24.9460  -22.7200  -11.1640 N.2     1  UNL1       -0.2290
      7  C         23.8130  -22.1950  -11.6850 C.2     1  UNL1        0.1180
      8  C         22.5830  -22.4750  -11.0360 C.ar    1  UNL1        0.0470
      9  C         21.1920  -22.1510  -11.3240 C.ar    1  UNL1       -0.0230
     10  C         20.7170  -21.3700  -12.5100 C.3     1  UNL1        0.0510
     11  C         18.9030  -22.5120  -10.2410 C.2     1  UNL1        0.2610
     12  N         18.3530  -22.3460   -8.9540 N.am    1  UNL1       -0.3430
     13  C         16.8980  -22.2350   -8.8760 C.3     1  UNL1        0.1280
     14  C         19.0910  -22.7590   -7.7540 C.3     1  UNL1        0.1670
     15  C         16.1970  -23.5840   -8.7560 C.3     1  UNL1        0.0460
     16  C         16.6060  -24.4160   -7.5460 C.3     1  UNL1        0.1770
     17  O         16.4490  -23.7310   -6.3180 O.2     1  UNL1       -0.3480
     18  C         17.3470  -22.8260   -5.8170 C.2     1  UNL1        0.1100
     19  C         18.5180  -22.3270   -6.4250 C.2     1  UNL1       -0.0040
     20  C         16.9540  -22.3290   -4.5440 C.2     1  UNL1        0.1020
     21  C         19.2490  -21.3250   -5.7440 C.2     1  UNL1        0.0120
     22  C         18.8560  -20.8470   -4.4970 C.2     1  UNL1        0.0030
     23  C         17.7130  -21.3530   -3.8940 C.2     1  UNL1        0.0390
     24  O         18.1900  -22.5640  -11.2430 O.2     1  UNL1       -0.2670
     25  O         15.8010  -22.8710   -4.0200 O.2     1  UNL1       -0.3530
     26  C         15.9270  -23.9870   -3.1530 C.3     1  UNL1        0.2100
     27  N         23.8880  -21.4160  -12.8450 N.pl3   1  UNL1       -0.2760
     28  H         23.1970  -20.6740  -12.8140 H       1  UNL1        0.1290
     29  C         25.2130  -20.9140  -13.2320 C.3     1  UNL1        0.1000
     30  C         25.1840  -20.2430  -14.6090 C.3     1  UNL1        0.0740
     31  C         24.9660  -21.2060  -15.7520 C.2     1  UNL1        0.0350
     32  C         25.0270  -20.7320  -17.0630 C.2     1  UNL1        0.0270
     33  C         24.8450  -21.6290  -18.1130 C.2     1  UNL1        0.0030
     34  C         24.6080  -22.9700  -17.8330 C.2     1  UNL1        0.0190
     35  C         24.5650  -23.3580  -16.5070 C.2     1  UNL1        0.1170
     36  N         24.7420  -22.5120  -15.4680 N.2     1  UNL1       -0.2660
@<TRIPOS>BOND
     1    33    34    2
     2    33    32    1
     3    34    35    1
     4    32    31    2
     5    35    36    2
     6    31    36    1
     7    31    30    1
     8    30    29    1
     9    29    27    1
    10    27    28    1
    11    27     7    1
    12    10     9    1
    13     7     6    2
    14     7     8    1
    15     9     8   ar
    16     9     1   ar
    17    24    11    2
    18     6     5    1
    19     8     3   ar
    20     1    11    1
    21     1     2   ar
    22    11    12   am
    23     5     4    2
    24     3     4    1
    25     3     2   ar
    26    12    13    1
    27    12    14    1
    28    13    15    1
    29    15    16    1
    30    14    19    1
    31    16    17    1
    32    19    18    2
    33    19    21    1
    34    17    18    1
    35    18    20    1
    36    21    22    2
    37    20    25    1
    38    20    23    2
    39    22    23    1
    40    25    26    1
