@<TRIPOS>MOLECULE
64354_out_ligand_01.pdbqt
 36 38 0 0 0
SMALL
GASTEIGER

@<TRIPOS>ATOM
      1  N         23.1100  -22.8630  -10.2190 N.3     1  UNL1       -0.2940
      2  S         24.6600  -22.3370  -10.7040 S.O2    1  UNL1        0.2610
      3  O         25.6150  -23.2800  -10.1620 O.2     1  UNL1       -0.2000
      4  O         24.7630  -20.9250  -10.4080 O.2     1  UNL1       -0.2000
      5  C         24.6530  -22.5230  -12.4720 C.2     1  UNL1        0.0790
      6  C         25.1290  -23.7070  -13.0440 C.2     1  UNL1        0.0260
      7  C         25.1620  -23.8350  -14.4330 C.2     1  UNL1        0.0080
      8  C         24.7260  -22.7850  -15.2540 C.2     1  UNL1       -0.0620
      9  C         24.7890  -22.9260  -16.7490 C.3     1  UNL1        0.0480
     10  C         24.2800  -21.5920  -14.6690 C.2     1  UNL1        0.0080
     11  C         24.2510  -21.4560  -13.2800 C.2     1  UNL1        0.0260
     12  C         22.4660  -22.0930   -9.1130 C.3     1  UNL1        0.2380
     13  C         21.4340  -22.8950   -8.3290 C.2     1  UNL1        0.2400
     14  O         21.5270  -24.1170   -8.2540 O.2     1  UNL1       -0.2710
     15  N         20.5030  -22.0970   -7.6910 N.am    1  UNL1       -0.3260
     16  H         20.5890  -21.1070   -7.9030 H       1  UNL1        0.1690
     17  C         19.4040  -22.4940   -6.9110 C.2     1  UNL1        0.0340
     18  C         18.6900  -23.6780   -7.1180 C.2     1  UNL1        0.0310
     19  C         17.5980  -24.0020   -6.3060 C.2     1  UNL1        0.0270
     20  C         17.2250  -23.1390   -5.2740 C.2     1  UNL1        0.0740
     21  C         17.9180  -21.9470   -5.0600 C.2     1  UNL1        0.0270
     22  C         19.0070  -21.6330   -5.8780 C.2     1  UNL1        0.0310
     23  S         15.8430  -23.5640   -4.2500 S.O2    1  UNL1        0.2390
     24  O         16.3130  -24.3750   -3.1540 O.2     1  UNL1       -0.2060
     25  O         14.7430  -23.9600   -5.1000 O.2     1  UNL1       -0.2060
     26  N         15.4080  -22.0570   -3.6330 N.3     1  UNL1       -0.2250
     27  H         15.5700  -22.0600   -2.6240 H       1  UNL1        0.1360
     28  H         14.4520  -21.7930   -3.8630 H       1  UNL1        0.1360
     29  C         22.1750  -23.1940  -11.3270 C.3     1  UNL1        0.1740
     30  C         20.9490  -22.3080  -11.3280 C.2     1  UNL1       -0.0390
     31  C         21.0240  -20.9900  -11.8010 C.2     1  UNL1        0.0090
     32  C         19.8950  -20.1760  -11.8060 C.2     1  UNL1        0.0010
     33  C         18.6760  -20.6640  -11.3310 C.2     1  UNL1        0.0070
     34  C         18.5790  -21.9740  -10.8540 C.2     1  UNL1       -0.0610
     35  C         17.2820  -22.4960  -10.3040 C.3     1  UNL1        0.0480
     36  C         19.7230  -22.7860  -10.8450 C.2     1  UNL1        0.0150
@<TRIPOS>BOND
     1     9     8    1
     2     8    10    2
     3     8     7    1
     4    10    11    1
     5     7     6    2
     6    11     5    2
     7     6     5    1
     8     5     2    1
     9    32    31    1
    10    32    33    2
    11    31    30    2
    12    33    34    1
    13    30    29    1
    14    30    36    1
    15    29     1    1
    16    34    36    2
    17    34    35    1
    18     2     4    2
    19     2     1    1
    20     2     3    2
    21     1    12    1
    22    12    13    1
    23    13    14    2
    24    13    15   am
    25    16    15    1
    26    15    17    1
    27    18    17    2
    28    18    19    1
    29    17    22    1
    30    19    20    2
    31    22    21    2
    32    20    21    1
    33    20    23    1
    34    25    23    2
    35    23    26    1
    36    23    24    2
    37    28    26    1
    38    26    27    1
