@<TRIPOS>MOLECULE
64378_out_ligand_01.pdbqt
 30 32 0 0 0
SMALL
GASTEIGER

@<TRIPOS>ATOM
      1  C         23.4230  -22.1570  -10.7840 C.2     1  UNL1        0.1790
      2  S         24.1130  -23.0850   -9.5730 S.2     1  UNL1       -0.0400
      3  N         22.1100  -21.8230  -10.6550 N.am    1  UNL1       -0.2990
      4  C         21.1510  -21.8370  -11.6640 C.2     1  UNL1        0.2580
      5  O         21.3220  -21.7670  -12.8710 O.2     1  UNL1       -0.2670
      6  H         21.7530  -22.0730   -9.7410 H       1  UNL1        0.1710
      7  N         24.1700  -21.8000  -11.8510 N.am    1  UNL1       -0.3320
      8  H         24.4310  -20.8100  -11.8640 H       1  UNL1        0.1680
      9  C         24.5830  -22.5260  -12.9970 C.2     1  UNL1        0.0500
     10  C         24.8890  -23.8930  -12.9260 C.2     1  UNL1        0.0300
     11  C         25.3070  -24.5980  -14.0570 C.2     1  UNL1        0.0020
     12  C         25.4160  -23.9500  -15.2810 C.2     1  UNL1        0.0010
     13  C         25.0730  -22.6020  -15.3840 C.2     1  UNL1        0.0190
     14  C         24.6210  -21.8860  -14.2600 C.2     1  UNL1        0.0580
     15  C         24.1850  -20.4600  -14.4070 C.2     1  UNL1        0.2510
     16  N         22.8790  -20.2070  -14.7350 N.am    1  UNL1       -0.3660
     17  H         22.6040  -19.2330  -14.6960 H       1  UNL1        0.1590
     18  H         22.1460  -20.8900  -14.6170 H       1  UNL1        0.1590
     19  O         24.9380  -19.5170  -14.1850 O.2     1  UNL1       -0.2680
     20  C         19.7620  -21.8630  -11.1510 C.2     1  UNL1        0.0430
     21  C         18.8450  -21.0500  -11.8260 C.2     1  UNL1        0.0180
     22  C         17.5400  -20.9700  -11.3690 C.2     1  UNL1        0.0020
     23  C         17.1570  -21.7020  -10.2430 C.2     1  UNL1        0.0130
     24  C         18.0550  -22.5530   -9.5500 C.2     1  UNL1       -0.0070
     25  C         17.6920  -23.3210   -8.4110 C.2     1  UNL1        0.0220
     26  C         19.3910  -22.6460  -10.0260 C.2     1  UNL1       -0.0090
     27 BR         15.9380  -23.2740   -7.6580 Br      1  UNL1       -0.0500
     28  C         18.6080  -24.1620   -7.7730 C.2     1  UNL1        0.0200
     29  C         19.9020  -24.2690   -8.2570 C.2     1  UNL1        0.0020
     30  C         20.2860  -23.5250   -9.3700 C.2     1  UNL1        0.0130
@<TRIPOS>BOND
     1    13    12    2
     2    13    14    1
     3    12    11    1
     4    16    17    1
     5    16    18    1
     6    16    15   am
     7    15    14    1
     8    15    19    2
     9    14     9    2
    10    11    10    2
    11     9    10    1
    12     9     7    1
    13     5     4    2
    14     8     7    1
    15     7     1    1
    16    21    22    1
    17    21    20    2
    18     4    20    1
    19     4     3   am
    20    22    23    2
    21    20    26    1
    22     1     3    1
    23     1     2    2
    24     3     6    1
    25    23    24    1
    26    26    24    2
    27    26    30    1
    28    24    25    1
    29    30    29    2
    30    25    28    2
    31    25    27    1
    32    29    28    1
