@<TRIPOS>MOLECULE
6438_out_ligand_01.pdbqt
 40 44 0 0 0
SMALL
GASTEIGER

@<TRIPOS>ATOM
      1  N         22.1910  -23.2720   -9.6840 N.am    1  UNL1       -0.3230
      2  C         22.3740  -22.4060  -10.7450 C.2     1  UNL1        0.2570
      3  O         21.6640  -21.4670  -11.0790 O.2     1  UNL1       -0.2670
      4  H         22.9250  -23.9510   -9.5150 H       1  UNL1        0.1690
      5  C         21.1130  -23.2890   -8.7740 C.2     1  UNL1        0.0350
      6  C         20.1760  -24.3230   -8.6950 C.2     1  UNL1        0.0310
      7  C         19.1320  -24.2670   -7.7650 C.2     1  UNL1        0.0270
      8  C         19.0260  -23.1690   -6.9110 C.2     1  UNL1        0.0750
      9  C         19.9510  -22.1270   -6.9760 C.2     1  UNL1        0.0270
     10  C         20.9940  -22.1920   -7.9050 C.2     1  UNL1        0.0310
     11  S         17.7130  -23.0870   -5.7220 S.O2    1  UNL1        0.2470
     12  O         18.1480  -22.2540   -4.6190 O.2     1  UNL1       -0.2050
     13  O         17.2270  -24.4340   -5.5180 O.2     1  UNL1       -0.2050
     14  N         16.5800  -22.1380   -6.5490 N.pl3   1  UNL1       -0.1650
     15  H         15.7150  -22.1800   -6.0130 H       1  UNL1        0.1470
     16  C         16.3760  -22.5550   -7.8870 C.2     1  UNL1        0.1200
     17  C         15.6440  -23.6780   -8.1860 C.2     1  UNL1        0.0720
     18  C         15.5310  -23.9700   -9.5270 C.2     1  UNL1        0.0360
     19  C         14.7270  -25.1520   -9.9810 C.3     1  UNL1        0.0700
     20  N         16.1190  -23.2160  -10.4760 N.2     1  UNL1       -0.2390
     21  C         16.8310  -22.1510  -10.0660 C.2     1  UNL1        0.1240
     22  N         16.9810  -21.7750   -8.7870 N.2     1  UNL1       -0.2210
     23  C         17.5190  -21.3300  -11.1120 C.3     1  UNL1        0.0930
     24  C         23.6270  -22.6310  -11.5000 C.2     1  UNL1        0.0470
     25  C         23.6240  -22.2120  -12.8280 C.2     1  UNL1        0.0500
     26  C         24.7830  -22.3670  -13.5620 C.2     1  UNL1        0.0690
     27  N         25.9040  -22.9060  -13.0310 N.2     1  UNL1       -0.2470
     28  C         25.8930  -23.3350  -11.7580 C.2     1  UNL1        0.0680
     29  C         27.0480  -23.9070  -11.2490 C.2     1  UNL1        0.0320
     30  C         24.7640  -23.2310  -10.9230 C.2     1  UNL1        0.0080
     31  C         27.1210  -24.3920   -9.9410 C.2     1  UNL1        0.0020
     32  C         26.0070  -24.3150   -9.1160 C.2     1  UNL1        0.0010
     33  C         24.8350  -23.7410   -9.6020 C.2     1  UNL1        0.0150
     34  C         24.8760  -21.9280  -14.9600 C.2     1  UNL1       -0.0010
     35  C         24.5380  -22.8310  -15.9890 C.2     1  UNL1        0.0140
     36  C         24.6150  -22.4610  -17.3320 C.2     1  UNL1        0.0010
     37  C         25.0350  -21.1790  -17.6720 C.2     1  UNL1        0.0010
     38  C         25.3640  -20.2630  -16.6720 C.2     1  UNL1        0.0070
     39  C         25.2950  -20.6240  -15.3160 C.2     1  UNL1       -0.0500
     40  C         25.6410  -19.5900  -14.2740 C.3     1  UNL1        0.0490
@<TRIPOS>BOND
     1    37    36    2
     2    37    38    1
     3    36    35    1
     4    38    39    2
     5    35    34    2
     6    39    34    1
     7    39    40    1
     8    34    26    1
     9    26    27    2
    10    26    25    1
    11    27    28    1
    12    25    24    2
    13    28    29    2
    14    28    30    1
    15    24    30    1
    16    24     2    1
    17    29    31    1
    18    23    21    1
    19     3     2    2
    20    30    33    2
    21     2     1   am
    22    20    21    2
    23    20    18    1
    24    21    22    1
    25    19    18    1
    26    31    32    2
    27     1     4    1
    28     1     5    1
    29    33    32    1
    30    18    17    2
    31    22    16    2
    32     5     6    2
    33     5    10    1
    34     6     7    1
    35    17    16    1
    36    10     9    2
    37    16    14    1
    38     7     8    2
    39     9     8    1
    40     8    11    1
    41    14    15    1
    42    14    11    1
    43    11    13    2
    44    11    12    2
