@<TRIPOS>MOLECULE
64395_out_ligand_01.pdbqt
 35 37 0 0 0
SMALL
GASTEIGER

@<TRIPOS>ATOM
      1  N         23.2260  -22.5950  -10.4170 N.3     1  UNL1       -0.2940
      2  S         24.7850  -22.2070  -10.9550 S.O2    1  UNL1        0.2610
      3  O         25.6780  -23.2300  -10.4580 O.2     1  UNL1       -0.2000
      4  O         25.0180  -20.8090  -10.6620 O.2     1  UNL1       -0.2000
      5  C         24.7000  -22.3800  -12.7230 C.2     1  UNL1        0.0790
      6  C         25.1600  -23.5560  -13.3250 C.2     1  UNL1        0.0260
      7  C         25.1400  -23.6770  -14.7160 C.2     1  UNL1        0.0080
      8  C         24.6900  -22.6170  -15.5130 C.2     1  UNL1       -0.0620
      9  C         24.6550  -22.7560  -17.0070 C.3     1  UNL1        0.0480
     10  C         24.2410  -21.4380  -14.8990 C.2     1  UNL1        0.0080
     11  C         24.2600  -21.3110  -13.5070 C.2     1  UNL1        0.0260
     12  C         23.1050  -23.2130   -9.0720 C.3     1  UNL1        0.2380
     13  C         22.0410  -22.5640   -8.1960 C.2     1  UNL1        0.2400
     14  O         22.2620  -21.4730   -7.6690 O.2     1  UNL1       -0.2710
     15  N         20.9140  -23.3480   -8.0300 N.am    1  UNL1       -0.3260
     16  H         20.9000  -24.1990   -8.5920 H       1  UNL1        0.1690
     17  C         19.7430  -23.0430   -7.3130 C.2     1  UNL1        0.0340
     18  C         18.7360  -24.0150   -7.2880 C.2     1  UNL1        0.0300
     19  C         17.5280  -23.7660   -6.6280 C.2     1  UNL1        0.0190
     20  C         17.3110  -22.5440   -5.9810 C.2     1  UNL1        0.0320
     21  C         18.3300  -21.5850   -5.9740 C.2     1  UNL1        0.0190
     22  C         19.5360  -21.8370   -6.6430 C.2     1  UNL1        0.0300
     23  C         15.9800  -22.3230   -5.3410 C.2     1  UNL1        0.2490
     24  N         15.9460  -22.1060   -3.9900 N.am    1  UNL1       -0.3660
     25  H         16.7760  -21.8670   -3.4600 H       1  UNL1        0.1590
     26  H         15.0510  -21.7800   -3.6280 H       1  UNL1        0.1590
     27  O         14.9440  -22.2780   -6.0030 O.2     1  UNL1       -0.2680
     28  C         22.2590  -23.0860  -11.4140 C.3     1  UNL1        0.1740
     29  C         20.9920  -22.2680  -11.3940 C.2     1  UNL1       -0.0390
     30  C         20.9740  -20.9510  -11.8760 C.2     1  UNL1        0.0090
     31  C         19.7940  -20.2000  -11.8580 C.2     1  UNL1        0.0010
     32  C         18.6250  -20.7600  -11.3550 C.2     1  UNL1        0.0070
     33  C         18.6160  -22.0820  -10.8740 C.2     1  UNL1       -0.0610
     34  C         17.3630  -22.6760  -10.2830 C.3     1  UNL1        0.0480
     35  C         19.8010  -22.8300  -10.9120 C.2     1  UNL1        0.0150
@<TRIPOS>BOND
     1     9     8    1
     2     8    10    2
     3     8     7    1
     4    10    11    1
     5     7     6    2
     6    11     5    2
     7     6     5    1
     8     5     2    1
     9    30    31    1
    10    30    29    2
    11    31    32    2
    12    28    29    1
    13    28     1    1
    14    29    35    1
    15    32    33    1
    16     2     4    2
    17     2     3    2
    18     2     1    1
    19    35    33    2
    20    33    34    1
    21     1    12    1
    22    12    13    1
    23    16    15    1
    24    13    15   am
    25    13    14    2
    26    15    17    1
    27    17    18    2
    28    17    22    1
    29    18    19    1
    30    22    21    2
    31    19    20    2
    32    27    23    2
    33    20    21    1
    34    20    23    1
    35    23    24   am
    36    24    26    1
    37    24    25    1
