@<TRIPOS>MOLECULE
6439_out_ligand_01.pdbqt
 32 35 0 0 0
SMALL
GASTEIGER

@<TRIPOS>ATOM
      1  C         19.1790  -22.4480  -10.0740 C.2     1  UNL1       -0.0080
      2  C         19.2220  -23.3350   -8.9950 C.2     1  UNL1        0.0130
      3  C         20.4440  -23.6360   -8.4010 C.2     1  UNL1        0.0030
      4  C         21.6170  -23.0640   -8.8980 C.2     1  UNL1        0.0290
      5  C         21.5880  -22.1960  -10.0000 C.2     1  UNL1        0.0350
      6  C         20.3570  -21.8850  -10.5820 C.2     1  UNL1        0.0430
      7  C         17.8710  -22.1160  -10.7000 C.2     1  UNL1        0.0610
      8  C         17.8850  -21.8720  -12.1930 C.3     1  UNL1        0.0730
      9  N         16.7130  -22.0550  -10.1040 N.2     1  UNL1       -0.1760
     10  N         16.6650  -22.1200   -8.7320 N.am    1  UNL1       -0.2430
     11  C         16.1070  -23.2150   -8.0740 C.2     1  UNL1        0.2720
     12  O         15.5240  -24.1430   -8.6260 O.2     1  UNL1       -0.2660
     13  H         17.5190  -21.7860   -8.2970 H       1  UNL1        0.1920
     14  C         16.3300  -23.2070   -6.6210 C.2     1  UNL1        0.0470
     15  C         15.5100  -23.9540   -5.7880 C.2     1  UNL1        0.0670
     16  S         15.9110  -23.8190   -4.1380 S.3     1  UNL1       -0.1050
     17  C         17.1540  -22.7150   -4.4830 C.2     1  UNL1       -0.0100
     18  C         17.3020  -22.4660   -5.8390 C.2     1  UNL1       -0.0290
     19  C         17.9770  -22.1090   -3.3880 C.3     1  UNL1        0.0460
     20  C         18.3090  -21.4590   -6.3300 C.3     1  UNL1        0.0400
     21  C         19.3430  -21.0840   -5.2570 C.3     1  UNL1        0.0050
     22  C         18.6910  -20.8480   -3.8900 C.3     1  UNL1        0.0050
     23  N         22.8220  -21.6720  -10.4370 N.am    1  UNL1       -0.3220
     24  C         23.6920  -22.2200  -11.3640 C.2     1  UNL1        0.2740
     25  O         23.5480  -23.3230  -11.8800 O.2     1  UNL1       -0.2660
     26  H         23.1360  -20.8360   -9.9660 H       1  UNL1        0.1690
     27  C         24.8470  -21.3870  -11.6480 C.2     1  UNL1        0.1210
     28  C         25.8800  -20.9450  -10.8360 C.2     1  UNL1        0.0580
     29  C         26.7110  -20.1700  -11.6620 C.2     1  UNL1        0.1410
     30  N         26.2580  -20.1100  -12.9120 N.2     1  UNL1       -0.1850
     31  N         25.1170  -20.8280  -12.8800 N.pl3   1  UNL1       -0.2690
     32  C         24.3420  -20.9530  -14.0950 C.3     1  UNL1        0.1800
@<TRIPOS>BOND
     1    32    31    1
     2    30    31    1
     3    30    29    2
     4    31    27    1
     5     8     7    1
     6    25    24    2
     7    29    28    1
     8    27    24    1
     9    27    28    2
    10    24    23   am
    11     7     9    2
    12     7     1    1
    13     6     1    2
    14     6     5    1
    15    23     5    1
    16    23    26    1
    17     9    10    1
    18     1     2    1
    19     5     4    2
    20     2     3    2
    21     4     3    1
    22    10    13    1
    23    10    11   am
    24    12    11    2
    25    11    14    1
    26    14    18    1
    27    14    15    2
    28    20    18    1
    29    20    21    1
    30    18    17    2
    31    15    16    1
    32    21    22    1
    33    17    16    1
    34    17    19    1
    35    22    19    1
