@<TRIPOS>MOLECULE
6440_out_ligand_01.pdbqt
 35 38 0 0 0
SMALL
GASTEIGER

@<TRIPOS>ATOM
      1  C         16.2380  -22.6930   -5.5520 C.ar    1  UNL1       -0.0220
      2  C         15.4280  -23.5030   -6.3350 C.ar    1  UNL1       -0.0110
      3  C         14.1260  -24.1430   -5.9770 C.3     1  UNL1        0.0570
      4  S         16.0740  -23.7360   -7.8980 S.2     1  UNL1       -0.0750
      5  C         17.4420  -22.7870   -7.5750 C.ar    1  UNL1        0.0980
      6  C         17.4130  -22.2850   -6.2880 C.ar    1  UNL1        0.0850
      7  C         18.4500  -21.4500   -5.7550 C.1     1  UNL1        0.1030
      8  N         19.2930  -20.7760   -5.3300 N.1     1  UNL1       -0.1910
      9  N         18.4220  -22.5860   -8.5330 N.am    1  UNL1       -0.3140
     10  C         18.2710  -22.0770   -9.8110 C.2     1  UNL1        0.2770
     11  O         17.2420  -21.7030  -10.3560 O.2     1  UNL1       -0.2660
     12  H         19.3840  -22.8320   -8.3010 H       1  UNL1        0.1700
     13  C         19.5670  -22.0220  -10.5170 C.2     1  UNL1        0.1490
     14  C         19.8120  -21.5100  -11.8080 C.2     1  UNL1        0.0910
     15  C         21.1570  -21.6760  -12.0250 C.2     1  UNL1        0.1540
     16  N         21.9370  -21.3630  -13.0990 N.2     1  UNL1       -0.2290
     17  N         21.6740  -22.2740  -10.8730 N.pl3   1  UNL1       -0.2100
     18  C         23.2050  -21.6580  -13.0170 C.2     1  UNL1        0.0710
     19  C         23.8450  -22.2790  -11.8140 C.2     1  UNL1        0.0690
     20  C         23.0280  -22.5660  -10.7800 C.2     1  UNL1        0.1460
     21  N         20.6980  -22.4860   -9.9490 N.2     1  UNL1       -0.1600
     22  C         24.1010  -21.3430  -14.1670 C.2     1  UNL1       -0.0070
     23  C         24.2380  -22.2900  -15.1850 C.2     1  UNL1        0.0140
     24  C         25.0650  -22.0300  -16.2780 C.2     1  UNL1        0.0080
     25  C         25.7770  -20.8250  -16.3690 C.2     1  UNL1       -0.0560
     26  C         26.6640  -20.5840  -17.5610 C.3     1  UNL1        0.0490
     27  C         25.6610  -19.8740  -15.3350 C.2     1  UNL1       -0.0550
     28  C         26.4250  -18.5780  -15.3750 C.3     1  UNL1        0.0490
     29  C         24.8240  -20.1460  -14.2370 C.2     1  UNL1        0.0210
     30  C         23.4890  -23.1750   -9.5120 C.3     1  UNL1        0.4340
     31  F         23.4260  -22.3150   -8.4660 F       1  UNL1       -0.1650
     32  F         22.7840  -24.2840   -9.1800 F       1  UNL1       -0.1650
     33  F         24.7910  -23.5710   -9.5940 F       1  UNL1       -0.1650
     34  C         15.9360  -22.2960   -4.1310 C.3     1  UNL1        0.0370
     35  C         16.1290  -23.4470   -3.1540 C.3     1  UNL1        0.0100
@<TRIPOS>BOND
     1    26    25    1
     2    25    24    2
     3    25    27    1
     4    24    23    1
     5    28    27    1
     6    27    29    2
     7    23    22    2
     8    29    22    1
     9    22    18    1
    10    16    18    2
    11    16    15    1
    12    18    19    1
    13    15    14    2
    14    15    17    1
    15    19    20    2
    16    14    13    1
    17    17    20    1
    18    17    21    1
    19    20    30    1
    20    13    21    2
    21    13    10    1
    22    11    10    2
    23    10     9   am
    24    33    30    1
    25    30    32    1
    26    30    31    1
    27     9    12    1
    28     9     5    1
    29     4     5   ar
    30     4     2   ar
    31     5     6   ar
    32     2     3    1
    33     2     1   ar
    34     6     7    1
    35     6     1   ar
    36     7     8    3
    37     1    34    1
    38    34    35    1
