@<TRIPOS>MOLECULE
64405_out_ligand_01.pdbqt
 34 37 0 0 0
SMALL
GASTEIGER

@<TRIPOS>ATOM
      1  N         22.1070  -23.3450   -9.8420 N.pl3   1  UNL1       -0.3460
      2  C         21.4990  -24.0610   -8.8450 C.2     1  UNL1        0.1050
      3  C         20.1430  -23.8020   -8.8820 C.2     1  UNL1        0.0110
      4  C         19.9270  -22.8830   -9.9610 C.2     1  UNL1        0.0040
      5  C         18.7880  -22.2400  -10.4940 C.2     1  UNL1        0.0140
      6  C         18.9200  -21.3720  -11.5820 C.2     1  UNL1        0.0010
      7  C         20.1660  -21.1360  -12.1500 C.2     1  UNL1        0.0020
      8  C         21.3110  -21.7570  -11.6480 C.2     1  UNL1        0.0300
      9  C         21.1680  -22.6270  -10.5530 C.2     1  UNL1        0.0450
     10  C         19.1910  -24.3970   -7.9640 C.3     1  UNL1        0.1460
     11  N         18.8080  -23.7380   -6.9140 N.3     1  UNL1       -0.2070
     12  N         17.8820  -24.4190   -6.1530 N.pl3   1  UNL1       -0.1640
     13  H         18.3360  -24.8460   -5.3350 H       1  UNL1        0.1570
     14  C         16.8440  -23.5840   -5.6520 C.2     1  UNL1        0.1550
     15  N         16.9180  -23.2430   -4.3400 N.2     1  UNL1       -0.2450
     16  C         15.8970  -22.5380   -3.7970 C.2     1  UNL1        0.1180
     17  C         14.7680  -22.1500   -4.4970 C.2     1  UNL1        0.0220
     18  C         14.6770  -22.5020   -5.8370 C.2     1  UNL1        0.0410
     19  C         15.7280  -23.2270   -6.4120 C.2     1  UNL1        0.1440
     20  N         15.6560  -23.5740   -7.8160 N.pl3   1  UNL1       -0.1120
     21  O         15.5210  -24.7740   -8.0990 O.2     1  UNL1       -0.5320
     22  O         15.7890  -22.6570   -8.6400 O.2     1  UNL1       -0.5320
     23  C         23.5430  -23.3400  -10.0920 C.3     1  UNL1        0.2310
     24  C         24.1200  -22.0340  -10.6230 C.2     1  UNL1        0.2400
     25  N         24.7000  -22.0740  -11.8770 N.am    1  UNL1       -0.3260
     26  H         24.6840  -22.9570  -12.3770 H       1  UNL1        0.1690
     27  O         24.0670  -21.0380   -9.8990 O.2     1  UNL1       -0.2710
     28  C         25.3330  -21.0230  -12.5750 C.2     1  UNL1        0.0340
     29  C         24.8870  -20.7720  -13.8790 C.2     1  UNL1        0.0300
     30  C         25.4580  -19.7520  -14.6480 C.2     1  UNL1        0.0090
     31  C         26.4810  -18.9590  -14.1230 C.2     1  UNL1       -0.0620
     32  C         27.1210  -17.8900  -14.9560 C.3     1  UNL1        0.0480
     33  C         26.9370  -19.2190  -12.8260 C.2     1  UNL1        0.0090
     34  C         26.3630  -20.2390  -12.0570 C.2     1  UNL1        0.0300
@<TRIPOS>BOND
     1    32    31    1
     2    30    31    2
     3    30    29    1
     4    31    33    1
     5    29    28    2
     6    33    34    2
     7    28    34    1
     8    28    25    1
     9    26    25    1
    10     7     8    2
    11     7     6    1
    12    25    24   am
    13     8     9    1
    14     6     5    2
    15    24    23    1
    16    24    27    2
    17     9     4    2
    18     9     1    1
    19     5     4    1
    20    23     1    1
    21     4     3    1
    22     1     2    1
    23     3     2    2
    24     3    10    1
    25    22    20    2
    26    21    20    2
    27    10    11    1
    28    20    19    1
    29    11    12    1
    30    19    18    1
    31    19    14    2
    32    12    14    1
    33    12    13    1
    34    18    17    2
    35    14    15    1
    36    17    16    1
    37    15    16    2
