@<TRIPOS>MOLECULE
64428_out_ligand_01.pdbqt
 35 37 0 0 0
SMALL
GASTEIGER

@<TRIPOS>ATOM
      1  N         23.1870  -22.2690  -10.6220 N.3     1  UNL1       -0.2940
      2  C         22.2580  -22.1360  -11.7740 C.3     1  UNL1        0.1740
      3  C         20.7920  -21.9420  -11.4630 C.2     1  UNL1       -0.0400
      4  C         20.0250  -23.0090  -10.9690 C.2     1  UNL1        0.0090
      5  C         18.6710  -22.8350  -10.6730 C.2     1  UNL1        0.0070
      6  C         18.0580  -21.5910  -10.8560 C.2     1  UNL1       -0.0620
      7  C         16.5970  -21.4140  -10.5670 C.3     1  UNL1        0.0480
      8  C         18.8130  -20.5320  -11.3680 C.2     1  UNL1        0.0070
      9  C         20.1680  -20.7050  -11.6660 C.2     1  UNL1        0.0090
     10  C         22.7800  -21.5730   -9.3610 C.3     1  UNL1        0.2380
     11  C         21.8330  -22.4320   -8.5220 C.2     1  UNL1        0.2400
     12  O         22.0320  -23.6330   -8.3670 O.2     1  UNL1       -0.2710
     13  N         20.8420  -21.6740   -7.9140 N.am    1  UNL1       -0.3260
     14  H         20.8610  -20.6910   -8.1620 H       1  UNL1        0.1690
     15  C         19.8150  -22.1060   -7.0610 C.2     1  UNL1        0.0340
     16  C         19.1140  -23.3020   -7.2300 C.2     1  UNL1        0.0300
     17  C         18.0930  -23.6630   -6.3380 C.2     1  UNL1        0.0190
     18  C         17.7600  -22.8230   -5.2710 C.2     1  UNL1        0.0320
     19  C         18.4700  -21.6310   -5.0910 C.2     1  UNL1        0.0190
     20  C         19.4890  -21.2760   -5.9830 C.2     1  UNL1        0.0300
     21  C         16.6870  -23.1570   -4.2970 C.2     1  UNL1        0.2490
     22  N         16.1500  -22.1320   -3.5680 N.am    1  UNL1       -0.3660
     23  H         15.5120  -22.4030   -2.8290 H       1  UNL1        0.1590
     24  H         16.6010  -21.2340   -3.4820 H       1  UNL1        0.1590
     25  O         16.3170  -24.3110   -4.1210 O.2     1  UNL1       -0.2680
     26  S         24.8550  -22.1750  -10.9640 S.O2    1  UNL1        0.2610
     27  O         25.3190  -20.8480  -10.6240 O.2     1  UNL1       -0.2000
     28  O         25.4960  -23.3570  -10.4320 O.2     1  UNL1       -0.2000
     29  C         24.8740  -22.3340  -12.7370 C.2     1  UNL1        0.0790
     30  C         24.6880  -21.2080  -13.5460 C.2     1  UNL1        0.0260
     31  C         24.7180  -21.3480  -14.9340 C.2     1  UNL1        0.0200
     32  C         24.9470  -22.6030  -15.5010 C.2     1  UNL1        0.0110
     33 BR         24.9860  -22.7860  -17.3820 Br      1  UNL1       -0.0510
     34  C         25.1570  -23.7210  -14.6940 C.2     1  UNL1        0.0200
     35  C         25.1280  -23.5870  -13.3060 C.2     1  UNL1        0.0260
@<TRIPOS>BOND
     1    33    32    1
     2    32    31    2
     3    32    34    1
     4    31    30    1
     5    34    35    2
     6    30    29    2
     7    35    29    1
     8    29    26    1
     9     2     3    1
    10     2     1    1
    11     9     3    2
    12     9     8    1
    13     3     4    1
    14     8     6    2
    15     4     5    2
    16    26    27    2
    17    26     1    1
    18    26    28    2
    19     6     5    1
    20     6     7    1
    21     1    10    1
    22    10    11    1
    23    11    12    2
    24    11    13   am
    25    14    13    1
    26    13    15    1
    27    16    15    2
    28    16    17    1
    29    15    20    1
    30    17    18    2
    31    20    19    2
    32    18    19    1
    33    18    21    1
    34    21    25    2
    35    21    22   am
    36    22    24    1
    37    22    23    1
