@<TRIPOS>MOLECULE
64548_out_ligand_01.pdbqt
 38 42 0 0 0
SMALL
GASTEIGER

@<TRIPOS>ATOM
      1  C         27.1210  -21.4640  -12.1450 C.3     1  UNL1        0.0500
      2  C         25.7650  -21.8950  -11.6620 C.2     1  UNL1       -0.0390
      3  C         25.1670  -21.1600  -10.6240 C.2     1  UNL1        0.0090
      4  C         23.9040  -21.4950  -10.1300 C.2     1  UNL1        0.0140
      5  C         23.1920  -22.5790  -10.6580 C.2     1  UNL1       -0.0030
      6  C         23.7750  -23.3130  -11.6980 C.2     1  UNL1        0.0390
      7  C         25.0530  -22.9860  -12.1910 C.2     1  UNL1        0.0860
      8  C         21.8690  -22.9380  -10.1370 C.ar    1  UNL1        0.1000
      9  N         21.8960  -23.8930   -9.1850 N.ar    1  UNL1       -0.1470
     10  N         20.7310  -24.3150   -8.6070 N.ar    1  UNL1       -0.1310
     11  C         19.5380  -23.7980   -8.9720 C.ar    1  UNL1        0.1610
     12  C         19.4640  -22.8070   -9.9820 C.ar    1  UNL1        0.0240
     13  C         18.2430  -22.2470  -10.4400 C.2     1  UNL1        0.0160
     14  C         20.6660  -22.3540  -10.5710 C.ar    1  UNL1        0.0090
     15  C         18.2090  -21.2510  -11.4180 C.2     1  UNL1        0.0010
     16  C         19.3930  -20.7930  -11.9740 C.2     1  UNL1        0.0010
     17  C         20.6060  -21.3430  -11.5630 C.2     1  UNL1        0.0150
     18  N         18.3420  -24.2400   -8.3410 N.pl3   1  UNL1       -0.3390
     19  H         17.6350  -24.3950   -9.0530 H       1  UNL1        0.1670
     20  C         17.7650  -23.7950   -7.1300 C.2     1  UNL1        0.0330
     21  C         16.5270  -24.2560   -6.6570 C.2     1  UNL1        0.0320
     22  C         15.9640  -23.7370   -5.4860 C.2     1  UNL1        0.0440
     23  C         16.6220  -22.7290   -4.7980 C.2     1  UNL1        0.1160
     24  F         16.0790  -22.2260   -3.6820 F       1  UNL1       -0.2060
     25  C         17.8280  -22.2240   -5.2610 C.2     1  UNL1        0.0440
     26  C         18.3900  -22.7490   -6.4290 C.2     1  UNL1        0.0320
     27  S         25.6780  -24.0440  -13.4850 S.O2    1  UNL1        0.2590
     28  O         27.0250  -24.4230  -13.1250 O.2     1  UNL1       -0.2010
     29  O         24.6930  -25.0230  -13.8820 O.2     1  UNL1       -0.2010
     30  N         25.8220  -22.9570  -14.7550 N.3     1  UNL1       -0.3110
     31  H         26.2430  -23.3660  -15.5870 H       1  UNL1        0.1720
     32  C         24.7670  -21.9650  -14.9230 C.3     1  UNL1        0.1720
     33  C         25.3170  -20.6910  -15.4980 C.2     1  UNL1       -0.0220
     34  C         25.8120  -19.6680  -14.6840 C.2     1  UNL1        0.0120
     35  C         26.2930  -18.4960  -15.2640 C.2     1  UNL1        0.0200
     36  C         26.2570  -18.3830  -16.6440 C.2     1  UNL1        0.1160
     37  N         25.7770  -19.3430  -17.4650 N.2     1  UNL1       -0.2730
     38  C         25.3130  -20.4690  -16.8720 C.2     1  UNL1        0.1240
@<TRIPOS>BOND
     1    37    38    1
     2    37    36    2
     3    38    33    2
     4    36    35    1
     5    31    30    1
     6    33    32    1
     7    33    34    1
     8    35    34    2
     9    32    30    1
    10    30    27    1
    11    29    27    2
    12    27    28    2
    13    27     7    1
    14     7     6    1
    15     7     2    2
    16     1     2    1
    17    16    17    2
    18    16    15    1
    19     6     5    2
    20     2     3    1
    21    17    14    1
    22    15    13    2
    23     5     8    1
    24     5     4    1
    25     3     4    2
    26    14     8   ar
    27    14    12   ar
    28    13    12    1
    29     8     9   ar
    30    12    11   ar
    31     9    10   ar
    32    19    18    1
    33    11    10   ar
    34    11    18    1
    35    18    20    1
    36    20    21    2
    37    20    26    1
    38    21    22    1
    39    26    25    2
    40    22    23    2
    41    25    23    1
    42    23    24    1
