@<TRIPOS>MOLECULE
64556_out_ligand_01.pdbqt
 41 45 0 0 0
SMALL
GASTEIGER

@<TRIPOS>ATOM
      1  C         20.7990  -21.9710  -11.4020 C.2     1  UNL1        0.0980
      2  N         21.0940  -21.3810  -12.5230 N.pl3   1  UNL1       -0.1720
      3  N         22.4000  -21.3630  -12.8910 N.pl3   1  UNL1       -0.2600
      4  C         23.4780  -21.8580  -12.1850 C.2     1  UNL1        0.1550
      5  N         24.7330  -21.7660  -12.5210 N.pl3   1  UNL1       -0.2290
      6  C         23.1490  -22.5730  -10.9230 C.2     1  UNL1        0.0240
      7  C         24.1470  -23.1800  -10.1490 C.2     1  UNL1        0.0160
      8  C         23.8000  -23.8750   -8.9910 C.2     1  UNL1        0.0010
      9  C         22.4630  -23.9720   -8.6120 C.2     1  UNL1        0.0010
     10  C         21.4670  -23.3650   -9.3830 C.2     1  UNL1        0.0150
     11  C         21.8090  -22.6460  -10.5370 C.2     1  UNL1        0.0090
     12  H         22.6120  -20.8600  -13.7480 H       1  UNL1        0.1910
     13  C         19.3730  -21.9440  -10.9990 C.2     1  UNL1       -0.0030
     14  C         18.4340  -21.2780  -11.7840 C.2     1  UNL1        0.0140
     15  C         17.0910  -21.2800  -11.4040 C.2     1  UNL1        0.0090
     16  C         16.6660  -21.9450  -10.2390 C.2     1  UNL1       -0.0390
     17  C         15.1980  -21.9290   -9.9120 C.3     1  UNL1        0.0500
     18  C         17.6290  -22.6340   -9.4710 C.2     1  UNL1        0.0860
     19  C         18.9780  -22.6410   -9.8560 C.2     1  UNL1        0.0390
     20  S         17.1950  -23.5480   -7.9980 S.O2    1  UNL1        0.2590
     21  O         16.0800  -24.4170   -8.3050 O.2     1  UNL1       -0.2010
     22  O         18.4120  -24.0660   -7.4110 O.2     1  UNL1       -0.2010
     23  N         16.6250  -22.3570   -6.9740 N.3     1  UNL1       -0.3130
     24  H         17.2940  -21.6290   -6.7230 H       1  UNL1        0.1720
     25  C         15.5970  -22.6750   -5.9740 C.3     1  UNL1        0.1640
     26  C         16.1980  -22.5960   -4.5670 C.3     1  UNL1        0.1400
     27  C         17.5570  -21.9190   -4.4880 C.3     1  UNL1        0.0350
     28  C         18.1230  -22.5300   -3.2310 C.3     1  UNL1        0.0290
     29  C         17.6300  -23.9580   -3.3260 C.3     1  UNL1        0.1680
     30  O         16.3740  -23.9240   -4.0260 O.3     1  UNL1       -0.3840
     31  C         25.0830  -21.1040  -13.7030 C.2     1  UNL1        0.0590
     32  C         24.8570  -21.7040  -14.9430 C.2     1  UNL1        0.0320
     33  C         25.1990  -21.0380  -16.1230 C.2     1  UNL1        0.0190
     34  C         25.7700  -19.7600  -16.0710 C.2     1  UNL1        0.0320
     35  C         25.9700  -19.1440  -14.8290 C.2     1  UNL1        0.0190
     36  C         25.6250  -19.8180  -13.6530 C.2     1  UNL1        0.0320
     37  C         26.1190  -19.0910  -17.3530 C.2     1  UNL1        0.2490
     38  N         25.5710  -17.8620  -17.5950 N.am    1  UNL1       -0.3660
     39  H         25.1720  -17.2960  -16.8610 H       1  UNL1        0.1590
     40  H         25.9280  -17.3770  -18.4090 H       1  UNL1        0.1590
     41  O         26.8960  -19.5960  -18.1530 O.2     1  UNL1       -0.2680
@<TRIPOS>BOND
     1    40    38    1
     2    41    37    2
     3    38    37   am
     4    38    39    1
     5    37    34    1
     6    33    34    2
     7    33    32    1
     8    34    35    1
     9    32    31    2
    10    35    36    2
    11    12     3    1
    12    31    36    1
    13    31     5    1
    14     3     2    1
    15     3     4    1
    16     2     1    1
    17     5     4    1
    18     4     6    2
    19    14    15    1
    20    14    13    2
    21    15    16    2
    22     1    13    1
    23     1    11    2
    24    13    19    1
    25     6    11    1
    26     6     7    1
    27    11    10    1
    28    16    17    1
    29    16    18    1
    30     7     8    2
    31    19    18    2
    32    18    20    1
    33    10     9    2
    34     8     9    1
    35    21    20    2
    36    20    22    2
    37    20    23    1
    38    23    24    1
    39    23    25    1
    40    25    26    1
    41    26    27    1
    42    26    30    1
    43    27    28    1
    44    30    29    1
    45    29    28    1
