@<TRIPOS>MOLECULE
64576_out_ligand_01.pdbqt
 34 38 0 0 0
SMALL
GASTEIGER

@<TRIPOS>ATOM
      1  O         22.8460  -21.9130   -7.7530 O.2     1  UNL1       -0.2820
      2  C         22.4550  -22.2470   -8.8510 C.2     1  UNL1        0.2520
      3  C         23.0630  -21.7100  -10.1460 C.2     1  UNL1        0.2950
      4  O         24.0670  -21.0300  -10.2300 O.2     1  UNL1       -0.2640
      5  N         22.2650  -22.1370  -11.1790 N.am    1  UNL1       -0.3280
      6  C         21.0820  -22.8710  -10.7320 C.3     1  UNL1        0.1650
      7  C         21.3290  -23.1360   -9.2600 C.3     1  UNL1        0.0760
      8  C         20.6390  -24.0660   -8.5580 C.2     1  UNL1        0.1950
      9  O         20.7910  -25.3190   -8.6360 O.2     1  UNL1       -0.2870
     10  C         19.6290  -23.5080   -7.6150 C.2     1  UNL1        0.0180
     11  C         19.8190  -22.2390   -7.0450 C.2     1  UNL1        0.0180
     12  C         18.8690  -21.7070   -6.1710 C.2     1  UNL1        0.0400
     13  C         17.7260  -22.4410   -5.8630 C.2     1  UNL1        0.1020
     14  C         17.5470  -23.7250   -6.3970 C.2     1  UNL1        0.1030
     15  O         16.8230  -21.8460   -5.0160 O.2     1  UNL1       -0.3460
     16  C         18.4900  -24.2510   -7.2770 C.2     1  UNL1        0.0550
     17  O         16.4620  -24.5170   -6.1030 O.2     1  UNL1       -0.3460
     18  C         15.7670  -24.0300   -4.9530 C.3     1  UNL1        0.2020
     19  C         15.5650  -22.5270   -5.0460 C.3     1  UNL1        0.2020
     20  C         19.8090  -22.0790  -11.0000 C.2     1  UNL1        0.0080
     21  C         19.8270  -20.7170  -11.3550 C.2     1  UNL1        0.0120
     22  C         18.6340  -20.0140  -11.5560 C.2     1  UNL1        0.0010
     23  C         17.4060  -20.6540  -11.4030 C.2     1  UNL1        0.0030
     24  C         17.3710  -22.0020  -11.0610 C.2     1  UNL1        0.0430
     25  C         18.5630  -22.7000  -10.8680 C.2     1  UNL1        0.1250
     26  F         18.4900  -24.0220  -10.6520 F       1  UNL1       -0.2050
     27  C         22.6110  -21.9580  -12.5700 C.3     1  UNL1        0.1670
     28  C         24.0320  -22.3740  -12.8490 C.2     1  UNL1       -0.0250
     29  C         24.9190  -21.5170  -13.5120 C.2     1  UNL1        0.0110
     30  C         26.1900  -21.9610  -13.8600 C.2     1  UNL1        0.0180
     31  C         26.5550  -23.2610  -13.5430 C.3     1  UNL1        0.0870
     32  N         25.6950  -24.0590  -12.8920 N.pl3   1  UNL1       -0.3750
     33  C         24.4690  -23.6550  -12.5290 C.2     1  UNL1        0.0960
     34  H         25.9680  -25.0210  -12.6890 H       1  UNL1        0.1640
@<TRIPOS>BOND
     1    30    31    1
     2    30    29    2
     3    31    32    1
     4    29    28    1
     5    32    34    1
     6    32    33    1
     7    28    27    1
     8    28    33    2
     9    27     5    1
    10    22    23    2
    11    22    21    1
    12    23    24    1
    13    21    20    2
    14     5     6    1
    15     5     3   am
    16    24    25    2
    17    20    25    1
    18    20     6    1
    19    25    26    1
    20     6     7    1
    21     4     3    2
    22     3     2    1
    23     7     2    1
    24     7     8    1
    25     2     1    2
    26     9     8    2
    27     8    10    1
    28    10    16    2
    29    10    11    1
    30    16    14    1
    31    11    12    2
    32    14    17    1
    33    14    13    2
    34    12    13    1
    35    17    18    1
    36    13    15    1
    37    19    15    1
    38    19    18    1
