@<TRIPOS>MOLECULE
64580_out_ligand_01.pdbqt
 45 50 0 0 0
SMALL
GASTEIGER

@<TRIPOS>ATOM
      1  C         23.7500  -20.6810  -14.7010 C.3     1  UNL1        0.0500
      2  C         23.0050  -21.2650  -13.5340 C.2     1  UNL1       -0.0390
      3  C         21.6160  -21.0440  -13.4620 C.2     1  UNL1        0.0090
      4  C         20.8540  -21.5590  -12.4100 C.2     1  UNL1        0.0140
      5  C         21.4700  -22.3080  -11.4090 C.2     1  UNL1       -0.0030
      6  C         22.8380  -22.5720  -11.4740 C.2     1  UNL1        0.0390
      7  C         23.6110  -22.0240  -12.5140 C.2     1  UNL1        0.0860
      8  C         20.6460  -22.8510  -10.3010 C.2     1  UNL1        0.0980
      9  N         21.2180  -23.7300   -9.5320 N.pl3   1  UNL1       -0.1720
     10  N         20.4880  -24.1940   -8.4890 N.pl3   1  UNL1       -0.2600
     11  C         19.3150  -23.6640   -7.9950 C.2     1  UNL1        0.1550
     12  H         20.9960  -24.7430   -7.7940 H       1  UNL1        0.1910
     13  N         19.0490  -23.9870   -6.7530 N.pl3   1  UNL1       -0.2290
     14  C         18.5510  -22.8050   -8.9510 C.2     1  UNL1        0.0240
     15  C         17.2040  -22.4510   -8.7990 C.2     1  UNL1        0.0160
     16  C         19.2340  -22.3990  -10.1110 C.2     1  UNL1        0.0090
     17  C         16.5610  -21.6570   -9.7530 C.2     1  UNL1        0.0010
     18  C         17.2410  -21.2460  -10.8920 C.2     1  UNL1        0.0010
     19  C         18.5660  -21.6350  -11.0840 C.2     1  UNL1        0.0150
     20  C         17.9790  -23.5000   -6.0070 C.2     1  UNL1        0.0600
     21  C         18.1560  -22.3580   -5.2230 C.2     1  UNL1        0.0310
     22  C         17.0950  -21.8340   -4.4850 C.2     1  UNL1        0.0030
     23  C         15.8420  -22.4430   -4.5410 C.2     1  UNL1        0.0160
     24  C         15.6320  -23.5660   -5.3570 C.2     1  UNL1        0.0500
     25  C         16.7110  -24.0820   -6.0940 C.2     1  UNL1        0.0470
     26  C         14.2840  -24.2370   -5.4140 C.3     1  UNL1        0.4170
     27  F         14.0370  -25.0470   -4.3480 F       1  UNL1       -0.1660
     28  F         13.2650  -23.3340   -5.4430 F       1  UNL1       -0.1660
     29  F         14.1200  -25.0190   -6.5200 F       1  UNL1       -0.1660
     30  S         25.3690  -22.3240  -12.4140 S.O2    1  UNL1        0.2590
     31  O         25.6300  -23.5610  -11.7140 O.2     1  UNL1       -0.2010
     32  O         25.9980  -21.0800  -12.0370 O.2     1  UNL1       -0.2010
     33  N         25.7780  -22.6030  -14.0130 N.3     1  UNL1       -0.3080
     34  H         25.3630  -23.4400  -14.4190 H       1  UNL1        0.1720
     35  C         27.1210  -22.2370  -14.4500 C.3     1  UNL1        0.2100
     36  C         27.0120  -20.9410  -15.1760 C.ar    1  UNL1        0.1230
     37  N         26.7940  -20.7670  -16.4660 N.ar    1  UNL1       -0.2320
     38  C         26.7490  -19.4050  -16.6480 C.ar    1  UNL1        0.0850
     39  C         26.5520  -18.6610  -17.8210 C.2     1  UNL1        0.0340
     40  C         26.9300  -18.7350  -15.4410 C.ar    1  UNL1        0.0620
     41  C         26.5410  -17.2610  -17.7340 C.2     1  UNL1        0.0020
     42  C         26.7230  -16.6180  -16.5060 C.2     1  UNL1        0.0020
     43  C         26.9180  -17.3450  -15.3250 C.2     1  UNL1        0.0320
     44  N         27.0890  -19.7360  -14.5190 N.ar    1  UNL1       -0.3410
     45  H         27.2080  -19.6170  -13.5220 H       1  UNL1        0.1670
@<TRIPOS>BOND
     1    39    41    1
     2    39    38    2
     3    41    42    2
     4    38    37   ar
     5    38    40   ar
     6    42    43    1
     7    37    36   ar
     8    40    43    2
     9    40    44   ar
    10    36    44   ar
    11    36    35    1
    12     1     2    1
    13    44    45    1
    14    35    33    1
    15    34    33    1
    16    33    30    1
    17     2     3    2
    18     2     7    1
    19     3     4    1
    20     7    30    1
    21     7     6    2
    22    30    32    2
    23    30    31    2
    24     4     5    2
    25     6     5    1
    26     5     8    1
    27    19    18    2
    28    19    16    1
    29    18    17    1
    30     8    16    2
    31     8     9    1
    32    16    14    1
    33    17    15    2
    34     9    10    1
    35    14    15    1
    36    14    11    2
    37    10    11    1
    38    10    12    1
    39    11    13    1
    40    13    20    1
    41    29    26    1
    42    25    20    2
    43    25    24    1
    44    20    21    1
    45    28    26    1
    46    26    24    1
    47    26    27    1
    48    24    23    2
    49    21    22    2
    50    23    22    1
