@<TRIPOS>MOLECULE
64610_out_ligand_01.pdbqt
 37 41 0 0 0
SMALL
GASTEIGER

@<TRIPOS>ATOM
      1  C         20.8970  -22.7620  -10.5530 C.3     1  UNL1        0.1630
      2  C         21.1720  -22.9530   -9.0870 C.3     1  UNL1        0.0760
      3  C         22.2660  -22.0000   -8.7540 C.2     1  UNL1        0.2520
      4  O         22.6070  -21.5280   -7.6920 O.2     1  UNL1       -0.2820
      5  C         22.9090  -21.6230  -10.0970 C.2     1  UNL1        0.2950
      6  O         23.9660  -21.0420  -10.2400 O.2     1  UNL1       -0.2640
      7  N         22.0800  -22.0930  -11.0910 N.am    1  UNL1       -0.3280
      8  C         20.5630  -23.9160   -8.3570 C.2     1  UNL1        0.1950
      9  O         20.7690  -25.1620   -8.4460 O.2     1  UNL1       -0.2870
     10  C         19.5890  -23.4000   -7.3560 C.2     1  UNL1        0.0180
     11  C         19.7000  -22.0900   -6.8650 C.2     1  UNL1        0.0180
     12  C         18.7750  -21.6010   -5.9380 C.2     1  UNL1        0.0400
     13  C         17.7390  -22.4210   -5.4980 C.2     1  UNL1        0.1020
     14  C         17.6440  -23.7410   -5.9540 C.2     1  UNL1        0.1030
     15  O         16.8540  -21.8660   -4.6050 O.2     1  UNL1       -0.3460
     16  C         18.5580  -24.2260   -6.8870 C.2     1  UNL1        0.0550
     17  O         16.6740  -24.6160   -5.5280 O.2     1  UNL1       -0.3460
     18  C         16.0260  -24.1320   -4.3490 C.3     1  UNL1        0.2020
     19  C         15.6700  -22.6630   -4.4980 C.3     1  UNL1        0.2020
     20  C         19.6270  -21.9570  -10.8310 C.2     1  UNL1       -0.0280
     21  C         19.6420  -20.7180  -11.4970 C.2     1  UNL1        0.0100
     22  C         18.4500  -20.0480  -11.7870 C.2     1  UNL1        0.0030
     23  C         17.2280  -20.5990  -11.4070 C.2     1  UNL1        0.0370
     24  C         17.2100  -21.7960  -10.7000 C.2     1  UNL1        0.0690
     25  C         18.3910  -22.4730  -10.4100 C.2     1  UNL1        0.0460
     26  O         16.0080  -22.3500  -10.3530 O.2     1  UNL1       -0.3480
     27  C         16.0370  -22.7330   -8.9680 C.3     1  UNL1        0.2020
     28  C         15.5070  -24.1350   -8.8920 C.2     1  UNL1       -0.0110
     29  C         14.9000  -24.7780   -9.8980 C.2     1  UNL1        0.0090
     30  C         22.4960  -22.2180  -12.4750 C.3     1  UNL1        0.1670
     31  C         23.9720  -22.5070  -12.6000 C.2     1  UNL1       -0.0250
     32  C         24.8180  -21.6350  -13.2930 C.2     1  UNL1        0.0110
     33  C         26.1300  -22.0110  -13.5640 C.2     1  UNL1        0.0180
     34  C         26.5700  -23.2660  -13.1600 C.3     1  UNL1        0.0870
     35  N         25.7460  -24.0770  -12.4810 N.pl3   1  UNL1       -0.3750
     36  C         24.4890  -23.7280  -12.1640 C.2     1  UNL1        0.0960
     37  H         26.0590  -25.0220  -12.2500 H       1  UNL1        0.1640
@<TRIPOS>BOND
     1    33    32    2
     2    33    34    1
     3    32    31    1
     4    34    35    1
     5    31    30    1
     6    31    36    2
     7    35    37    1
     8    35    36    1
     9    30     7    1
    10    22    21    1
    11    22    23    2
    12    21    20    2
    13    23    24    1
    14     7     1    1
    15     7     5   am
    16    20     1    1
    17    20    25    1
    18    24    25    2
    19    24    26    1
    20     1     2    1
    21    26    27    1
    22     6     5    2
    23     5     3    1
    24    29    28    2
    25     2     3    1
    26     2     8    1
    27    27    28    1
    28     3     4    2
    29     9     8    2
    30     8    10    1
    31    10    16    2
    32    10    11    1
    33    16    14    1
    34    11    12    2
    35    14    17    1
    36    14    13    2
    37    12    13    1
    38    17    18    1
    39    13    15    1
    40    15    19    1
    41    19    18    1
