@<TRIPOS>MOLECULE
64621_out_ligand_01.pdbqt
 30 35 0 0 0
SMALL
GASTEIGER

@<TRIPOS>ATOM
      1  C         18.8930  -22.4370   -7.2260 C.ar    1  UNL1        0.0750
      2  N         20.2440  -22.3710   -7.3100 N.ar    1  UNL1       -0.2390
      3  C         20.7480  -22.1790   -8.5500 C.ar    1  UNL1        0.1120
      4  S         22.4270  -22.0570   -8.7780 S.2     1  UNL1       -0.0630
      5  C         22.2540  -21.8250  -10.4730 C.ar    1  UNL1        0.0820
      6  C         23.2440  -21.6280  -11.4470 C.2     1  UNL1        0.1440
      7  N         22.8340  -21.4650  -12.7220 N.2     1  UNL1       -0.2230
      8  C         21.5240  -21.5030  -12.9970 C.2     1  UNL1        0.2360
      9  N         20.5190  -21.6820  -12.1380 N.2     1  UNL1       -0.2400
     10  C         20.9140  -21.8470  -10.8480 C.ar    1  UNL1        0.0920
     11  C         20.0330  -22.0570   -9.7350 C.ar    1  UNL1        0.0370
     12  C         18.6400  -22.1610   -9.6130 C.ar    1  UNL1       -0.0340
     13  C         18.0790  -22.3540   -8.3440 C.ar    1  UNL1       -0.0210
     14  C         16.5840  -22.4290   -8.4420 C.3     1  UNL1        0.0420
     15  C         16.3890  -22.7280   -9.9350 C.3     1  UNL1        0.0090
     16  C         17.5670  -22.0730  -10.6640 C.3     1  UNL1        0.0400
     17  N         24.6010  -21.6120  -11.1250 N.pl3   1  UNL1       -0.3690
     18  H         24.9200  -20.6770  -10.8910 H       1  UNL1        0.1610
     19  C         25.5060  -22.4140  -11.9430 C.3     1  UNL1        0.0830
     20  C         26.5400  -23.1010  -11.0260 C.3     1  UNL1        0.0250
     21  C         27.1210  -24.3930  -11.6090 C.3     1  UNL1        0.0020
     22  C         27.0700  -24.4100  -13.1290 C.3     1  UNL1        0.0000
     23  C         25.6380  -24.2840  -13.6500 C.3     1  UNL1        0.0020
     24  C         24.7230  -23.4700  -12.7310 C.3     1  UNL1        0.0250
     25  C         18.3740  -22.6250   -5.8610 C.2     1  UNL1       -0.0070
     26  C         18.4930  -21.5990   -4.9070 C.2     1  UNL1        0.0140
     27  C         18.0100  -21.7600   -3.6060 C.2     1  UNL1        0.0010
     28  C         17.3890  -22.9500   -3.2380 C.2     1  UNL1        0.0000
     29  C         17.2450  -23.9740   -4.1690 C.2     1  UNL1        0.0010
     30  C         17.7290  -23.8110   -5.4700 C.2     1  UNL1        0.0140
@<TRIPOS>BOND
     1    23    22    1
     2    23    24    1
     3    22    21    1
     4     8     7    2
     5     8     9    1
     6    24    19    1
     7     7     6    1
     8     9    10    2
     9    19    17    1
    10    19    20    1
    11    21    20    1
    12     6    17    1
    13     6     5    2
    14    17    18    1
    15    10     5   ar
    16    10    11   ar
    17    16    15    1
    18    16    12    1
    19     5     4   ar
    20    15    14    1
    21    11    12   ar
    22    11     3   ar
    23    12    13   ar
    24     4     3   ar
    25     3     2   ar
    26    14    13    1
    27    13     1   ar
    28     2     1   ar
    29     1    25    1
    30    25    30    2
    31    25    26    1
    32    30    29    1
    33    26    27    2
    34    29    28    2
    35    27    28    1
