@<TRIPOS>MOLECULE
64655_out_ligand_01.pdbqt
 36 40 0 0 0
SMALL
GASTEIGER

@<TRIPOS>ATOM
      1  C         21.1060  -22.6940  -10.7040 C.3     1  UNL1        0.1630
      2  C         21.4130  -22.9330   -9.2510 C.3     1  UNL1        0.0760
      3  C         22.5110  -21.9900   -8.9120 C.2     1  UNL1        0.2520
      4  O         22.8690  -21.5430   -7.8440 O.2     1  UNL1       -0.2820
      5  C         23.1310  -21.5810  -10.2550 C.2     1  UNL1        0.2950
      6  O         24.2150  -21.0520  -10.4010 O.2     1  UNL1       -0.2640
      7  N         22.2560  -21.9700  -11.2490 N.am    1  UNL1       -0.3280
      8  C         20.8290  -23.9270   -8.5390 C.2     1  UNL1        0.1950
      9  O         21.0850  -25.1640   -8.6330 O.2     1  UNL1       -0.2870
     10  C         19.8160  -23.4560   -7.5540 C.2     1  UNL1        0.0180
     11  C         19.8880  -22.1490   -7.0470 C.2     1  UNL1        0.0180
     12  C         18.9550  -21.6980   -6.1120 C.2     1  UNL1        0.0400
     13  C         17.9470  -22.5540   -5.6760 C.2     1  UNL1        0.1020
     14  C         17.8420  -23.8480   -6.2040 C.2     1  UNL1        0.1030
     15  O         17.0820  -22.0550   -4.7310 O.2     1  UNL1       -0.3460
     16  C         18.7780  -24.3000   -7.1340 C.2     1  UNL1        0.0550
     17  O         16.8510  -24.7300   -5.8450 O.2     1  UNL1       -0.3460
     18  C         15.7920  -24.0660   -5.1490 C.3     1  UNL1        0.2020
     19  C         16.3470  -23.1110   -4.1050 C.3     1  UNL1        0.2020
     20  C         19.8150  -21.9090  -10.9330 C.2     1  UNL1       -0.0280
     21  C         19.7980  -20.6210  -11.4970 C.2     1  UNL1        0.0100
     22  C         18.5890  -19.9630  -11.7460 C.2     1  UNL1        0.0030
     23  C         17.3810  -20.5800  -11.4300 C.2     1  UNL1        0.0370
     24  C         17.3900  -21.8350  -10.8300 C.2     1  UNL1        0.0690
     25  C         18.5900  -22.4960  -10.5780 C.2     1  UNL1        0.0460
     26  O         16.2090  -22.4700  -10.5580 O.2     1  UNL1       -0.3520
     27  C         16.1060  -22.7580   -9.1510 C.3     1  UNL1        0.1710
     28  C         15.4640  -24.1180   -8.9270 C.3     1  UNL1        0.0340
     29  C         22.7060  -22.1310  -12.6220 C.3     1  UNL1        0.1660
     30  C         24.1920  -22.4020  -12.7140 C.2     1  UNL1       -0.0380
     31  C         25.0340  -21.4830  -13.3460 C.2     1  UNL1        0.0250
     32  C         26.3230  -21.8670  -13.6910 C.3     1  UNL1        0.0880
     33  N         26.7570  -23.1000  -13.3890 N.pl3   1  UNL1       -0.3750
     34  C         26.0050  -23.9850  -12.7180 C.2     1  UNL1        0.0880
     35  H         27.6720  -23.3960  -13.7290 H       1  UNL1        0.1640
     36  C         24.7070  -23.6540  -12.3520 C.2     1  UNL1        0.0250
@<TRIPOS>BOND
     1    35    33    1
     2    32    33    1
     3    32    31    1
     4    33    34    1
     5    31    30    2
     6    34    36    2
     7    30    29    1
     8    30    36    1
     9    29     7    1
    10    22    21    1
    11    22    23    2
    12    21    20    2
    13    23    24    1
    14     7     1    1
    15     7     5   am
    16    20     1    1
    17    20    25    1
    18    24    25    2
    19    24    26    1
    20     1     2    1
    21    26    27    1
    22     6     5    2
    23     5     3    1
    24     2     3    1
    25     2     8    1
    26    27    28    1
    27     3     4    2
    28     9     8    2
    29     8    10    1
    30    10    16    2
    31    10    11    1
    32    16    14    1
    33    11    12    2
    34    14    17    1
    35    14    13    2
    36    12    13    1
    37    17    18    1
    38    13    15    1
    39    18    19    1
    40    15    19    1
