@<TRIPOS>MOLECULE
64698_out_ligand_01.pdbqt
 35 39 0 0 0
SMALL
GASTEIGER

@<TRIPOS>ATOM
      1  N         18.6960  -22.4570   -6.4530 N.am    1  UNL1       -0.2280
      2  C         19.4860  -21.3790   -5.9950 C.2     1  UNL1        0.3580
      3  O         19.0610  -20.5320   -5.2110 O.2     1  UNL1       -0.2440
      4  N         20.7680  -21.2310   -6.4640 N.am    1  UNL1       -0.1680
      5  C         21.0720  -21.7980   -7.5640 C.2     1  UNL1        0.1830
      6  C         20.2030  -22.6550   -8.3540 C.2     1  UNL1        0.0860
      7  C         20.3760  -23.0420   -9.6320 C.2     1  UNL1        0.0330
      8  C         18.9950  -23.1420   -7.6350 C.2     1  UNL1        0.2710
      9  O         18.3750  -24.1020   -8.0920 O.2     1  UNL1       -0.2660
     10  C         21.4570  -22.6490  -10.5360 C.2     1  UNL1       -0.0350
     11  C         21.2370  -21.7250  -11.5540 C.2     1  UNL1        0.0130
     12  C         22.2760  -21.3730  -12.4270 C.2     1  UNL1        0.0310
     13  C         23.5630  -21.9300  -12.3260 C.2     1  UNL1        0.0360
     14  C         23.7750  -22.8320  -11.2590 C.2     1  UNL1       -0.0310
     15  N         24.5930  -21.6100  -13.2100 N.pl3   1  UNL1       -0.3760
     16  C         22.7270  -23.2030  -10.3940 C.2     1  UNL1        0.0210
     17  C         25.1340  -23.4370  -11.0330 C.3     1  UNL1        0.0420
     18  C         26.2040  -22.4840  -11.5300 C.3     1  UNL1        0.0240
     19  C         25.9390  -22.1560  -12.9900 C.3     1  UNL1        0.1230
     20  C         24.3460  -20.7900  -14.4040 C.3     1  UNL1        0.1610
     21  C         24.5860  -21.5070  -15.7180 C.2     1  UNL1       -0.0400
     22  C         25.1430  -20.8210  -16.8070 C.2     1  UNL1        0.0090
     23  C         25.3700  -21.4770  -18.0180 C.2     1  UNL1        0.0010
     24  C         25.0410  -22.8240  -18.1520 C.2     1  UNL1        0.0000
     25  C         24.4840  -23.5170  -17.0780 C.2     1  UNL1        0.0010
     26  C         24.2580  -22.8640  -15.8660 C.2     1  UNL1        0.0090
     27  O         22.3200  -21.6310   -8.0080 O.2     1  UNL1       -0.3440
     28  H         22.4960  -20.6780   -8.0820 H       1  UNL1        0.2190
     29  C         17.4830  -22.7790   -5.7270 C.2     1  UNL1        0.0480
     30  C         17.4770  -23.6750   -4.6460 C.2     1  UNL1        0.0300
     31  C         16.2980  -23.9740   -3.9550 C.2     1  UNL1        0.0030
     32  C         15.0970  -23.3790   -4.3250 C.2     1  UNL1        0.0070
     33  C         15.0670  -22.4700   -5.3840 C.2     1  UNL1       -0.0600
     34  C         13.7740  -21.8390   -5.8140 C.3     1  UNL1        0.0480
     35  C         16.2540  -22.1880   -6.0810 C.2     1  UNL1        0.0370
@<TRIPOS>BOND
     1    24    23    2
     2    24    25    1
     3    23    22    1
     4    25    26    2
     5    22    21    2
     6    26    21    1
     7    21    20    1
     8    20    15    1
     9    15    19    1
    10    15    13    1
    11    19    18    1
    12    12    13    2
    13    12    11    1
    14    13    14    1
    15    11    10    2
    16    18    17    1
    17    14    17    1
    18    14    16    2
    19    10    16    1
    20    10     7    1
    21     7     6    2
    22     6     8    1
    23     6     5    1
    24     9     8    2
    25    28    27    1
    26    27     5    1
    27     8     1   am
    28     5     4    2
    29     4     2    1
    30     1     2   am
    31     1    29    1
    32    35    29    2
    33    35    33    1
    34     2     3    2
    35    34    33    1
    36    29    30    1
    37    33    32    2
    38    30    31    2
    39    32    31    1
