@<TRIPOS>MOLECULE
64708_out_ligand_01.pdbqt
 39 43 0 0 0
SMALL
GASTEIGER

@<TRIPOS>ATOM
      1  N         21.6510  -22.3370  -10.6350 N.am    1  UNL1       -0.3220
      2  C         21.9840  -22.1760   -9.3020 C.2     1  UNL1        0.2730
      3  O         23.0990  -21.9110   -8.8710 O.2     1  UNL1       -0.2660
      4  H         20.6630  -22.3890  -10.8380 H       1  UNL1        0.1690
      5  C         22.5130  -22.3270  -11.7500 C.2     1  UNL1        0.0350
      6  C         23.5560  -23.2650  -11.7550 C.2     1  UNL1        0.0310
      7  C         24.4650  -23.3170  -12.8170 C.2     1  UNL1        0.0270
      8  C         24.3340  -22.4220  -13.8770 C.2     1  UNL1        0.0800
      9  C         23.2960  -21.4890  -13.8910 C.2     1  UNL1        0.0270
     10  C         22.3920  -21.4400  -12.8240 C.2     1  UNL1        0.0310
     11  S         25.4620  -22.4890  -15.2470 S.O2    1  UNL1        0.2760
     12  O         25.1040  -21.3910  -16.1240 O.2     1  UNL1       -0.2000
     13  O         25.5090  -23.8420  -15.7620 O.2     1  UNL1       -0.2000
     14  N         26.9270  -22.0820  -14.5790 N.pl3   1  UNL1       -0.1090
     15  H         27.2620  -22.7450  -13.8930 H       1  UNL1        0.1980
     16  C         27.1110  -20.7580  -14.2020 C.cat   1  UNL1        0.7360
     17  N         27.0650  -20.4410  -12.9080 N.2     1  UNL1       -0.0670
     18  C         27.0960  -19.1250  -12.6210 C.2     1  UNL1        0.0510
     19  C         27.1210  -18.1550  -13.6060 C.2     1  UNL1        0.0540
     20  C         27.0800  -18.7370  -11.1740 C.3     1  UNL1        0.0710
     21  C         27.1130  -18.5990  -14.9160 C.2     1  UNL1        0.0510
     22  C         27.1210  -17.6140  -16.0460 C.3     1  UNL1        0.0710
     23  N         27.0850  -19.9090  -15.2320 N.2     1  UNL1       -0.0670
     24  C         20.8360  -22.3020   -8.4190 C.2     1  UNL1        0.1050
     25  C         20.6720  -21.6890   -7.1830 C.2     1  UNL1        0.0560
     26  C         19.4050  -22.0560   -6.6850 C.2     1  UNL1        0.0810
     27  C         18.6780  -21.7150   -5.4850 C.2     1  UNL1        0.2670
     28  C         18.8310  -22.9120   -7.5890 C.2     1  UNL1        0.1480
     29  O         19.1410  -20.9440   -4.6470 O.2     1  UNL1       -0.2670
     30  N         17.4170  -22.3430   -5.3980 N.am    1  UNL1       -0.2720
     31  C         16.6370  -22.0860   -4.2760 C.3     1  UNL1        0.1020
     32  C         16.9530  -23.2060   -6.4190 C.2     1  UNL1        0.1450
     33  C         15.4290  -22.6320   -4.1100 C.2     1  UNL1        0.0180
     34  C         14.8940  -23.5150   -5.1080 C.2     1  UNL1        0.0120
     35  C         15.5870  -23.8120   -6.2180 C.2     1  UNL1       -0.0150
     36  C         15.0720  -24.7260   -7.2850 C.3     1  UNL1        0.0520
     37  N         17.6210  -23.5010   -7.5050 N.pl3   1  UNL1       -0.2110
     38  N         19.7210  -23.1030   -8.6160 N.pl3   1  UNL1       -0.3310
     39  C         19.5330  -24.0630   -9.6830 C.3     1  UNL1        0.1580
@<TRIPOS>BOND
     1    12    11    2
     2    22    21    1
     3    13    11    2
     4    11    14    1
     5    11     8    1
     6    23    21    2
     7    23    16    1
     8    21    19    1
     9    14    16    1
    10    14    15    1
    11    16    17    2
    12     9     8    2
    13     9    10    1
    14     8     7    1
    15    19    18    2
    16    17    18    1
    17    10     5    2
    18     7     6    2
    19    18    20    1
    20     6     5    1
    21     5     1    1
    22     4     1    1
    23     1     2   am
    24    39    38    1
    25     2     3    2
    26     2    24    1
    27    38    24    1
    28    38    28    1
    29    24    25    2
    30    28    37    1
    31    28    26    2
    32    37    32    1
    33    36    35    1
    34    25    26    1
    35    26    27    1
    36    32    35    2
    37    32    30    1
    38    35    34    1
    39    27    30   am
    40    27    29    2
    41    30    31    1
    42    34    33    2
    43    31    33    1
