@<TRIPOS>MOLECULE
64729_out_ligand_01.pdbqt
 36 41 0 0 0
SMALL
GASTEIGER

@<TRIPOS>ATOM
      1  S         22.2390  -23.6390   -9.0250 S.3     1  UNL1       -0.0800
      2  C         22.2820  -22.7950  -10.5300 C.ar    1  UNL1        0.2060
      3  N         23.3860  -22.6730  -11.3390 N.ar    1  UNL1       -0.2340
      4  C         22.9660  -21.9050  -12.4070 C.ar    1  UNL1        0.1970
      5  N         21.6850  -21.6190  -12.2510 N.ar    1  UNL1       -0.1250
      6  N         21.2520  -22.1940  -11.0790 N.ar    1  UNL1       -0.1210
      7  N         24.7090  -23.1830  -11.0800 N.pl3   1  UNL1       -0.2390
      8  H         24.6410  -24.1640  -10.8130 H       1  UNL1        0.1430
      9  H         25.1330  -22.6870  -10.3000 H       1  UNL1        0.1430
     10  C         23.7240  -21.4180  -13.5100 C.ar    1  UNL1        0.1070
     11  N         23.2400  -21.5770  -14.7990 N.ar    1  UNL1       -0.2740
     12  N         24.0340  -21.0530  -15.7670 N.ar    1  UNL1       -0.1780
     13  H         22.3670  -22.0240  -15.0680 H       1  UNL1        0.1890
     14  C         25.0510  -20.5870  -15.0590 C.ar    1  UNL1        0.0630
     15  C         24.9250  -20.7810  -13.6800 C.ar    1  UNL1        0.0000
     16  C         26.2970  -19.9060  -15.4480 C.3     1  UNL1        0.0620
     17  C         26.0990  -20.2510  -12.9610 C.3     1  UNL1        0.0430
     18  C         27.1210  -20.0020  -14.1240 C.3     1  UNL1        0.0110
     19  C         20.4950  -23.5820   -8.5450 C.3     1  UNL1        0.1860
     20  C         20.1140  -22.4710   -7.5570 C.2     1  UNL1        0.2380
     21  O         21.0130  -21.8550   -6.9760 O.2     1  UNL1       -0.2720
     22  N         18.7390  -22.3870   -7.2450 N.am    1  UNL1       -0.2790
     23  C         18.2830  -22.1480   -5.8930 C.2     1  UNL1        0.0590
     24  C         17.7280  -22.4650   -8.2690 C.2     1  UNL1        0.0610
     25  C         19.0690  -21.4420   -4.9650 C.2     1  UNL1        0.0310
     26  C         17.0430  -22.6390   -5.4360 C.2     1  UNL1        0.0330
     27  C         18.6450  -21.2230   -3.6490 C.2     1  UNL1        0.0020
     28  C         17.4210  -21.7130   -3.2210 C.2     1  UNL1        0.0020
     29  C         16.6220  -22.4220   -4.1130 C.2     1  UNL1        0.0210
     30  S         15.9820  -23.6430   -6.4530 S.3     1  UNL1       -0.0860
     31  C         16.4520  -23.0010   -8.0350 C.2     1  UNL1        0.0330
     32  C         15.5020  -23.0630   -9.0690 C.2     1  UNL1        0.0230
     33  C         15.7970  -22.5590  -10.3340 C.2     1  UNL1        0.0250
     34  C         17.0380  -21.9800  -10.5610 C.2     1  UNL1        0.0360
     35 CL         17.3980  -21.3150  -12.1060 Cl      1  UNL1       -0.0840
     36  C         17.9890  -21.9210   -9.5410 C.2     1  UNL1        0.0550
@<TRIPOS>BOND
     1    12    14   ar
     2    12    11   ar
     3    16    14    1
     4    16    18    1
     5    13    11    1
     6    14    15   ar
     7    11    10   ar
     8    18    17    1
     9    15    10   ar
    10    15    17    1
    11    10     4    1
    12     4     5   ar
    13     4     3   ar
    14     5     6   ar
    15    35    34    1
    16     3     7    1
    17     3     2   ar
    18     7     8    1
    19     7     9    1
    20     6     2   ar
    21    34    33    2
    22    34    36    1
    23     2     1    1
    24    33    32    1
    25    36    24    2
    26    32    31    2
    27     1    19    1
    28    19    20    1
    29    24    31    1
    30    24    22    1
    31    31    30    1
    32    20    22   am
    33    20    21    2
    34    22    23    1
    35    30    26    1
    36    23    26    2
    37    23    25    1
    38    26    29    1
    39    25    27    2
    40    29    28    2
    41    27    28    1
