@<TRIPOS>MOLECULE
6472_out_ligand_01.pdbqt
 37 41 0 0 0
SMALL
GASTEIGER

@<TRIPOS>ATOM
      1  C         23.3390  -22.3540  -11.8830 C.2     1  UNL1        0.0800
      2  C         22.1800  -21.7730  -12.3980 C.2     1  UNL1        0.0270
      3  C         21.0590  -21.6320  -11.5750 C.2     1  UNL1        0.0310
      4  C         21.0830  -22.0750  -10.2440 C.2     1  UNL1        0.0340
      5  C         22.2490  -22.6670   -9.7480 C.2     1  UNL1        0.0310
      6  C         23.3750  -22.8120  -10.5640 C.2     1  UNL1        0.0270
      7  N         19.9080  -21.8950   -9.4910 N.am    1  UNL1       -0.3260
      8  C         19.5360  -22.5370   -8.3190 C.2     1  UNL1        0.2350
      9  O         20.1940  -23.3890   -7.7220 O.2     1  UNL1       -0.2720
     10  H         19.2510  -21.2100   -9.8510 H       1  UNL1        0.1690
     11  C         18.1660  -22.0940   -7.7710 C.2     1  UNL1        0.1490
     12  C         17.0620  -23.0080   -8.2540 C.2     1  UNL1       -0.0070
     13  C         16.7390  -23.0830   -9.6190 C.3     1  UNL1        0.0110
     14  C         16.3660  -23.8070   -7.3450 C.2     1  UNL1        0.0830
     15  C         15.7410  -23.9510  -10.0610 C.2     1  UNL1        0.0010
     16  C         15.0580  -24.7510   -9.1480 C.2     1  UNL1        0.0030
     17  C         15.3700  -24.6790   -7.7900 C.2     1  UNL1        0.0380
     18  O         16.6070  -23.8040   -5.9940 O.2     1  UNL1       -0.3100
     19  C         17.4270  -22.8310   -5.4760 C.2     1  UNL1        0.0830
     20  C         17.4750  -22.7440   -4.0840 C.2     1  UNL1        0.0380
     21  C         18.1910  -21.9670   -6.2640 C.2     1  UNL1       -0.0070
     22  C         18.2810  -21.7850   -3.4690 C.2     1  UNL1        0.0030
     23  C         19.0400  -20.9140   -4.2480 C.2     1  UNL1        0.0010
     24  C         18.9980  -21.0040   -5.6390 C.2     1  UNL1        0.0110
     25  S         24.7650  -22.5730  -12.9190 S.O2    1  UNL1        0.2760
     26  O         25.8730  -21.9450  -12.2270 O.2     1  UNL1       -0.2000
     27  O         24.8570  -23.9620  -13.3200 O.2     1  UNL1       -0.2000
     28  N         24.4500  -21.6150  -14.2370 N.pl3   1  UNL1       -0.1090
     29  H         24.8320  -20.6810  -14.1680 H       1  UNL1        0.1980
     30  C         24.6040  -22.1820  -15.4960 C.cat   1  UNL1        0.7360
     31  N         23.5840  -22.8420  -16.0420 N.2     1  UNL1       -0.0670
     32  C         23.7470  -23.2320  -17.3200 C.2     1  UNL1        0.0510
     33  C         24.8840  -22.9290  -18.0450 C.2     1  UNL1        0.0540
     34  C         22.6310  -24.0100  -17.9490 C.3     1  UNL1        0.0710
     35  C         25.8570  -22.1910  -17.3950 C.2     1  UNL1        0.0510
     36  C         27.1160  -21.8040  -18.1090 C.3     1  UNL1        0.0710
     37  N         25.7210  -21.7890  -16.1160 N.2     1  UNL1       -0.0670
@<TRIPOS>BOND
     1    36    35    1
     2    33    35    1
     3    33    32    2
     4    34    32    1
     5    35    37    2
     6    32    31    1
     7    37    30    1
     8    31    30    2
     9    30    28    1
    10    28    29    1
    11    28    25    1
    12    27    25    2
    13    25    26    2
    14    25     1    1
    15     2     1    2
    16     2     3    1
    17     1     6    1
    18     3     4    2
    19     6     5    2
    20     4     5    1
    21     4     7    1
    22    15    13    1
    23    15    16    2
    24    10     7    1
    25    13    12    1
    26     7     8   am
    27    16    17    1
    28     8    11    1
    29     8     9    2
    30    12    11    2
    31    12    14    1
    32    17    14    2
    33    11    21    1
    34    14    18    1
    35    21    24    1
    36    21    19    2
    37    18    19    1
    38    24    23    2
    39    19    20    1
    40    23    22    1
    41    20    22    2
