@<TRIPOS>MOLECULE
64735_out_ligand_01.pdbqt
 29 33 0 0 0
SMALL
GASTEIGER

@<TRIPOS>ATOM
      1  C         24.5920  -22.2350  -12.3550 C.2     1  UNL1        0.1440
      2  N         24.4220  -21.6800  -13.5740 N.2     1  UNL1       -0.2230
      3  C         23.2020  -21.2570  -13.9310 C.2     1  UNL1        0.2360
      4  N         22.0780  -21.3240  -13.2160 N.2     1  UNL1       -0.2400
      5  C         22.2320  -21.8840  -11.9890 C.ar    1  UNL1        0.0920
      6  C         23.4630  -22.3440  -11.5310 C.ar    1  UNL1        0.0820
      7  S         23.3320  -22.9950   -9.9440 S.2     1  UNL1       -0.0630
      8  C         21.6650  -22.6660   -9.8700 C.ar    1  UNL1        0.1120
      9  N         20.9630  -22.9750   -8.7580 N.ar    1  UNL1       -0.2390
     10  C         19.6430  -22.6770   -8.7940 C.ar    1  UNL1        0.0750
     11  C         19.0450  -22.0890   -9.8980 C.ar    1  UNL1       -0.0210
     12  C         19.8110  -21.7770  -11.0280 C.ar    1  UNL1       -0.0340
     13  C         21.1810  -22.0740  -11.0290 C.ar    1  UNL1        0.0370
     14  C         18.9720  -21.0870  -12.0680 C.3     1  UNL1        0.0400
     15  C         17.5590  -21.4500  -11.6020 C.3     1  UNL1        0.0090
     16  C         17.6330  -21.6160  -10.0780 C.3     1  UNL1        0.0420
     17  N         25.8530  -22.6660  -11.9430 N.pl3   1  UNL1       -0.3730
     18  H         26.1000  -23.5660  -12.3420 H       1  UNL1        0.1610
     19  C         26.8950  -21.6510  -11.9030 C.3     1  UNL1        0.1230
     20  C         26.4310  -20.4300  -11.1110 C.3     1  UNL1        0.0450
     21  C         26.8510  -19.1180  -11.7600 C.3     1  UNL1        0.1650
     22  O         26.6920  -18.0470  -10.8380 O.3     1  UNL1       -0.4010
     23  H         27.0780  -17.2480  -11.2380 H       1  UNL1        0.2090
     24  C         18.9110  -23.0030   -7.5620 C.2     1  UNL1       -0.0070
     25  C         18.8500  -22.0790   -6.5050 C.2     1  UNL1        0.0140
     26  C         18.1570  -22.3750   -5.3270 C.2     1  UNL1        0.0010
     27  C         17.5200  -23.6050   -5.1850 C.2     1  UNL1        0.0000
     28  C         17.5810  -24.5420   -6.2140 C.2     1  UNL1        0.0010
     29  C         18.2750  -24.2450   -7.3900 C.2     1  UNL1        0.0140
@<TRIPOS>BOND
     1     3     2    1
     2     3     4    2
     3     2     1    2
     4     4     5    1
     5     1    17    1
     6     1     6    1
     7    18    17    1
     8    14    15    1
     9    14    12    1
    10     5     6   ar
    11     5    13   ar
    12    17    19    1
    13    19    20    1
    14    21    20    1
    15    21    22    1
    16    15    16    1
    17     6     7   ar
    18    23    22    1
    19    13    12   ar
    20    13     8   ar
    21    12    11   ar
    22    16    11    1
    23     7     8   ar
    24    11    10   ar
    25     8     9   ar
    26    10     9   ar
    27    10    24    1
    28    24    29    2
    29    24    25    1
    30    29    28    1
    31    25    26    2
    32    28    27    2
    33    26    27    1
