@<TRIPOS>MOLECULE
64739_out_ligand_01.pdbqt
 28 32 0 0 0
SMALL
GASTEIGER

@<TRIPOS>ATOM
      1  C         24.5040  -22.2740  -12.3330 C.2     1  UNL1        0.1240
      2  N         24.3320  -21.7120  -13.5500 N.2     1  UNL1       -0.2290
      3  C         23.1130  -21.2800  -13.8990 C.2     1  UNL1        0.2350
      4  N         21.9920  -21.3380  -13.1790 N.2     1  UNL1       -0.2400
      5  C         22.1490  -21.9020  -11.9530 C.ar    1  UNL1        0.0920
      6  C         23.3790  -22.3740  -11.5030 C.ar    1  UNL1        0.0770
      7  S         23.2490  -23.0300   -9.9180 S.2     1  UNL1       -0.0640
      8  C         21.5880  -22.6850   -9.8320 C.ar    1  UNL1        0.1120
      9  N         20.8880  -22.9980   -8.7200 N.ar    1  UNL1       -0.2390
     10  C         19.5740  -22.6670   -8.7360 C.ar    1  UNL1        0.0750
     11  C         18.9730  -22.0820   -9.8410 C.ar    1  UNL1       -0.0210
     12  C         19.7340  -21.7820  -10.9800 C.ar    1  UNL1       -0.0340
     13  C         21.1030  -22.0820  -10.9860 C.ar    1  UNL1        0.0370
     14  C         18.8800  -21.1310  -12.0330 C.3     1  UNL1        0.0400
     15  C         17.4790  -21.5430  -11.5730 C.3     1  UNL1        0.0090
     16  C         17.5460  -21.6720  -10.0450 C.3     1  UNL1        0.0420
     17  N         25.7650  -22.7150  -11.9280 N.pl3   1  UNL1       -0.2760
     18  H         26.0010  -23.6120  -12.3440 H       1  UNL1        0.1290
     19  C         26.8240  -21.7170  -11.9480 C.3     1  UNL1        0.0940
     20  C         26.4170  -20.5380  -11.0610 C.3     1  UNL1        0.0140
     21  C         26.8730  -19.1830  -11.6060 C.3     1  UNL1       -0.0030
     22  C         26.9110  -19.1220  -13.1240 C.3     1  UNL1        0.0050
     23  C         18.8440  -22.9970   -7.5020 C.2     1  UNL1       -0.0070
     24  C         18.2190  -24.2430   -7.3220 C.2     1  UNL1        0.0140
     25  C         17.5330  -24.5420   -6.1410 C.2     1  UNL1        0.0010
     26  C         17.4530  -23.5970   -5.1210 C.2     1  UNL1        0.0000
     27  C         18.0520  -22.3510   -5.2830 C.2     1  UNL1        0.0010
     28  C         18.7360  -22.0540   -6.4650 C.2     1  UNL1        0.0140
@<TRIPOS>BOND
     1     3     2    1
     2     3     4    2
     3     2     1    2
     4     4     5    1
     5    22    21    1
     6    18    17    1
     7     1    17    1
     8     1     6    1
     9    14    15    1
    10    14    12    1
    11     5     6   ar
    12     5    13   ar
    13    19    17    1
    14    19    20    1
    15    21    20    1
    16    15    16    1
    17     6     7   ar
    18    13    12   ar
    19    13     8   ar
    20    12    11   ar
    21    16    11    1
    22     7     8   ar
    23    11    10   ar
    24     8     9   ar
    25    10     9   ar
    26    10    23    1
    27    23    24    2
    28    23    28    1
    29    24    25    1
    30    28    27    2
    31    25    26    2
    32    27    26    1
