@<TRIPOS>MOLECULE
64746_out_ligand_01.pdbqt
 31 34 0 0 0
SMALL
GASTEIGER

@<TRIPOS>ATOM
      1  C         22.9130  -21.5980  -13.3800 C.2     1  UNL1        0.0770
      2  C         23.8970  -22.4310  -12.8020 C.2     1  UNL1        0.0380
      3  C         23.6740  -23.0410  -11.5630 C.2     1  UNL1        0.0210
      4  C         22.4690  -22.7830  -10.9350 C.2     1  UNL1        0.0480
      5  C         21.5210  -21.9580  -11.4910 C.2     1  UNL1        0.0510
      6  C         21.7120  -21.3400  -12.7120 C.2     1  UNL1        0.0550
      7  C         20.3880  -21.9020  -10.5740 C.2     1  UNL1        0.2660
      8  O         19.4040  -21.2360  -10.8440 O.2     1  UNL1       -0.2670
      9  N         20.6980  -22.7000   -9.4870 N.am    1  UNL1       -0.2440
     10  C         21.9490  -23.2620   -9.6600 C.2     1  UNL1        0.2660
     11  O         22.6090  -24.0190   -8.9700 O.2     1  UNL1       -0.2670
     12  C         19.8470  -22.9150   -8.3550 C.2     1  UNL1        0.0460
     13  C         18.9880  -24.0250   -8.2770 C.2     1  UNL1        0.0310
     14  C         18.1540  -24.2430   -7.1700 C.2     1  UNL1        0.0190
     15  C         18.1600  -23.3520   -6.0970 C.2     1  UNL1        0.0320
     16  C         18.9930  -22.2340   -6.1590 C.2     1  UNL1        0.0190
     17  C         19.8240  -22.0240   -7.2700 C.2     1  UNL1        0.0310
     18  C         17.2970  -23.5330   -4.9010 C.2     1  UNL1        0.2490
     19  N         16.2170  -22.7050   -4.7690 N.am    1  UNL1       -0.3660
     20  H         15.8450  -22.1750   -5.5440 H       1  UNL1        0.1590
     21  H         15.5790  -22.9330   -4.0170 H       1  UNL1        0.1590
     22  O         17.5150  -24.4110   -4.0770 O.2     1  UNL1       -0.2680
     23  O         23.0810  -20.9520  -14.5870 O.2     1  UNL1       -0.3080
     24  C         24.3680  -20.8440  -15.0690 C.2     1  UNL1        0.1090
     25  C         25.1490  -19.8140  -14.5370 C.2     1  UNL1        0.0400
     26  C         26.4500  -19.6260  -14.9920 C.2     1  UNL1        0.0030
     27  C         26.9610  -20.4570  -15.9880 C.2     1  UNL1        0.0030
     28  C         26.1700  -21.4710  -16.5410 C.2     1  UNL1        0.0390
     29  C         24.8590  -21.6690  -16.0960 C.2     1  UNL1        0.1020
     30  O         23.9980  -22.6120  -16.5930 O.2     1  UNL1       -0.3530
     31  C         24.3350  -23.2190  -17.8330 C.3     1  UNL1        0.2100
@<TRIPOS>BOND
     1    31    30    1
     2    30    29    1
     3    28    29    1
     4    28    27    2
     5    29    24    2
     6    27    26    1
     7    24    23    1
     8    24    25    1
     9    26    25    2
    10    23     1    1
    11     1     2    2
    12     1     6    1
    13     2     3    1
    14     6     5    2
    15     3     4    2
    16     5     4    1
    17     5     7    1
    18     4    10    1
    19     8     7    2
    20     7     9   am
    21    10     9   am
    22    10    11    2
    23     9    12    1
    24    12    13    2
    25    12    17    1
    26    13    14    1
    27    17    16    2
    28    14    15    2
    29    16    15    1
    30    15    18    1
    31    20    19    1
    32    18    19   am
    33    18    22    2
    34    19    21    1
