@<TRIPOS>MOLECULE
64748_out_ligand_01.pdbqt
 34 36 0 0 0
SMALL
GASTEIGER

@<TRIPOS>ATOM
      1  C         20.9820  -21.6670  -12.1390 C.2     1  UNL1        0.0750
      2  C         21.3780  -21.0860  -13.3250 C.2     1  UNL1        0.0840
      3  S         23.0670  -21.2600  -13.5340 S.3     1  UNL1       -0.0780
      4  C         23.1750  -22.1350  -12.0300 C.2     1  UNL1        0.1200
      5  C         24.4360  -22.6290  -11.5490 C.3     1  UNL1        0.0950
      6  C         25.5030  -22.8960  -12.4580 C.1     1  UNL1        0.1030
      7  N         26.3490  -23.0930  -13.2290 N.1     1  UNL1       -0.1910
      8  N         22.0070  -22.2570  -11.4180 N.2     1  UNL1       -0.2390
      9  C         24.5460  -22.8980  -10.2300 C.3     1  UNL1        0.1140
     10  N         23.7970  -23.6410   -9.3410 N.pl3   1  UNL1       -0.3640
     11  H         24.1040  -24.6040   -9.2110 H       1  UNL1        0.1650
     12  C         22.5290  -23.3810   -8.7860 C.2     1  UNL1        0.0320
     13  C         22.2120  -22.1930   -8.1110 C.2     1  UNL1        0.0310
     14  C         20.9700  -22.0250   -7.4880 C.2     1  UNL1        0.0270
     15  C         20.0310  -23.0570   -7.5360 C.2     1  UNL1        0.0800
     16  C         20.3060  -24.2250   -8.2460 C.2     1  UNL1        0.0270
     17  C         21.5530  -24.3850   -8.8560 C.2     1  UNL1        0.0310
     18  S         18.4730  -22.8770   -6.7010 S.O2    1  UNL1        0.2660
     19  O         17.6380  -22.0120   -7.5140 O.2     1  UNL1       -0.2000
     20  O         18.0080  -24.1810   -6.2880 O.2     1  UNL1       -0.2000
     21  N         18.8760  -21.9650   -5.3670 N.am    1  UNL1       -0.2320
     22  C         18.0110  -21.6470   -4.3420 C.2     1  UNL1        0.3270
     23  N         18.5730  -20.8860   -3.3730 N.am    1  UNL1       -0.3510
     24  O         16.8500  -22.0120   -4.2670 O.2     1  UNL1       -0.2470
     25  H         19.5720  -20.7680   -3.2900 H       1  UNL1        0.1600
     26  H         18.0010  -20.7310   -2.5530 H       1  UNL1        0.1600
     27  H         19.8200  -21.6120   -5.3920 H       1  UNL1        0.1830
     28  C         19.6030  -21.7040  -11.6560 C.2     1  UNL1       -0.0070
     29  C         19.1130  -22.8750  -11.0620 C.2     1  UNL1        0.0140
     30  C         17.7940  -22.9470  -10.5960 C.2     1  UNL1        0.0070
     31  C         16.9410  -21.8450  -10.7160 C.2     1  UNL1       -0.0620
     32  C         15.5370  -21.9200  -10.1940 C.3     1  UNL1        0.0480
     33  C         17.4320  -20.6660  -11.2820 C.2     1  UNL1        0.0070
     34  C         18.7510  -20.5970  -11.7520 C.2     1  UNL1        0.0140
@<TRIPOS>BOND
     1     3     2    1
     2     3     4    1
     3     2     1    2
     4     7     6    3
     5     6     5    1
     6     1    28    1
     7     1     8    1
     8     4     5    1
     9     4     8    2
    10    34    28    2
    11    34    33    1
    12    28    29    1
    13     5     9    1
    14    33    31    2
    15    29    30    2
    16    31    30    1
    17    31    32    1
    18     9    10    1
    19    10    11    1
    20    10    12    1
    21    17    12    2
    22    17    16    1
    23    12    13    1
    24    16    15    2
    25    13    14    2
    26    15    14    1
    27    15    18    1
    28    19    18    2
    29    18    20    2
    30    18    21    1
    31    27    21    1
    32    21    22   am
    33    22    24    2
    34    22    23   am
    35    23    25    1
    36    23    26    1
