@<TRIPOS>MOLECULE
6476_out_ligand_01.pdbqt
 34 37 0 0 0
SMALL
GASTEIGER

@<TRIPOS>ATOM
      1  C         21.4690  -22.9120  -10.1910 C.2     1  UNL1        0.0340
      2  C         21.2110  -22.1550  -11.3440 C.2     1  UNL1        0.0310
      3  C         22.2410  -21.8270  -12.2300 C.2     1  UNL1        0.0270
      4  C         23.5390  -22.2640  -11.9650 C.2     1  UNL1        0.0800
      5  C         23.8140  -23.0040  -10.8140 C.2     1  UNL1        0.0270
      6  C         22.7770  -23.3300   -9.9320 C.2     1  UNL1        0.0310
      7  N         20.3700  -23.1900   -9.3540 N.am    1  UNL1       -0.3260
      8  C         20.1950  -22.8280   -8.0240 C.2     1  UNL1        0.2350
      9  O         21.0100  -22.1980   -7.3510 O.2     1  UNL1       -0.2720
     10  H         19.6370  -23.7530   -9.7690 H       1  UNL1        0.1690
     11  C         18.8320  -23.2320   -7.4130 C.3     1  UNL1        0.1440
     12  C         17.6580  -23.0630   -8.3840 C.2     1  UNL1       -0.0410
     13  C         17.7030  -22.0220   -9.3300 C.2     1  UNL1        0.0080
     14  C         16.6380  -21.8060  -10.2050 C.2     1  UNL1        0.0010
     15  C         15.5120  -22.6230  -10.1500 C.2     1  UNL1        0.0000
     16  C         15.4480  -23.6560   -9.2190 C.2     1  UNL1        0.0010
     17  C         16.5110  -23.8750   -8.3390 C.2     1  UNL1        0.0080
     18  C         18.5960  -22.6480   -6.0180 C.2     1  UNL1       -0.0410
     19  C         17.9600  -23.4430   -5.0460 C.2     1  UNL1        0.0080
     20  C         17.7010  -22.9440   -3.7690 C.2     1  UNL1        0.0010
     21  C         18.0690  -21.6410   -3.4430 C.2     1  UNL1        0.0000
     22  C         18.6960  -20.8380   -4.3930 C.2     1  UNL1        0.0010
     23  C         18.9560  -21.3350   -5.6730 C.2     1  UNL1        0.0080
     24  S         24.8680  -21.8290  -13.0590 S.O2    1  UNL1        0.2760
     25  O         25.5550  -23.0650  -13.3790 O.2     1  UNL1       -0.2000
     26  O         25.6060  -20.7160  -12.4990 O.2     1  UNL1       -0.2000
     27  N         24.0970  -21.3620  -14.4520 N.pl3   1  UNL1       -0.1090
     28  H         23.0890  -21.4610  -14.4180 H       1  UNL1        0.1980
     29  C         24.6520  -21.7590  -15.6600 C.cat   1  UNL1        0.7350
     30  N         23.9570  -22.7280  -16.2650 N.2     1  UNL1       -0.0740
     31  C         24.3720  -23.0480  -17.5050 C.2     1  UNL1        0.1380
     32  C         25.4070  -22.4090  -18.1470 C.2     1  UNL1        0.0400
     33  C         26.0080  -21.3930  -17.4390 C.2     1  UNL1        0.1380
     34  N         25.6330  -21.0330  -16.1980 N.2     1  UNL1       -0.0740
@<TRIPOS>BOND
     1    32    31    2
     2    32    33    1
     3    31    30    1
     4    33    34    2
     5    30    29    2
     6    34    29    1
     7    29    27    1
     8    27    28    1
     9    27    24    1
    10    25    24    2
    11    24    26    2
    12    24     4    1
    13     3     4    2
    14     3     2    1
    15     4     5    1
    16     2     1    2
    17     5     6    2
    18    14    15    2
    19    14    13    1
    20     1     6    1
    21     1     7    1
    22    15    16    1
    23    10     7    1
    24     7     8   am
    25    13    12    2
    26    16    17    2
    27    12    17    1
    28    12    11    1
    29     8    11    1
    30     8     9    2
    31    11    18    1
    32    18    23    2
    33    18    19    1
    34    23    22    1
    35    19    20    2
    36    22    21    2
    37    20    21    1
