@<TRIPOS>MOLECULE
64764_out_ligand_01.pdbqt
 30 32 0 0 0
SMALL
GASTEIGER

@<TRIPOS>ATOM
      1  C         24.8340  -22.6220  -11.1550 C.2     1  UNL1        0.1790
      2  S         26.0100  -23.4720  -10.3200 S.2     1  UNL1       -0.0400
      3  N         23.6010  -22.5270  -10.5850 N.am    1  UNL1       -0.2990
      4  C         22.3770  -22.6410  -11.2340 C.2     1  UNL1        0.2580
      5  O         22.1170  -22.4540  -12.4120 O.2     1  UNL1       -0.2670
      6  H         23.6050  -22.9010   -9.6440 H       1  UNL1        0.1710
      7  N         25.1220  -22.1110  -12.3700 N.am    1  UNL1       -0.3320
      8  H         25.3650  -21.1150  -12.3610 H       1  UNL1        0.1680
      9  C         25.0630  -22.6810  -13.6670 C.2     1  UNL1        0.0500
     10  C         25.4020  -24.0250  -13.8850 C.2     1  UNL1        0.0300
     11  C         25.3520  -24.5830  -15.1640 C.2     1  UNL1        0.0020
     12  C         24.9590  -23.8060  -16.2460 C.2     1  UNL1        0.0010
     13  C         24.5780  -22.4790  -16.0460 C.2     1  UNL1        0.0190
     14  C         24.5910  -21.9100  -14.7580 C.2     1  UNL1        0.0580
     15  C         24.1150  -20.5020  -14.5450 C.2     1  UNL1        0.2510
     16  N         22.7680  -20.2500  -14.5370 N.am    1  UNL1       -0.3660
     17  H         22.4990  -19.3020  -14.3070 H       1  UNL1        0.1590
     18  H         22.0560  -20.9580  -14.4750 H       1  UNL1        0.1590
     19  O         24.8890  -19.5730  -14.3280 O.2     1  UNL1       -0.2680
     20  C         21.2720  -22.9890  -10.3160 C.2     1  UNL1        0.0430
     21  C         21.5760  -23.8850   -9.2870 C.2     1  UNL1        0.0180
     22  C         20.5710  -24.2900   -8.4230 C.2     1  UNL1        0.0020
     23  C         19.2750  -23.7970   -8.5900 C.2     1  UNL1        0.0130
     24  C         18.9400  -22.8750   -9.6170 C.2     1  UNL1       -0.0070
     25  C         17.6350  -22.3470   -9.8110 C.2     1  UNL1        0.0220
     26  C         19.9710  -22.4560  -10.4980 C.2     1  UNL1       -0.0090
     27 BR         16.1570  -22.8350   -8.7080 Br      1  UNL1       -0.0500
     28  C         17.3610  -21.4300  -10.8320 C.2     1  UNL1        0.0200
     29  C         18.3770  -21.0150  -11.6810 C.2     1  UNL1        0.0020
     30  C         19.6640  -21.5200  -11.5150 C.2     1  UNL1        0.0130
@<TRIPOS>BOND
     1    12    13    2
     2    12    11    1
     3    13    14    1
     4    11    10    2
     5    14    15    1
     6    14     9    2
     7    15    16   am
     8    15    19    2
     9    16    18    1
    10    16    17    1
    11    10     9    1
    12     9     7    1
    13     5     4    2
    14     7     8    1
    15     7     1    1
    16    29    30    2
    17    29    28    1
    18    30    26    1
    19     4     3   am
    20     4    20    1
    21     1     3    1
    22     1     2    2
    23    28    25    2
    24     3     6    1
    25    26    20    2
    26    26    24    1
    27    20    21    1
    28    25    24    1
    29    25    27    1
    30    24    23    2
    31    21    22    2
    32    23    22    1
