@<TRIPOS>MOLECULE
64768_out_ligand_01.pdbqt
 27 29 0 0 0
SMALL
GASTEIGER

@<TRIPOS>ATOM
      1  C         21.0400  -22.1410  -11.3420 C.2     1  UNL1        0.0350
      2  C         20.3070  -21.2660  -12.1450 C.2     1  UNL1        0.0290
      3  C         18.9940  -20.9200  -11.8080 C.2     1  UNL1        0.0030
      4  C         18.3960  -21.4540  -10.6670 C.2     1  UNL1        0.0170
      5  C         19.1140  -22.3430   -9.8620 C.2     1  UNL1        0.0340
      6  C         20.4360  -22.6720  -10.1950 C.2     1  UNL1        0.0460
      7  C         18.5370  -22.9440   -8.6290 C.2     1  UNL1        0.2520
      8  O         18.9350  -24.0370   -8.2410 O.2     1  UNL1       -0.2680
      9  N         17.5410  -22.2270   -8.0000 N.am    1  UNL1       -0.3520
     10  H         17.2390  -21.3440   -8.3840 H       1  UNL1        0.1630
     11  C         16.9500  -22.6630   -6.7340 C.3     1  UNL1        0.0840
     12  C         17.7680  -22.0960   -5.5670 C.3     1  UNL1        0.0250
     13  C         17.1750  -22.2660   -4.1700 C.3     1  UNL1        0.0020
     14  C         16.5040  -23.6100   -3.9070 C.2     1  UNL1        0.0000
     15  C         15.2390  -23.9170   -4.7220 C.2     1  UNL1        0.0000
     16  C         14.6520  -22.7390   -5.4930 C.3     1  UNL1        0.0020
     17  C         15.4640  -22.2810   -6.7100 C.3     1  UNL1        0.0250
     18  N         22.3730  -22.5230  -11.6020 N.am    1  UNL1       -0.3230
     19  C         23.5080  -22.1230  -10.9190 C.2     1  UNL1        0.2560
     20  O         23.5690  -21.3030  -10.0130 O.2     1  UNL1       -0.2670
     21  H         22.5110  -23.1050  -12.4180 H       1  UNL1        0.1690
     22  C         24.7760  -22.7490  -11.3940 C.2     1  UNL1        0.0320
     23  C         24.7820  -23.3760  -12.6460 C.2     1  UNL1        0.0170
     24  C         25.9490  -23.9750  -13.1240 C.2     1  UNL1        0.0010
     25  C         27.1130  -23.9390  -12.3590 C.2     1  UNL1        0.0000
     26  C         27.1190  -23.2980  -11.1200 C.2     1  UNL1        0.0010
     27  C         25.9540  -22.6980  -10.6370 C.2     1  UNL1        0.0170
@<TRIPOS>BOND
     1    24    23    1
     2    24    25    2
     3    23    22    2
     4    21    18    1
     5    25    26    1
     6     2     3    1
     7     2     1    2
     8     3     4    2
     9    18     1    1
    10    18    19   am
    11    22    19    1
    12    22    27    1
    13     1     6    1
    14    26    27    2
    15    19    20    2
    16     4     5    1
    17     6     5    2
    18     5     7    1
    19     7     8    2
    20     7     9   am
    21    10     9    1
    22     9    11    1
    23    11    17    1
    24    11    12    1
    25    17    16    1
    26    12    13    1
    27    16    15    1
    28    15    14    2
    29    13    14    1
