@<TRIPOS>MOLECULE
64779_out_ligand_01.pdbqt
 32 35 0 0 0
SMALL
GASTEIGER

@<TRIPOS>ATOM
      1  C         20.1540  -21.9520  -11.2160 C.2     1  UNL1        0.0330
      2  C         19.0090  -21.3200  -11.7660 C.2     1  UNL1        0.0180
      3  C         17.7370  -21.5460  -11.2240 C.2     1  UNL1        0.0190
      4  C         17.6520  -22.4100  -10.1490 C.2     1  UNL1        0.0480
      5  C         18.7650  -23.0390   -9.6220 C.2     1  UNL1        0.0490
      6  C         20.0320  -22.8360  -10.1330 C.2     1  UNL1        0.0350
      7  C         18.3130  -23.8780   -8.5130 C.2     1  UNL1        0.2620
      8  O         19.0470  -24.5610   -7.8250 O.2     1  UNL1       -0.2670
      9  N         16.9580  -23.7150   -8.4320 N.am    1  UNL1       -0.2760
     10  C         16.4890  -22.8490   -9.3790 C.2     1  UNL1        0.2620
     11  O         15.3510  -22.4750   -9.5830 O.2     1  UNL1       -0.2670
     12  C         21.5110  -21.7310  -11.7910 C.2     1  UNL1        0.2560
     13  N         22.5370  -22.3840  -11.1340 N.am    1  UNL1       -0.3230
     14  H         22.2800  -23.0280  -10.3980 H       1  UNL1        0.1690
     15  O         21.6000  -21.0320  -12.7930 O.2     1  UNL1       -0.2670
     16  C         23.9150  -22.3250  -11.4350 C.2     1  UNL1        0.0360
     17  C         24.8260  -21.5050  -10.7680 C.2     1  UNL1        0.0290
     18  C         26.1800  -21.5070  -11.1230 C.2     1  UNL1        0.0030
     19  C         26.6370  -22.3340  -12.1470 C.2     1  UNL1        0.0180
     20  C         25.7360  -23.1640  -12.8200 C.2     1  UNL1        0.0390
     21  C         24.3800  -23.1570  -12.4620 C.2     1  UNL1        0.0480
     22  C         26.1630  -24.0660  -13.9150 C.2     1  UNL1        0.1760
     23  O         27.0990  -23.8700  -14.6690 O.2     1  UNL1       -0.6460
     24  O         25.4000  -25.1670  -14.0180 O.3     1  UNL1       -0.7730
     25  H         25.7880  -25.6600  -14.7710 H       1  UNL1        0.1670
     26  C         16.1140  -24.4070   -7.4840 C.3     1  UNL1        0.1750
     27  C         16.0050  -23.6530   -6.1880 C.2     1  UNL1       -0.0220
     28  C         14.8660  -22.9040   -5.8730 C.2     1  UNL1        0.0120
     29  C         14.8120  -22.2020   -4.6730 C.2     1  UNL1        0.0200
     30  C         15.9060  -22.2660   -3.8270 C.2     1  UNL1        0.1160
     31  N         17.0270  -22.9680   -4.1010 N.2     1  UNL1       -0.2730
     32  C         17.0550  -23.6390   -5.2750 C.2     1  UNL1        0.1240
@<TRIPOS>BOND
     1    25    24    1
     2    23    22    2
     3    24    22    1
     4    22    20    1
     5    20    21    1
     6    20    19    2
     7    15    12    2
     8    21    16    2
     9    19    18    1
    10    12     1    1
    11    12    13   am
    12     2     3    1
    13     2     1    2
    14    16    13    1
    15    16    17    1
    16     3     4    2
    17     1     6    1
    18    13    14    1
    19    18    17    2
    20     4     5    1
    21     4    10    1
    22     6     5    2
    23     5     7    1
    24    11    10    2
    25    10     9   am
    26     7     9   am
    27     7     8    2
    28     9    26    1
    29    26    27    1
    30    27    28    2
    31    27    32    1
    32    28    29    1
    33    32    31    2
    34    29    30    2
    35    31    30    1
