@<TRIPOS>MOLECULE
64785_out_ligand_01.pdbqt
 29 33 0 0 0
SMALL
GASTEIGER

@<TRIPOS>ATOM
      1  S         19.9720  -23.6280   -8.9660 S.O2    1  UNL1        0.2460
      2  O         20.3940  -24.9730   -8.6460 O.2     1  UNL1       -0.2060
      3  O         19.1370  -23.3400  -10.1130 O.2     1  UNL1       -0.2060
      4  C         19.1750  -22.9510   -7.5270 C.2     1  UNL1        0.0860
      5  C         19.8580  -21.9500   -6.7820 C.2     1  UNL1        0.0280
      6  C         19.2850  -21.3820   -5.6330 C.2     1  UNL1        0.0320
      7  C         18.0400  -21.8310   -5.2650 C.2     1  UNL1        0.0470
      8  N         17.2370  -21.4600   -4.1910 N.am    1  UNL1       -0.3220
      9  C         17.3900  -22.7930   -5.9930 C.2     1  UNL1        0.0180
     10  C         16.0580  -22.1870   -4.2260 C.2     1  UNL1        0.2570
     11  H         17.4510  -20.7720   -3.4840 H       1  UNL1        0.1690
     12  O         15.1210  -22.1370   -3.4570 O.2     1  UNL1       -0.2670
     13  C         16.1740  -23.0590   -5.4160 C.2     1  UNL1        0.0450
     14  C         15.3190  -23.9950   -5.9560 C.2     1  UNL1        0.0180
     15  C         15.7430  -24.6580   -7.1170 C.2     1  UNL1        0.0020
     16  C         17.0000  -24.3740   -7.7050 C.2     1  UNL1        0.0140
     17  C         17.8820  -23.4070   -7.1410 C.2     1  UNL1        0.0000
     18  N         21.3340  -22.6050   -9.1060 N.pl3   1  UNL1       -0.1810
     19  H         21.1760  -21.7900   -8.5110 H       1  UNL1        0.1460
     20  C         21.6330  -22.2230  -10.4570 C.2     1  UNL1        0.0240
     21  C         20.7420  -21.3900  -11.1490 C.2     1  UNL1        0.0270
     22  C         21.0340  -20.9650  -12.4470 C.2     1  UNL1        0.0400
     23  C         22.2240  -21.3780  -13.0220 C.ar    1  UNL1        0.0970
     24  O         22.5720  -20.9840  -14.3110 O.2     1  UNL1       -0.2680
     25  C         23.1160  -22.1910  -12.3300 C.ar    1  UNL1        0.0460
     26  C         23.8150  -21.5450  -14.5960 C.ar    1  UNL1        0.3320
     27  O         24.3830  -21.3790  -15.6670 O.2     1  UNL1       -0.2510
     28  S         24.5290  -22.5290  -13.3080 S.2     1  UNL1       -0.0180
     29  C         22.8400  -22.6190  -11.0410 C.2     1  UNL1        0.0460
@<TRIPOS>BOND
     1    27    26    2
     2    26    24   ar
     3    26    28   ar
     4    24    23   ar
     5    28    25   ar
     6    23    22    2
     7    23    25   ar
     8    22    21    1
     9    25    29    2
    10    21    20    2
    11    29    20    1
    12    20    18    1
    13     3     1    2
    14    18     1    1
    15    18    19    1
    16     1     2    2
    17     1     4    1
    18    16    17    1
    19    16    15    2
    20     4    17    2
    21     4     5    1
    22    17     9    1
    23    15    14    1
    24     5     6    2
    25     9    13    1
    26     9     7    2
    27    14    13    2
    28     6     7    1
    29    13    10    1
    30     7     8    1
    31    10     8   am
    32    10    12    2
    33     8    11    1
