@<TRIPOS>MOLECULE
64780_out_ligand_01.pdbqt
 32 34 0 0 0
SMALL
GASTEIGER

@<TRIPOS>ATOM
      1  N         21.1710  -22.7530  -10.7130 N.am    1  UNL1       -0.3330
      2  H         20.2330  -22.9410  -11.0510 H       1  UNL1        0.1680
      3  C         22.0940  -22.3740  -11.7110 C.2     1  UNL1        0.0340
      4  C         23.3380  -23.0170  -11.7090 C.2     1  UNL1        0.0310
      5  C         24.2960  -22.7240  -12.6850 C.2     1  UNL1        0.0270
      6  C         23.9930  -21.8040  -13.6890 C.2     1  UNL1        0.0800
      7  C         22.7530  -21.1600  -13.7100 C.2     1  UNL1        0.0270
      8  C         21.8040  -21.4560  -12.7270 C.2     1  UNL1        0.0310
      9  S         25.2120  -21.4010  -14.9130 S.O2    1  UNL1        0.2650
     10  O         25.2520  -19.9560  -15.0290 O.2     1  UNL1       -0.2000
     11  O         26.4170  -22.1550  -14.6630 O.2     1  UNL1       -0.2000
     12  N         24.5200  -21.9230  -16.3300 N.am    1  UNL1       -0.2510
     13  C         24.5140  -23.2430  -16.7910 C.2     1  UNL1        0.2270
     14  C         23.9030  -23.4100  -18.1530 C.3     1  UNL1        0.1180
     15  O         24.9390  -24.1880  -16.1430 O.2     1  UNL1       -0.2730
     16  H         24.1200  -21.1680  -16.8770 H       1  UNL1        0.1810
     17  C         21.2570  -22.6450   -9.3670 C.2     1  UNL1        0.1790
     18  S         22.6370  -21.9810   -8.6890 S.2     1  UNL1       -0.0400
     19  N         20.2480  -23.0230   -8.5360 N.am    1  UNL1       -0.2990
     20  C         18.8810  -22.8820   -8.7590 C.2     1  UNL1        0.2580
     21  H         20.5230  -23.0110   -7.5620 H       1  UNL1        0.1710
     22  O         18.3190  -22.6300   -9.8140 O.2     1  UNL1       -0.2670
     23  C         18.0540  -23.1310   -7.5560 C.2     1  UNL1        0.0430
     24  C         17.0910  -24.1420   -7.6700 C.2     1  UNL1        0.0180
     25  C         16.3190  -24.4870   -6.5680 C.2     1  UNL1        0.0020
     26  C         16.5080  -23.8220   -5.3570 C.2     1  UNL1        0.0120
     27  C         17.4530  -22.7880   -5.2310 C.2     1  UNL1       -0.0250
     28  C         17.6130  -22.1210   -4.0060 C.2     1  UNL1        0.0120
     29  C         18.2400  -22.4100   -6.3480 C.2     1  UNL1       -0.0100
     30  C         18.5270  -21.0760   -3.8710 C.2     1  UNL1        0.0010
     31  C         19.2870  -20.6770   -4.9620 C.2     1  UNL1        0.0010
     32  C         19.1420  -21.3300   -6.1880 C.2     1  UNL1        0.0130
@<TRIPOS>BOND
     1    14    13    1
     2    16    12    1
     3    13    12   am
     4    13    15    2
     5    12     9    1
     6    10     9    2
     7     9    11    2
     8     9     6    1
     9     7     6    2
    10     7     8    1
    11     6     5    1
    12     8     3    2
    13     5     4    2
    14     3     4    1
    15     3     1    1
    16     2     1    1
    17     1    17    1
    18    22    20    2
    19    17    18    2
    20    17    19    1
    21    20    19   am
    22    20    23    1
    23    19    21    1
    24    24    23    2
    25    24    25    1
    26    23    29    1
    27    25    26    2
    28    29    32    1
    29    29    27    2
    30    32    31    2
    31    26    27    1
    32    27    28    1
    33    31    30    1
    34    28    30    2
