@<TRIPOS>MOLECULE
64788_out_ligand_01.pdbqt
 33 36 0 0 0
SMALL
GASTEIGER

@<TRIPOS>ATOM
      1  C         18.7410  -22.4750  -10.3360 C.2     1  UNL1        0.0400
      2  C         18.5410  -22.0240  -11.6280 C.2     1  UNL1        0.0310
      3  C         17.3330  -21.3020  -11.6550 C.2     1  UNL1        0.0200
      4  C         16.8050  -21.3540  -10.3860 C.2     1  UNL1        0.0970
      5  N         17.6120  -22.1410   -9.5780 N.pl3   1  UNL1       -0.3220
      6  C         19.8830  -23.1290   -9.7990 C.2     1  UNL1        0.0540
      7  C         21.1230  -22.9860  -10.2870 C.2     1  UNL1        0.0780
      8  C         22.2760  -23.7140   -9.6910 C.2     1  UNL1        0.2640
      9  S         21.6680  -22.0180  -11.6080 S.3     1  UNL1       -0.0460
     10  N         23.4190  -23.3910  -10.3610 N.am    1  UNL1       -0.3010
     11  O         22.2110  -24.4780   -8.7410 O.2     1  UNL1       -0.2670
     12  C         23.3270  -22.5090  -11.3860 C.3     1  UNL1        0.1740
     13  H         24.3100  -23.7730  -10.0930 H       1  UNL1        0.1710
     14  N         24.3880  -22.1630  -12.0280 N.pl3   1  UNL1       -0.2240
     15  C         24.6450  -22.7270  -13.2880 C.2     1  UNL1        0.0650
     16  C         25.1550  -24.0310  -13.3590 C.2     1  UNL1        0.0320
     17  C         25.4160  -24.6280  -14.5910 C.2     1  UNL1        0.0020
     18  C         25.1610  -23.9300  -15.7670 C.2     1  UNL1        0.0010
     19  C         24.6310  -22.6390  -15.7100 C.2     1  UNL1        0.0090
     20  C         24.3530  -22.0320  -14.4760 C.2     1  UNL1       -0.0330
     21  C         23.7780  -20.6440  -14.4400 C.3     1  UNL1        0.0500
     22  C         17.2690  -22.5240   -8.2420 C.2     1  UNL1        0.0390
     23  C         16.1220  -23.3020   -8.0140 C.2     1  UNL1        0.0310
     24  C         15.7690  -23.6840   -6.7160 C.2     1  UNL1        0.0270
     25  C         16.5770  -23.3030   -5.6440 C.2     1  UNL1        0.0740
     26  C         17.7230  -22.5320   -5.8530 C.2     1  UNL1        0.0270
     27  C         18.0710  -22.1510   -7.1520 C.2     1  UNL1        0.0310
     28  S         16.1430  -23.7740   -3.9900 S.O2    1  UNL1        0.2390
     29  O         14.9470  -24.5780   -4.0470 O.2     1  UNL1       -0.2060
     30  O         17.3400  -24.2040   -3.3050 O.2     1  UNL1       -0.2060
     31  N         15.7430  -22.2850   -3.3100 N.3     1  UNL1       -0.2250
     32  H         14.8010  -22.0250   -3.6160 H       1  UNL1        0.1360
     33  H         15.8310  -22.2650   -2.2960 H       1  UNL1        0.1360
@<TRIPOS>BOND
     1    18    19    2
     2    18    17    1
     3    19    20    1
     4    17    16    2
     5    20    21    1
     6    20    15    2
     7    16    15    1
     8    15    14    1
     9    14    12    1
    10     3     2    1
    11     3     4    2
    12     2     1    2
    13     9    12    1
    14     9     7    1
    15    12    10    1
    16     4     5    1
    17    10    13    1
    18    10     8   am
    19     1     6    1
    20     1     5    1
    21     7     6    2
    22     7     8    1
    23     8    11    2
    24     5    22    1
    25    22    23    2
    26    22    27    1
    27    23    24    1
    28    27    26    2
    29    24    25    2
    30    26    25    1
    31    25    28    1
    32    29    28    2
    33    28    31    1
    34    28    30    2
    35    32    31    1
    36    31    33    1
