@<TRIPOS>MOLECULE
64790_out_ligand_01.pdbqt
 32 35 0 0 0
SMALL
GASTEIGER

@<TRIPOS>ATOM
      1  C         19.9420  -22.5760   -7.8320 C.2     1  UNL1        0.1020
      2  C         21.2560  -22.4240   -8.2830 C.2     1  UNL1        0.0510
      3  C         21.9200  -23.4940   -8.8900 C.2     1  UNL1       -0.0320
      4  C         21.2520  -24.7110   -9.0600 C.2     1  UNL1        0.0140
      5  C         19.9270  -24.8520   -8.6340 C.2     1  UNL1        0.0400
      6  C         19.2620  -23.7770   -8.0460 C.2     1  UNL1        0.1020
      7  C         23.3010  -23.3130   -9.3440 C.3     1  UNL1        0.0320
      8  C         23.7240  -22.8020  -10.5190 C.ar    1  UNL1        0.0820
      9  C         22.8400  -22.2790  -11.6160 C.ar    1  UNL1        0.1620
     10  C         25.2270  -22.7820  -10.7450 C.ar    1  UNL1        0.2830
     11  N         21.5400  -22.3000  -11.5600 N.pl3   1  UNL1       -0.2810
     12  N         23.5020  -21.7660  -12.7140 N.ar    1  UNL1       -0.1900
     13  H         21.2020  -21.8850  -12.4410 H       1  UNL1        0.1880
     14  N         22.8340  -21.2250  -13.8010 N.2     1  UNL1       -0.1690
     15  C         24.8720  -21.7700  -12.7730 C.ar    1  UNL1        0.2000
     16  C         23.7120  -20.8270  -14.6690 C.2     1  UNL1        0.1920
     17  S         25.4070  -21.0540  -14.2730 S.3     1  UNL1       -0.0410
     18  N         25.7090  -22.2130  -11.9070 N.ar    1  UNL1       -0.1820
     19  O         25.9900  -23.2750   -9.9180 O.2     1  UNL1       -0.2650
     20  O         19.3740  -21.4950   -7.2150 O.2     1  UNL1       -0.3490
     21  C         20.0050  -21.2440   -5.9520 C.3     1  UNL1        0.1710
     22  C         18.9460  -20.6860   -5.0130 C.3     1  UNL1        0.0340
     23  O         17.9600  -23.9940   -7.6780 O.2     1  UNL1       -0.3440
     24  C         17.8600  -24.4480   -6.3230 C.3     1  UNL1        0.2180
     25  C         16.7540  -23.6640   -5.6570 C.2     1  UNL1        0.0090
     26  C         15.7490  -23.0320   -6.4150 C.2     1  UNL1        0.0440
     27 CL         15.7050  -23.1210   -8.1400 Cl      1  UNL1       -0.0840
     28  C         14.7330  -22.2910   -5.7980 C.2     1  UNL1        0.0240
     29  C         14.7010  -22.1600   -4.4150 C.2     1  UNL1        0.0030
     30  C         15.6990  -22.7530   -3.6470 C.2     1  UNL1        0.0240
     31  C         16.7210  -23.4900   -4.2610 C.2     1  UNL1        0.0440
     32 CL         17.9350  -24.1500   -3.2200 Cl      1  UNL1       -0.0840
@<TRIPOS>BOND
     1    16    17    1
     2    16    14    2
     3    17    15    1
     4    14    12    1
     5    15    12   ar
     6    15    18   ar
     7    12     9   ar
     8    13    11    1
     9    18    10   ar
    10     9    11    1
    11     9     8   ar
    12    10     8   ar
    13    10    19    2
    14     8     7    1
    15     7     3    1
    16     4     3    2
    17     4     5    1
    18     3     2    1
    19     5     6    2
    20     2     1    2
    21    27    26    1
    22     6     1    1
    23     6    23    1
    24     1    20    1
    25    23    24    1
    26    20    21    1
    27    26    28    1
    28    26    25    2
    29    24    25    1
    30    21    22    1
    31    28    29    2
    32    25    31    1
    33    29    30    1
    34    31    30    2
    35    31    32    1
