@<TRIPOS>MOLECULE
64801_out_ligand_01.pdbqt
 30 32 0 0 0
SMALL
GASTEIGER

@<TRIPOS>ATOM
      1  C         19.4690  -22.5270  -10.1350 C.2     1  UNL1        0.0550
      2  C         18.6980  -23.1150   -9.1180 C.2     1  UNL1        0.0440
      3  C         17.3290  -22.8420   -9.0310 C.2     1  UNL1        0.0810
      4  C         16.7230  -21.9610   -9.9280 C.2     1  UNL1        0.0270
      5  C         17.4880  -21.3790  -10.9410 C.2     1  UNL1        0.0260
      6  C         18.8560  -21.6640  -11.0540 C.2     1  UNL1        0.0490
      7 CL         19.6960  -20.9320  -12.3730 Cl      1  UNL1       -0.0830
      8  S         16.3610  -23.5790   -7.7280 S.O2    1  UNL1        0.2630
      9  O         15.4780  -22.5600   -7.2080 O.2     1  UNL1       -0.2000
     10  O         15.8460  -24.8320   -8.2370 O.2     1  UNL1       -0.2000
     11  N         17.5210  -23.9840   -6.5730 N.pl3   1  UNL1       -0.2810
     12  H         18.2740  -24.5540   -6.9540 H       1  UNL1        0.1790
     13  C         17.8250  -23.0750   -5.5230 C.2     1  UNL1        0.0450
     14  C         17.5240  -23.4380   -4.2080 C.2     1  UNL1        0.0300
     15  C         17.8510  -22.5820   -3.1530 C.2     1  UNL1        0.0050
     16  C         18.4730  -21.3630   -3.4180 C.2     1  UNL1        0.0420
     17  C         18.7590  -21.0080   -4.7320 C.2     1  UNL1        0.1180
     18  F         19.3460  -19.8320   -4.9830 F       1  UNL1       -0.2060
     19  C         18.4420  -21.8540   -5.7890 C.2     1  UNL1        0.0720
     20  C         20.9060  -22.9130  -10.1740 C.2     1  UNL1        0.2570
     21  O         21.2420  -23.8890   -9.5130 O.2     1  UNL1       -0.2670
     22  N         21.7280  -22.0960  -10.9240 N.am    1  UNL1       -0.3230
     23  H         21.2820  -21.3400  -11.4330 H       1  UNL1        0.1690
     24  C         23.1220  -22.2130  -11.1060 C.2     1  UNL1        0.0370
     25  C         24.0720  -21.5040  -10.3650 C.2     1  UNL1        0.0290
     26  C         25.4410  -21.6740  -10.6070 C.2     1  UNL1        0.0050
     27  C         25.8700  -22.5570  -11.5930 C.2     1  UNL1        0.0420
     28  C         24.9260  -23.2620  -12.3280 C.2     1  UNL1        0.1180
     29  F         25.3320  -24.1140  -13.2780 F       1  UNL1       -0.2060
     30  C         23.5640  -23.0990  -12.0960 C.2     1  UNL1        0.0710
@<TRIPOS>BOND
     1    29    28    1
     2     7     6    1
     3    28    30    1
     4    28    27    2
     5    30    24    2
     6    27    26    1
     7    23    22    1
     8    24    22    1
     9    24    25    1
    10     6     5    1
    11     6     1    2
    12     5     4    2
    13    22    20   am
    14    26    25    2
    15    20     1    1
    16    20    21    2
    17     1     2    1
    18     4     3    1
    19     2     3    2
    20     3     8    1
    21    10     8    2
    22     8     9    2
    23     8    11    1
    24    12    11    1
    25    11    13    1
    26    19    13    2
    27    19    17    1
    28    13    14    1
    29    18    17    1
    30    17    16    2
    31    14    15    2
    32    16    15    1
