@<TRIPOS>MOLECULE
64811_out_ligand_01.pdbqt
 31 34 0 0 0
SMALL
GASTEIGER

@<TRIPOS>ATOM
      1  C         21.5100  -21.5140  -12.6080 C.3     1  UNL1        0.0500
      2  C         20.6660  -21.7750  -11.3920 C.2     1  UNL1       -0.0390
      3  C         19.2820  -21.5310  -11.4740 C.2     1  UNL1        0.0090
      4  C         18.4290  -21.8010  -10.3940 C.2     1  UNL1        0.0140
      5  C         18.9330  -22.3170   -9.1920 C.2     1  UNL1       -0.0030
      6  C         20.3160  -22.5470   -9.1010 C.2     1  UNL1        0.0390
      7  C         21.1800  -22.2580  -10.1750 C.2     1  UNL1        0.0860
      8  C         18.0420  -22.6710   -8.0790 C.ar    1  UNL1        0.1000
      9  N         17.0310  -23.4990   -8.4460 N.ar    1  UNL1       -0.1480
     10  N         16.1060  -23.9020   -7.5350 N.ar    1  UNL1       -0.1420
     11  C         16.1820  -23.4650   -6.2640 C.ar    1  UNL1        0.1240
     12  C         17.2060  -22.6030   -5.8200 C.ar    1  UNL1        0.0140
     13  C         17.3200  -22.1220   -4.4920 C.2     1  UNL1        0.0150
     14  C         18.1800  -22.2000   -6.7600 C.ar    1  UNL1        0.0080
     15  C         18.3630  -21.2870   -4.0940 C.2     1  UNL1        0.0010
     16  C         19.3190  -20.9050   -5.0170 C.2     1  UNL1        0.0010
     17  C         19.2350  -21.3560   -6.3330 C.2     1  UNL1        0.0150
     18  S         14.8910  -24.0920   -5.2170 S.3     1  UNL1       -0.1210
     19  H         15.3300  -23.4660   -4.1210 H       1  UNL1        0.1080
     20  S         22.9230  -22.5060   -9.9010 S.O2    1  UNL1        0.2590
     21  O         23.5500  -21.2020   -9.9070 O.2     1  UNL1       -0.2010
     22  O         23.1270  -23.4480   -8.8220 O.2     1  UNL1       -0.2010
     23  N         23.4120  -23.2740  -11.3150 N.3     1  UNL1       -0.3110
     24  H         22.6590  -23.3430  -12.0000 H       1  UNL1        0.1720
     25  C         24.7620  -22.9860  -11.7950 C.3     1  UNL1        0.1720
     26  C         24.8720  -23.1810  -13.2800 C.2     1  UNL1       -0.0220
     27  C         24.5930  -22.1510  -14.1830 C.2     1  UNL1        0.0120
     28  C         24.6950  -22.3840  -15.5570 C.2     1  UNL1        0.0200
     29  C         25.0670  -23.6470  -15.9820 C.2     1  UNL1        0.1160
     30  N         25.3410  -24.6650  -15.1420 N.2     1  UNL1       -0.2730
     31  C         25.2360  -24.4110  -13.8130 C.2     1  UNL1        0.1240
@<TRIPOS>BOND
     1    29    28    2
     2    29    30    1
     3    28    27    1
     4    30    31    2
     5    27    26    2
     6    31    26    1
     7    26    25    1
     8     1     2    1
     9    24    23    1
    10    25    23    1
    11     3     2    2
    12     3     4    1
    13     2     7    1
    14    23    20    1
    15     4     5    2
    16     7    20    1
    17     7     6    2
    18    21    20    2
    19    20    22    2
    20     5     6    1
    21     5     8    1
    22     9     8   ar
    23     9    10   ar
    24     8    14   ar
    25    10    11   ar
    26    14    17    1
    27    14    12   ar
    28    17    16    2
    29    11    12   ar
    30    11    18    1
    31    12    13    1
    32    18    19    1
    33    16    15    1
    34    13    15    2
