@<TRIPOS>MOLECULE
64815_out_ligand_01.pdbqt
 34 37 0 0 0
SMALL
GASTEIGER

@<TRIPOS>ATOM
      1  C         20.8460  -22.0360  -11.3280 C.2     1  UNL1        0.0340
      2  C         20.7650  -23.0770  -10.3910 C.2     1  UNL1        0.0310
      3  C         19.5540  -23.3850   -9.7660 C.2     1  UNL1        0.0270
      4  C         18.4140  -22.6430  -10.0760 C.2     1  UNL1        0.0800
      5  C         18.4740  -21.6170  -11.0210 C.2     1  UNL1        0.0270
      6  C         19.6910  -21.3140  -11.6400 C.2     1  UNL1        0.0310
      7  S         16.8670  -23.0250   -9.2960 S.O2    1  UNL1        0.2630
      8  O         16.3530  -21.7920   -8.7350 O.2     1  UNL1       -0.2000
      9  O         16.0700  -23.8130  -10.2090 O.2     1  UNL1       -0.2000
     10  N         17.3400  -23.9710   -7.9810 N.pl3   1  UNL1       -0.2800
     11  H         18.2890  -24.3240   -8.0930 H       1  UNL1        0.1790
     12  C         16.9420  -23.5600   -6.6720 C.2     1  UNL1        0.0530
     13  C         15.7780  -24.1310   -6.1470 C.2     1  UNL1        0.0310
     14  C         15.3320  -23.7650   -4.8820 C.2     1  UNL1        0.0030
     15  C         16.0460  -22.8280   -4.1390 C.2     1  UNL1        0.0120
     16  C         17.2160  -22.2400   -4.6480 C.2     1  UNL1       -0.0240
     17  C         17.9260  -21.2970   -3.8860 C.2     1  UNL1        0.0120
     18  C         17.6810  -22.5970   -5.9380 C.2     1  UNL1        0.0010
     19  C         19.0840  -20.6980   -4.3810 C.2     1  UNL1        0.0010
     20  C         19.5470  -21.0340   -5.6470 C.2     1  UNL1        0.0010
     21  C         18.8550  -21.9700   -6.4170 C.2     1  UNL1        0.0140
     22  N         22.1070  -21.7980  -11.9100 N.am    1  UNL1       -0.3250
     23  C         23.3590  -21.9460  -11.3210 C.2     1  UNL1        0.2550
     24  O         23.5560  -22.3340  -10.1710 O.2     1  UNL1       -0.2700
     25  H         22.1000  -21.5810  -12.9000 H       1  UNL1        0.1690
     26  C         24.5360  -21.5050  -12.2550 C.3     1  UNL1        0.2460
     27  O         25.8150  -21.4190  -11.6310 O.3     1  UNL1       -0.3770
     28  C         26.4190  -20.1420  -11.7770 C.3     1  UNL1        0.2030
     29  C         24.7000  -22.4500  -13.4380 C.2     1  UNL1       -0.0200
     30  C         25.1540  -23.7640  -13.2450 C.2     1  UNL1        0.0100
     31  C         25.3330  -24.6180  -14.3350 C.2     1  UNL1        0.0010
     32  C         25.0530  -24.1710  -15.6260 C.2     1  UNL1        0.0000
     33  C         24.5890  -22.8730  -15.8300 C.2     1  UNL1        0.0010
     34  C         24.4100  -22.0170  -14.7420 C.2     1  UNL1        0.0100
@<TRIPOS>BOND
     1    33    32    2
     2    33    34    1
     3    32    31    1
     4    34    29    2
     5    31    30    2
     6    29    30    1
     7    29    26    1
     8    25    22    1
     9    26    27    1
    10    26    23    1
    11    22     1    1
    12    22    23   am
    13    28    27    1
    14     6     1    2
    15     6     5    1
    16     1     2    1
    17    23    24    2
    18     5     4    2
    19     2     3    2
    20     9     7    2
    21     4     3    1
    22     4     7    1
    23     7     8    2
    24     7    10    1
    25    11    10    1
    26    10    12    1
    27    12    13    2
    28    12    18    1
    29    21    18    1
    30    21    20    2
    31    13    14    1
    32    18    16    2
    33    20    19    1
    34    14    15    2
    35    16    15    1
    36    16    17    1
    37    19    17    2
