@<TRIPOS>MOLECULE
64810_out_ligand_01.pdbqt
 30 33 0 0 0
SMALL
GASTEIGER

@<TRIPOS>ATOM
      1  C         20.8310  -22.7420  -10.3510 C.2     1  UNL1        0.0330
      2  C         20.1240  -21.8340  -11.1780 C.2     1  UNL1        0.0180
      3  C         20.7460  -21.2320  -12.2780 C.2     1  UNL1        0.0190
      4  C         22.0650  -21.5670  -12.5200 C.2     1  UNL1        0.0480
      5  C         22.7530  -22.4660  -11.7240 C.2     1  UNL1        0.0490
      6  C         22.1650  -23.0770  -10.6340 C.2     1  UNL1        0.0350
      7  C         24.1040  -22.5900  -12.2670 C.2     1  UNL1        0.2620
      8  O         24.9730  -23.2960  -11.7920 O.2     1  UNL1       -0.2670
      9  N         24.1600  -21.7660  -13.3560 N.am    1  UNL1       -0.2760
     10  C         22.9770  -21.1190  -13.5700 C.2     1  UNL1        0.2620
     11  O         22.6850  -20.3150  -14.4340 O.2     1  UNL1       -0.2670
     12  C         20.1740  -23.3970   -9.1840 C.2     1  UNL1        0.2560
     13  N         19.1410  -22.6710   -8.6210 N.am    1  UNL1       -0.3220
     14  H         19.0060  -21.7360   -8.9740 H       1  UNL1        0.1690
     15  O         20.6200  -24.4750   -8.8150 O.2     1  UNL1       -0.2670
     16  C         18.3010  -23.0470   -7.5400 C.2     1  UNL1        0.0410
     17  C         17.2990  -24.0110   -7.6890 C.2     1  UNL1        0.0300
     18  C         16.4770  -24.3620   -6.6200 C.2     1  UNL1        0.0030
     19  C         16.6440  -23.7490   -5.3840 C.2     1  UNL1        0.0070
     20  C         17.6330  -22.7720   -5.1970 C.2     1  UNL1       -0.0540
     21  C         17.7610  -22.1480   -3.8330 C.3     1  UNL1        0.0490
     22  C         18.4750  -22.4130   -6.2800 C.2     1  UNL1       -0.0290
     23  C         19.5490  -21.3660   -6.0960 C.3     1  UNL1        0.0510
     24  C         25.3230  -21.6210  -14.2040 C.3     1  UNL1        0.1750
     25  C         25.0420  -22.0670  -15.6110 C.2     1  UNL1       -0.0220
     26  C         25.1100  -21.1780  -16.6870 C.2     1  UNL1        0.0120
     27  C         24.8640  -21.6350  -17.9780 C.2     1  UNL1        0.0200
     28  C         24.5660  -22.9760  -18.1530 C.2     1  UNL1        0.1160
     29  N         24.5020  -23.8670  -17.1410 N.2     1  UNL1       -0.2730
     30  C         24.7460  -23.3970  -15.8970 C.2     1  UNL1        0.1240
@<TRIPOS>BOND
     1    28    27    2
     2    28    29    1
     3    27    26    1
     4    29    30    2
     5    26    25    2
     6    30    25    1
     7    25    24    1
     8    11    10    2
     9    24     9    1
    10    10     9   am
    11    10     4    1
    12     9     7   am
    13     4     3    2
    14     4     5    1
    15     3     2    1
    16     7     8    2
    17     7     5    1
    18     5     6    2
    19     2     1    2
    20     6     1    1
    21     1    12    1
    22    12    15    2
    23    12    13   am
    24    14    13    1
    25    13    16    1
    26    17    16    2
    27    17    18    1
    28    16    22    1
    29    18    19    2
    30    22    23    1
    31    22    20    2
    32    19    20    1
    33    20    21    1
