@<TRIPOS>MOLECULE
64823_out_ligand_01.pdbqt
 37 40 0 0 0
SMALL
GASTEIGER

@<TRIPOS>ATOM
      1  C         22.8560  -22.3180   -9.7130 C.2     1  UNL1        0.0320
      2  C         22.5490  -22.0710   -8.3700 C.2     1  UNL1        0.0190
      3  C         21.2260  -22.1730   -7.9170 C.2     1  UNL1        0.0300
      4  C         20.1970  -22.5130   -8.7960 C.2     1  UNL1        0.0340
      5  C         20.5060  -22.7510  -10.1400 C.2     1  UNL1        0.0300
      6  C         21.8250  -22.6530  -10.5970 C.2     1  UNL1        0.0190
      7  C         24.2360  -22.1700  -10.2600 C.2     1  UNL1        0.2510
      8  N         24.8850  -23.3220  -10.6560 N.am    1  UNL1       -0.3570
      9  H         24.3790  -24.1900  -10.7370 H       1  UNL1        0.1620
     10  O         24.7440  -21.0550  -10.3430 O.2     1  UNL1       -0.2680
     11  C         26.2480  -23.2710  -11.1520 C.3     1  UNL1        0.1270
     12  C         26.4120  -23.9740  -12.5030 C.3     1  UNL1        0.0580
     13  C         25.8610  -23.1380  -13.6330 C.2     1  UNL1       -0.0540
     14  C         25.3490  -23.7650  -14.7750 C.2     1  UNL1        0.0100
     15  C         24.7990  -23.0120  -15.8170 C.2     1  UNL1        0.0400
     16  C         24.7620  -21.6170  -15.7350 C.2     1  UNL1        0.1010
     17  C         25.2790  -20.9730  -14.5920 C.2     1  UNL1        0.1020
     18  C         25.8210  -21.7390  -13.5480 C.2     1  UNL1        0.0460
     19  O         24.2590  -20.7970  -16.7160 O.2     1  UNL1       -0.3530
     20  C         25.0160  -20.6600  -17.9090 C.3     1  UNL1        0.2100
     21  O         25.1970  -19.6010  -14.5870 O.2     1  UNL1       -0.3530
     22  C         26.4130  -18.8690  -14.6110 C.3     1  UNL1        0.2100
     23  N         18.8400  -22.5970   -8.4260 N.am    1  UNL1       -0.3260
     24  C         18.1920  -23.6490   -7.7940 C.2     1  UNL1        0.2350
     25  O         18.6970  -24.7410   -7.5440 O.2     1  UNL1       -0.2720
     26  H         18.2550  -21.8270   -8.7250 H       1  UNL1        0.1690
     27  C         16.7210  -23.3140   -7.3910 C.3     1  UNL1        0.0680
     28  C         16.1650  -22.1370   -8.2290 C.3     1  UNL1        0.0240
     29  C         15.6970  -22.7320   -9.5580 C.3     1  UNL1        0.0020
     30  C         15.6610  -24.2420   -9.3670 C.3     1  UNL1        0.0020
     31  C         15.7920  -24.4550   -7.8640 C.3     1  UNL1        0.0240
     32  C         16.6580  -22.9970   -5.8910 C.2     1  UNL1       -0.0400
     33  C         15.4050  -22.9270   -5.2520 C.2     1  UNL1        0.0080
     34  C         15.3040  -22.6130   -3.8950 C.2     1  UNL1        0.0010
     35  C         16.4500  -22.3490   -3.1540 C.2     1  UNL1        0.0000
     36  C         17.6990  -22.4040   -3.7690 C.2     1  UNL1        0.0010
     37  C         17.8030  -22.7210   -5.1270 C.2     1  UNL1        0.0080
@<TRIPOS>BOND
     1    20    19    1
     2    19    16    1
     3    15    16    2
     4    15    14    1
     5    16    17    1
     6    14    13    2
     7    22    21    1
     8    17    21    1
     9    17    18    2
    10    13    18    1
    11    13    12    1
    12    12    11    1
    13    11     8    1
    14     9     8    1
    15     8     7   am
    16     6     5    1
    17     6     1    2
    18    10     7    2
    19     7     1    1
    20     5     4    2
    21     1     2    1
    22    29    30    1
    23    29    28    1
    24    30    31    1
    25     4    23    1
    26     4     3    1
    27    26    23    1
    28    23    24   am
    29     2     3    2
    30    28    27    1
    31    31    27    1
    32    24    25    2
    33    24    27    1
    34    27    32    1
    35    32    33    2
    36    32    37    1
    37    33    34    1
    38    37    36    2
    39    34    35    2
    40    36    35    1
