@<TRIPOS>MOLECULE
64824_out_ligand_01.pdbqt
 33 35 0 0 0
SMALL
GASTEIGER

@<TRIPOS>ATOM
      1  C         21.6980  -23.5930   -9.0830 C.2     1  UNL1        0.0340
      2  C         20.7960  -24.6530   -8.9750 C.2     1  UNL1        0.0310
      3  C         19.6920  -24.5630   -8.1200 C.2     1  UNL1        0.0270
      4  C         19.4880  -23.4060   -7.3680 C.2     1  UNL1        0.0790
      5  C         20.3680  -22.3280   -7.4800 C.2     1  UNL1        0.0270
      6  C         21.4760  -22.4310   -8.3280 C.2     1  UNL1        0.0310
      7  N         22.8320  -23.6040   -9.9210 N.am    1  UNL1       -0.3270
      8  C         23.0090  -22.9270  -11.1130 C.2     1  UNL1        0.2260
      9  O         22.1850  -22.2100  -11.6750 O.2     1  UNL1       -0.2730
     10  H         23.5930  -24.2150   -9.6270 H       1  UNL1        0.1690
     11  C         24.3810  -23.1550  -11.7340 C.3     1  UNL1        0.1440
     12  C         25.0850  -21.8610  -12.0780 C.2     1  UNL1       -0.0160
     13  C         25.7840  -21.1990  -11.0520 C.2     1  UNL1        0.0100
     14  C         26.4700  -20.0080  -11.2990 C.2     1  UNL1        0.0010
     15  C         26.4740  -19.4460  -12.5750 C.2     1  UNL1        0.0020
     16  C         25.7850  -20.0740  -13.6100 C.2     1  UNL1        0.0370
     17  C         25.0930  -21.2700  -13.3570 C.2     1  UNL1        0.1090
     18  N         24.3950  -21.8810  -14.4840 N.pl3   1  UNL1       -0.1150
     19  O         23.2510  -21.4710  -14.7390 O.2     1  UNL1       -0.5320
     20  O         24.9930  -22.7620  -15.1140 O.2     1  UNL1       -0.5320
     21  S         18.0540  -23.2800   -6.3280 S.O2    1  UNL1        0.2580
     22  O         18.2860  -22.2160   -5.3770 O.2     1  UNL1       -0.2010
     23  O         17.6840  -24.6130   -5.9090 O.2     1  UNL1       -0.2010
     24  N         16.8810  -22.7100   -7.3810 N.3     1  UNL1       -0.3150
     25  H         17.0580  -21.7680   -7.7310 H       1  UNL1        0.1720
     26  C         16.1290  -23.6450   -8.2250 C.3     1  UNL1        0.1370
     27  C         15.6370  -22.9090   -9.4750 C.3     1  UNL1        0.0580
     28  C         16.7690  -22.2840  -10.2520 C.2     1  UNL1       -0.0570
     29  C         16.6760  -20.9540  -10.6880 C.2     1  UNL1        0.0070
     30  C         17.7150  -20.3740  -11.4150 C.2     1  UNL1        0.0010
     31  C         18.8550  -21.1170  -11.7150 C.2     1  UNL1        0.0000
     32  C         18.9560  -22.4420  -11.2900 C.2     1  UNL1        0.0010
     33  C         17.9160  -23.0240  -10.5630 C.2     1  UNL1        0.0070
@<TRIPOS>BOND
     1    20    18    2
     2    19    18    2
     3    18    17    1
     4    16    17    1
     5    16    15    2
     6    17    12    2
     7    15    14    1
     8    12    11    1
     9    12    13    1
    10    11     8    1
    11    31    30    2
    12    31    32    1
    13     9     8    2
    14    30    29    1
    15    14    13    2
    16    32    33    2
    17     8     7   am
    18    29    28    2
    19    33    28    1
    20    28    27    1
    21     7    10    1
    22     7     1    1
    23    27    26    1
    24     1     2    2
    25     1     6    1
    26     2     3    1
    27     6     5    2
    28    26    24    1
    29     3     4    2
    30    25    24    1
    31     5     4    1
    32    24    21    1
    33     4    21    1
    34    21    23    2
    35    21    22    2
