@<TRIPOS>MOLECULE
64821_out_ligand_01.pdbqt
 29 31 0 0 0
SMALL
GASTEIGER

@<TRIPOS>ATOM
      1  C         20.1370  -21.8470  -11.2610 C.2     1  UNL1        0.0330
      2  C         18.9890  -21.6040  -12.0160 C.2     1  UNL1        0.0180
      3  C         17.7300  -21.7890  -11.4380 C.2     1  UNL1        0.0210
      4  C         17.5960  -22.2230  -10.1090 C.2     1  UNL1        0.0330
      5 BR         15.8060  -22.4560   -9.5260 Br      1  UNL1       -0.0490
      6  C         18.7460  -22.4780   -9.3560 C.2     1  UNL1        0.0930
      7  C         20.0150  -22.2910   -9.9400 C.2     1  UNL1        0.0430
      8  S         18.7510  -22.9920   -7.6530 S.O2    1  UNL1        0.2470
      9  O         18.2750  -24.3610   -7.6400 O.2     1  UNL1       -0.2050
     10  O         19.9970  -22.6580   -7.0050 O.2     1  UNL1       -0.2050
     11  N         17.4900  -22.0670   -6.9910 N.pl3   1  UNL1       -0.1800
     12  H         16.8150  -21.8690   -7.7350 H       1  UNL1        0.1460
     13  C         16.9210  -22.5400   -5.7650 C.2     1  UNL1        0.0440
     14  C         15.8400  -23.4210   -5.8200 C.2     1  UNL1        0.0260
     15  C         15.2240  -23.8460   -4.6410 C.2     1  UNL1        0.0020
     16  C         15.6840  -23.3890   -3.4060 C.2     1  UNL1        0.0020
     17  C         16.7670  -22.5090   -3.3450 C.2     1  UNL1        0.0260
     18  C         17.3850  -22.0830   -4.5220 C.2     1  UNL1        0.0560
     19 CL         18.7420  -21.0200   -4.4080 Cl      1  UNL1       -0.0820
     20  C         21.4990  -21.6920  -11.8400 C.2     1  UNL1        0.2560
     21  O         21.6100  -21.0320  -12.8650 O.2     1  UNL1       -0.2670
     22  N         22.4990  -22.3490  -11.1480 N.am    1  UNL1       -0.3230
     23  H         22.2170  -22.9550  -10.3900 H       1  UNL1        0.1690
     24  C         23.8810  -22.3450  -11.4370 C.2     1  UNL1        0.0350
     25  C         24.6820  -21.4490  -10.7150 C.2     1  UNL1        0.0290
     26  C         26.0590  -21.3800  -10.9450 C.2     1  UNL1        0.0020
     27  C         26.6480  -22.2040  -11.8990 C.2     1  UNL1        0.0000
     28  C         25.8590  -23.0950  -12.6240 C.2     1  UNL1        0.0020
     29  C         24.4810  -23.1650  -12.3940 C.2     1  UNL1        0.0290
@<TRIPOS>BOND
     1    21    20    2
     2    28    29    1
     3    28    27    2
     4    29    24    2
     5     2     3    1
     6     2     1    2
     7    27    26    1
     8    20     1    1
     9    20    22   am
    10     3     4    2
    11    24    22    1
    12    24    25    1
    13     1     7    1
    14    22    23    1
    15    26    25    2
    16     4     5    1
    17     4     6    1
    18     7     6    2
    19     6     8    1
    20    12    11    1
    21     8     9    2
    22     8    10    2
    23     8    11    1
    24    11    13    1
    25    14    13    2
    26    14    15    1
    27    13    18    1
    28    15    16    2
    29    18    19    1
    30    18    17    2
    31    16    17    1
