@<TRIPOS>MOLECULE
64836_out_ligand_01.pdbqt
 32 35 0 0 0
SMALL
GASTEIGER

@<TRIPOS>ATOM
      1  C         22.5280  -22.3970  -11.4270 C.2     1  UNL1        0.0320
      2  C         21.2600  -21.9360  -11.7960 C.2     1  UNL1        0.0190
      3  C         20.1980  -22.0210  -10.8880 C.2     1  UNL1        0.0300
      4  C         20.3840  -22.5700   -9.6110 C.2     1  UNL1        0.0340
      5  C         21.6510  -23.0400   -9.2580 C.2     1  UNL1        0.0300
      6  C         22.7160  -22.9610  -10.1630 C.2     1  UNL1        0.0190
      7  N         19.2600  -22.6110   -8.7620 N.am    1  UNL1       -0.3260
      8  C         18.8670  -23.6440   -7.9190 C.2     1  UNL1        0.2350
      9  O         19.4440  -24.7190   -7.7910 O.2     1  UNL1       -0.2720
     10  H         18.6180  -21.8310   -8.8360 H       1  UNL1        0.1690
     11  C         17.5830  -23.3030   -7.1140 C.3     1  UNL1        0.0680
     12  C         16.6500  -22.3590   -7.9080 C.3     1  UNL1        0.0240
     13  C         15.2600  -22.6220   -7.3390 C.3     1  UNL1        0.0020
     14  C         15.2500  -24.1000   -6.9690 C.3     1  UNL1        0.0020
     15  C         16.7020  -24.5750   -7.0590 C.3     1  UNL1        0.0240
     16  C         17.9530  -22.6670   -5.7620 C.2     1  UNL1       -0.0400
     17  C         18.5810  -21.4180   -5.6410 C.2     1  UNL1        0.0080
     18  C         18.8790  -20.8820   -4.3840 C.2     1  UNL1        0.0010
     19  C         18.5580  -21.5830   -3.2260 C.2     1  UNL1        0.0000
     20  C         17.9400  -22.8260   -3.3210 C.2     1  UNL1        0.0010
     21  C         17.6420  -23.3620   -4.5760 C.2     1  UNL1        0.0080
     22  C         23.6860  -22.3330  -12.3630 C.2     1  UNL1        0.2560
     23  O         24.6670  -23.0240  -12.1200 O.2     1  UNL1       -0.2670
     24  N         23.5320  -21.4440  -13.4120 N.am    1  UNL1       -0.3230
     25  H         22.7180  -20.8440  -13.3860 H       1  UNL1        0.1690
     26  C         24.4340  -21.2070  -14.4700 C.2     1  UNL1        0.0350
     27  C         24.6510  -22.0970  -15.5260 C.2     1  UNL1        0.0320
     28  C         25.5590  -21.7850  -16.5410 C.2     1  UNL1        0.0440
     29  C         26.2480  -20.5810  -16.5010 C.2     1  UNL1        0.1160
     30  F         27.1180  -20.2810  -17.4750 F       1  UNL1       -0.2060
     31  C         26.0470  -19.6800  -15.4630 C.2     1  UNL1        0.0440
     32  C         25.1380  -19.9930  -14.4490 C.2     1  UNL1        0.0320
@<TRIPOS>BOND
     1    30    29    1
     2    28    29    2
     3    28    27    1
     4    29    31    1
     5    27    26    2
     6    31    32    2
     7    26    32    1
     8    26    24    1
     9    24    25    1
    10    24    22   am
    11    22    23    2
    12    22     1    1
    13     2     1    2
    14     2     3    1
    15     1     6    1
    16     3     4    2
    17     6     5    2
    18     4     5    1
    19     4     7    1
    20    10     7    1
    21     7     8   am
    22     8     9    2
    23     8    11    1
    24    12    13    1
    25    12    11    1
    26    13    14    1
    27    11    15    1
    28    11    16    1
    29    15    14    1
    30    16    17    2
    31    16    21    1
    32    17    18    1
    33    21    20    2
    34    18    19    2
    35    20    19    1
