@<TRIPOS>MOLECULE
64839_out_ligand_01.pdbqt
 29 32 0 0 0
SMALL
GASTEIGER

@<TRIPOS>ATOM
      1  C         19.7250  -22.1150   -9.9840 C.2     1  UNL1        0.0330
      2  C         19.2850  -21.5130  -11.1900 C.2     1  UNL1        0.0180
      3  C         20.1750  -21.3000  -12.2500 C.2     1  UNL1        0.0190
      4  C         21.4840  -21.7060  -12.0680 C.2     1  UNL1        0.0480
      5  C         21.9100  -22.3080  -10.8970 C.2     1  UNL1        0.0490
      6  C         21.0560  -22.5360   -9.8370 C.2     1  UNL1        0.0350
      7  C         23.3320  -22.6130  -11.0520 C.2     1  UNL1        0.2620
      8  O         24.0120  -23.1560  -10.2040 O.2     1  UNL1       -0.2670
      9  N         23.6870  -22.1750  -12.2980 N.am    1  UNL1       -0.2740
     10  C         22.6310  -21.6310  -12.9720 C.2     1  UNL1        0.2620
     11  O         22.5730  -21.1760  -14.0980 O.2     1  UNL1       -0.2670
     12  C         18.7820  -22.3600   -8.8570 C.2     1  UNL1        0.2560
     13  N         19.2690  -22.0220   -7.6080 N.am    1  UNL1       -0.3230
     14  H         20.2420  -21.7530   -7.5470 H       1  UNL1        0.1690
     15  O         17.6960  -22.8600   -9.1220 O.2     1  UNL1       -0.2670
     16  C         18.5880  -22.1070   -6.3730 C.2     1  UNL1        0.0350
     17  C         19.0150  -21.2500   -5.3520 C.2     1  UNL1        0.0290
     18  C         18.3900  -21.2650   -4.1050 C.2     1  UNL1        0.0030
     19  C         17.3300  -22.1400   -3.8680 C.2     1  UNL1        0.0110
     20  C         16.8920  -23.0130   -4.8700 C.2     1  UNL1       -0.0350
     21  C         17.5210  -22.9770   -6.1260 C.2     1  UNL1        0.0410
     22  C         15.7510  -23.8970   -4.5830 C.2     1  UNL1        0.0010
     23  C         14.5720  -23.8520   -5.2160 C.2     1  UNL1        0.0120
     24  C         25.0270  -22.2690  -12.8320 C.3     1  UNL1        0.2000
     25  C         25.7750  -21.0270  -12.5020 C.2     1  UNL1        0.0700
     26  C         26.2170  -20.4740  -11.3150 C.2     1  UNL1        0.0360
     27  C         26.8700  -19.2650  -11.6560 C.2     1  UNL1        0.0270
     28  C         26.7860  -19.1570  -13.0240 C.2     1  UNL1        0.1420
     29  O         26.1230  -20.2210  -13.5460 O.2     1  UNL1       -0.3250
@<TRIPOS>BOND
     1    11    10    2
     2    29    28    1
     3    29    25    1
     4    28    27    2
     5    10     9   am
     6    10     4    1
     7    24    25    1
     8    24     9    1
     9    25    26    2
    10     9     7   am
    11     3     4    2
    12     3     2    1
    13     4     5    1
    14    27    26    1
    15     2     1    2
    16     7     5    1
    17     7     8    2
    18     5     6    2
    19     1     6    1
    20     1    12    1
    21    15    12    2
    22    12    13   am
    23    13    14    1
    24    13    16    1
    25    16    21    2
    26    16    17    1
    27    21    20    1
    28    17    18    2
    29    23    22    2
    30    20    22    1
    31    20    19    2
    32    18    19    1
