@<TRIPOS>MOLECULE
64843_out_ligand_01.pdbqt
 34 37 0 0 0
SMALL
GASTEIGER

@<TRIPOS>ATOM
      1  C         22.2610  -22.6640  -10.5480 C.ar    1  UNL1        0.1000
      2  N         22.5530  -23.6220   -9.6420 N.ar    1  UNL1       -0.1470
      3  N         21.5510  -24.2380   -8.9440 N.ar    1  UNL1       -0.1310
      4  C         20.2580  -23.9060   -9.1400 C.ar    1  UNL1        0.1610
      5  C         19.9040  -22.9130  -10.0830 C.ar    1  UNL1        0.0240
      6  C         18.5610  -22.5400  -10.3540 C.2     1  UNL1        0.0160
      7  C         18.2430  -21.5380  -11.2700 C.2     1  UNL1        0.0010
      8  C         19.2580  -20.8780  -11.9440 C.2     1  UNL1        0.0010
      9  C         20.5870  -21.2330  -11.7120 C.2     1  UNL1        0.0150
     10  C         20.9360  -22.2590  -10.7970 C.ar    1  UNL1        0.0090
     11  N         19.2360  -24.5440   -8.3830 N.pl3   1  UNL1       -0.3390
     12  H         18.6770  -25.1130   -9.0120 H       1  UNL1        0.1670
     13  C         18.4490  -24.0020   -7.3440 C.2     1  UNL1        0.0340
     14  C         17.1500  -24.4290   -7.0710 C.2     1  UNL1        0.0320
     15  C         16.3790  -23.8210   -6.0720 C.2     1  UNL1        0.0400
     16  C         16.8790  -22.7450   -5.3290 C.2     1  UNL1        0.0840
     17  C         18.1710  -22.2680   -5.6220 C.2     1  UNL1        0.0670
     18  C         18.9310  -22.8970   -6.6310 C.2     1  UNL1        0.0490
     19  O         16.1670  -22.1180   -4.3370 O.2     1  UNL1       -0.3550
     20  C         14.7460  -22.1950   -4.3900 C.3     1  UNL1        0.2100
     21  C         18.8350  -21.1130   -4.9380 C.2     1  UNL1        0.2520
     22  N         18.5790  -20.9030   -3.6160 N.am    1  UNL1       -0.3660
     23  H         17.9710  -21.5230   -3.0930 H       1  UNL1        0.1590
     24  H         19.0360  -20.1350   -3.1480 H       1  UNL1        0.1590
     25  O         19.5950  -20.3610   -5.5390 O.2     1  UNL1       -0.2680
     26  C         23.4430  -22.1130  -11.2270 C.2     1  UNL1       -0.0050
     27  C         23.5850  -22.1850  -12.6210 C.2     1  UNL1        0.0160
     28  C         24.7150  -21.6550  -13.2520 C.2     1  UNL1        0.0370
     29  C         25.7340  -21.0550  -12.5090 C.2     1  UNL1        0.0680
     30  C         25.6100  -20.9860  -11.1230 C.2     1  UNL1        0.0370
     31  C         24.4780  -21.5150  -10.4890 C.2     1  UNL1        0.0160
     32  O         26.7730  -20.5780  -13.2570 O.2     1  UNL1       -0.3520
     33  C         26.9070  -19.1670  -13.4240 C.3     1  UNL1        0.1710
     34  C         26.4430  -18.7420  -14.8070 C.3     1  UNL1        0.0340
@<TRIPOS>BOND
     1    34    33    1
     2    33    32    1
     3    32    29    1
     4    28    27    1
     5    28    29    2
     6    27    26    2
     7    29    30    1
     8     8     9    2
     9     8     7    1
    10     9    10    1
    11     7     6    2
    12    26     1    1
    13    26    31    1
    14    30    31    2
    15    10     1   ar
    16    10     5   ar
    17     1     2   ar
    18     6     5    1
    19     5     4   ar
    20     2     3   ar
    21     4     3   ar
    22     4    11    1
    23    12    11    1
    24    11    13    1
    25    13    14    2
    26    13    18    1
    27    14    15    1
    28    18    17    2
    29    15    16    2
    30    17    16    1
    31    17    21    1
    32    25    21    2
    33    16    19    1
    34    21    22   am
    35    20    19    1
    36    22    24    1
    37    22    23    1
