@<TRIPOS>MOLECULE
64849_out_ligand_01.pdbqt
 30 33 0 0 0
SMALL
GASTEIGER

@<TRIPOS>ATOM
      1  C         20.2740  -22.2290   -7.5080 C.3     1  UNL1        0.0500
      2  C         21.1520  -22.3750   -8.7250 C.2     1  UNL1       -0.0350
      3  C         22.5380  -22.4860   -8.5300 C.2     1  UNL1        0.0100
      4  C         23.4060  -22.6210   -9.6160 C.2     1  UNL1        0.0160
      5  C         22.9040  -22.6450  -10.9200 C.2     1  UNL1        0.0120
      6  C         21.5180  -22.5240  -11.1150 C.2     1  UNL1        0.0450
      7  C         20.6320  -22.3960  -10.0370 C.2     1  UNL1        0.0410
      8  N         19.2330  -22.2700  -10.2120 N.am    1  UNL1       -0.3270
      9  C         18.5450  -21.3220  -10.9500 C.2     1  UNL1        0.2220
     10  O         19.0260  -20.4550  -11.6700 O.2     1  UNL1       -0.2730
     11  H         18.6620  -22.9410   -9.7170 H       1  UNL1        0.1690
     12  C         17.0370  -21.4690  -10.8120 C.3     1  UNL1        0.1030
     13  C         16.6370  -22.8300  -10.2370 C.3     1  UNL1        0.0140
     14  C         15.7120  -22.7560   -9.0120 C.3     1  UNL1        0.0390
     15  C         16.3990  -23.0760   -7.7060 C.2     1  UNL1       -0.0580
     16  C         16.9780  -24.3370   -7.5020 C.2     1  UNL1        0.0070
     17  C         17.6050  -24.6430   -6.2920 C.2     1  UNL1        0.0010
     18  C         17.6630  -23.6930   -5.2750 C.2     1  UNL1        0.0000
     19  C         17.0940  -22.4350   -5.4680 C.2     1  UNL1        0.0010
     20  C         16.4650  -22.1270   -6.6770 C.2     1  UNL1        0.0070
     21  C         23.7860  -22.7740  -12.0840 C.ar    1  UNL1        0.1390
     22  N         23.8260  -21.9610  -13.1260 N.ar    1  UNL1       -0.2280
     23  C         24.7720  -22.4740  -13.9770 C.ar    1  UNL1        0.0860
     24  C         25.2070  -22.0020  -15.2250 C.2     1  UNL1        0.0340
     25  C         25.3290  -23.6340  -13.4560 C.ar    1  UNL1        0.0620
     26  C         26.1950  -22.7250  -15.9060 C.2     1  UNL1        0.0020
     27  C         26.7360  -23.8920  -15.3570 C.2     1  UNL1        0.0020
     28  C         26.3130  -24.3760  -14.1130 C.2     1  UNL1        0.0320
     29  N         24.6850  -23.8030  -12.2580 N.ar    1  UNL1       -0.3380
     30  H         24.8210  -24.5730  -11.6210 H       1  UNL1        0.1670
@<TRIPOS>BOND
     1    26    27    2
     2    26    24    1
     3    27    28    1
     4    24    23    2
     5    28    25    2
     6    23    25   ar
     7    23    22   ar
     8    25    29   ar
     9    22    21   ar
    10    29    21   ar
    11    29    30    1
    12    21     5    1
    13    10     9    2
    14     6     5    2
    15     6     7    1
    16     9    12    1
    17     9     8   am
    18     5     4    1
    19    12    13    1
    20    13    14    1
    21     8     7    1
    22     8    11    1
    23     7     2    2
    24     4     3    2
    25    14    15    1
    26     2     3    1
    27     2     1    1
    28    15    16    2
    29    15    20    1
    30    16    17    1
    31    20    19    2
    32    17    18    2
    33    19    18    1
