@<TRIPOS>MOLECULE
64856_out_ligand_01.pdbqt
 35 37 0 0 0
SMALL
GASTEIGER

@<TRIPOS>ATOM
      1  N         23.2140  -22.4870  -10.4130 N.3     1  UNL1       -0.2940
      2  C         22.2610  -22.9770  -11.4400 C.3     1  UNL1        0.1740
      3  C         20.9090  -22.3170  -11.3840 C.2     1  UNL1       -0.0400
      4  C         20.7330  -21.0040  -11.8380 C.2     1  UNL1        0.0090
      5  C         19.4780  -20.3940  -11.7690 C.2     1  UNL1        0.0070
      6  C         18.3710  -21.0910  -11.2610 C.2     1  UNL1       -0.0620
      7  C         17.0290  -20.4270  -11.1410 C.3     1  UNL1        0.0480
      8  C         18.5440  -22.4050  -10.8130 C.2     1  UNL1        0.0070
      9  C         19.7990  -23.0150  -10.8780 C.2     1  UNL1        0.0090
     10  C         23.1070  -23.2160   -9.1160 C.3     1  UNL1        0.2380
     11  C         22.0990  -22.4780   -8.2320 C.2     1  UNL1        0.2400
     12  O         22.3880  -21.4000   -7.7140 O.2     1  UNL1       -0.2710
     13  N         20.9080  -23.1670   -8.0800 N.am    1  UNL1       -0.3260
     14  H         20.8600  -24.0810   -8.5380 H       1  UNL1        0.1690
     15  C         19.8140  -22.8450   -7.2580 C.2     1  UNL1        0.0340
     16  C         19.7180  -21.6760   -6.5020 C.2     1  UNL1        0.0300
     17  C         18.6070  -21.4500   -5.6780 C.2     1  UNL1        0.0190
     18  C         17.5720  -22.3890   -5.6110 C.2     1  UNL1        0.0320
     19  C         17.6640  -23.5560   -6.3790 C.2     1  UNL1        0.0190
     20  C         18.7740  -23.7800   -7.1970 C.2     1  UNL1        0.0300
     21  C         16.3660  -22.2200   -4.7470 C.2     1  UNL1        0.2490
     22  N         16.5530  -21.9770   -3.4120 N.am    1  UNL1       -0.3660
     23  H         17.4350  -21.7030   -3.0070 H       1  UNL1        0.1590
     24  H         15.7190  -21.7670   -2.8840 H       1  UNL1        0.1590
     25  O         15.2300  -22.2750   -5.2090 O.2     1  UNL1       -0.2680
     26  S         24.8090  -22.1810  -10.9150 S.O2    1  UNL1        0.2610
     27  O         25.0730  -20.7720  -10.6790 O.2     1  UNL1       -0.2000
     28  O         25.6610  -23.1950  -10.3270 O.2     1  UNL1       -0.2000
     29  C         24.7740  -22.3910  -12.6760 C.2     1  UNL1        0.0790
     30  C         25.2430  -23.5750  -13.2510 C.2     1  UNL1        0.0260
     31  C         25.2050  -23.7220  -14.6410 C.2     1  UNL1        0.0200
     32  C         24.7070  -22.6840  -15.4380 C.2     1  UNL1        0.0110
     33 BR         24.6530  -22.8890  -17.3170 Br      1  UNL1       -0.0510
     34  C         24.2550  -21.4950  -14.8590 C.2     1  UNL1        0.0200
     35  C         24.2940  -21.3410  -13.4730 C.2     1  UNL1        0.0260
@<TRIPOS>BOND
     1    33    32    1
     2    32    34    2
     3    32    31    1
     4    34    35    1
     5    31    30    2
     6    35    29    2
     7    30    29    1
     8    29    26    1
     9     4     5    1
    10     4     3    2
    11     5     6    2
    12     2     3    1
    13     2     1    1
    14     3     9    1
    15     6     7    1
    16     6     8    1
    17    26    27    2
    18    26     1    1
    19    26    28    2
    20     9     8    2
    21     1    10    1
    22    10    11    1
    23    14    13    1
    24    11    13   am
    25    11    12    2
    26    13    15    1
    27    15    20    2
    28    15    16    1
    29    20    19    1
    30    16    17    2
    31    19    18    2
    32    17    18    1
    33    18    21    1
    34    25    21    2
    35    21    22   am
    36    22    23    1
    37    22    24    1
