@<TRIPOS>MOLECULE
64852_out_ligand_01.pdbqt
 31 34 0 0 0
SMALL
GASTEIGER

@<TRIPOS>ATOM
      1  C         20.3920  -22.3350   -9.5470 C.2     1  UNL1        0.0340
      2  C         21.6640  -22.4510   -8.9680 C.2     1  UNL1        0.0310
      3  C         22.8160  -22.4020   -9.7560 C.2     1  UNL1        0.0270
      4  C         22.6990  -22.2410  -11.1370 C.2     1  UNL1        0.0750
      5  C         21.4410  -22.1080  -11.7270 C.2     1  UNL1        0.0270
      6  C         20.2920  -22.1580  -10.9300 C.2     1  UNL1        0.0310
      7  N         19.2860  -22.3890   -8.6760 N.am    1  UNL1       -0.3260
      8  C         18.8200  -23.4820   -7.9570 C.2     1  UNL1        0.2350
      9  O         19.3440  -24.5920   -7.9390 O.2     1  UNL1       -0.2720
     10  H         18.8320  -21.5040   -8.4870 H       1  UNL1        0.1690
     11  C         17.5120  -23.1810   -7.1600 C.3     1  UNL1        0.0680
     12  C         16.5890  -22.2860   -8.0160 C.3     1  UNL1        0.0240
     13  C         15.9990  -23.2300   -9.0570 C.3     1  UNL1        0.0020
     14  C         15.8580  -24.5710   -8.3460 C.3     1  UNL1        0.0020
     15  C         16.6330  -24.4480   -7.0320 C.3     1  UNL1        0.0240
     16  C         17.8690  -22.6270   -5.7750 C.2     1  UNL1       -0.0400
     17  C         17.5010  -23.2710   -4.5820 C.2     1  UNL1        0.0080
     18  C         17.8210  -22.7150   -3.3390 C.2     1  UNL1        0.0010
     19  C         18.5070  -21.5060   -3.2670 C.2     1  UNL1        0.0000
     20  C         18.8740  -20.8490   -4.4370 C.2     1  UNL1        0.0010
     21  C         18.5560  -21.4030   -5.6790 C.2     1  UNL1        0.0080
     22  S         24.1680  -22.1540  -12.1280 S.O2    1  UNL1        0.2470
     23  O         24.5630  -23.5000  -12.4790 O.2     1  UNL1       -0.2050
     24  O         25.1000  -21.2650  -11.4630 O.2     1  UNL1       -0.2050
     25  N         23.6250  -21.2920  -13.4670 N.pl3   1  UNL1       -0.1590
     26  H         23.5810  -20.3030  -13.2310 H       1  UNL1        0.1480
     27  C         24.3880  -21.5730  -14.6580 C.2     1  UNL1        0.1580
     28  N         23.8410  -22.1760  -15.6820 N.2     1  UNL1       -0.2400
     29  C         24.7780  -22.2850  -16.6930 C.2     1  UNL1        0.1260
     30  C         26.0100  -21.7240  -16.4270 C.2     1  UNL1        0.0720
     31  S         25.9950  -21.0310  -14.8560 S.3     1  UNL1       -0.0680
@<TRIPOS>BOND
     1    29    30    2
     2    29    28    1
     3    30    31    1
     4    28    27    2
     5    31    27    1
     6    27    25    1
     7    25    26    1
     8    25    22    1
     9    23    22    2
    10    22    24    2
    11    22     4    1
    12     5     4    2
    13     5     6    1
    14     4     3    1
    15     6     1    2
    16     3     2    2
    17     1     2    1
    18     1     7    1
    19    13    14    1
    20    13    12    1
    21     7    10    1
    22     7     8   am
    23    14    15    1
    24    12    11    1
    25     8     9    2
    26     8    11    1
    27    11    15    1
    28    11    16    1
    29    16    21    2
    30    16    17    1
    31    21    20    1
    32    17    18    2
    33    20    19    2
    34    18    19    1
