@<TRIPOS>MOLECULE
64881_out_ligand_01.pdbqt
 33 35 0 0 0
SMALL
GASTEIGER

@<TRIPOS>ATOM
      1  N         22.4930  -23.9440  -10.0360 N.am    1  UNL1       -0.3670
      2  H         22.6360  -24.6820  -10.7150 H       1  UNL1        0.1610
      3  C         23.3980  -22.8960  -10.1820 C.2     1  UNL1        0.1720
      4  S         23.2120  -21.4040   -9.4540 S.2     1  UNL1       -0.0410
      5  N         24.3990  -23.2970  -11.0590 N.am    1  UNL1       -0.3330
      6  H         25.0630  -23.9280  -10.6290 H       1  UNL1        0.1680
      7  C         24.5510  -23.1470  -12.4550 C.2     1  UNL1        0.0340
      8  C         25.2470  -24.0350  -13.2780 C.2     1  UNL1        0.0310
      9  C         25.3220  -23.8190  -14.6600 C.2     1  UNL1        0.0270
     10  C         24.6760  -22.7200  -15.2260 C.2     1  UNL1        0.0740
     11  C         23.9650  -21.8300  -14.4220 C.2     1  UNL1        0.0270
     12  C         23.8960  -22.0540  -13.0440 C.2     1  UNL1        0.0310
     13  S         24.7960  -22.4360  -16.9660 S.O2    1  UNL1        0.2390
     14  O         24.4560  -21.0600  -17.2490 O.2     1  UNL1       -0.2060
     15  O         25.9980  -23.0570  -17.4700 O.2     1  UNL1       -0.2060
     16  N         23.5180  -23.3520  -17.5560 N.3     1  UNL1       -0.2250
     17  H         22.6740  -23.1490  -17.0210 H       1  UNL1        0.1360
     18  H         23.4180  -23.1950  -18.5590 H       1  UNL1        0.1360
     19  C         21.8920  -24.3740   -8.7770 C.3     1  UNL1        0.1230
     20  C         20.3600  -24.2950   -8.7790 C.3     1  UNL1        0.0340
     21  C         19.7970  -22.8840   -8.4630 C.3     1  UNL1        0.0530
     22  C         18.9830  -22.2680   -9.6040 C.2     1  UNL1       -0.0500
     23  C         17.5810  -22.2210   -9.6030 C.2     1  UNL1        0.0080
     24  C         16.8840  -21.6370  -10.6650 C.2     1  UNL1        0.0010
     25  C         17.5780  -21.0860  -11.7400 C.2     1  UNL1        0.0000
     26  C         18.9680  -21.1150  -11.7530 C.2     1  UNL1        0.0010
     27  C         19.6660  -21.6980  -10.6930 C.2     1  UNL1        0.0080
     28  C         19.0260  -22.8530   -7.1470 C.2     1  UNL1       -0.0500
     29  C         19.0780  -21.7100   -6.3320 C.2     1  UNL1        0.0080
     30  C         18.4230  -21.6850   -5.1000 C.2     1  UNL1        0.0010
     31  C         17.7010  -22.7950   -4.6700 C.2     1  UNL1        0.0000
     32  C         17.6290  -23.9320   -5.4730 C.2     1  UNL1        0.0010
     33  C         18.2870  -23.9610   -6.7030 C.2     1  UNL1        0.0080
@<TRIPOS>BOND
     1    18    16    1
     2    16    17    1
     3    16    13    1
     4    15    13    2
     5    14    13    2
     6    13    10    1
     7    10     9    2
     8    10    11    1
     9     9     8    1
    10    11    12    2
    11     8     7    2
    12    12     7    1
    13     7     5    1
    14    26    25    2
    15    26    27    1
    16    25    24    1
    17     5     6    1
    18     5     3    1
    19     2     1    1
    20    27    22    2
    21    24    23    2
    22     3     1    1
    23     3     4    2
    24     1    19    1
    25    22    23    1
    26    22    21    1
    27    20    19    1
    28    20    21    1
    29    21    28    1
    30    28    33    2
    31    28    29    1
    32    33    32    1
    33    29    30    2
    34    32    31    2
    35    30    31    1
