@<TRIPOS>MOLECULE
64891_out_ligand_01.pdbqt
 36 39 0 0 0
SMALL
GASTEIGER

@<TRIPOS>ATOM
      1  C         20.6770  -22.0070  -10.6290 C.2     1  UNL1        0.1030
      2  C         21.2200  -21.9140  -11.9130 C.2     1  UNL1        0.0510
      3  C         22.4710  -22.4860  -12.2030 C.2     1  UNL1       -0.0320
      4  C         23.1980  -23.1290  -11.1940 C.2     1  UNL1        0.0140
      5  C         22.6730  -23.2230   -9.9080 C.2     1  UNL1        0.0410
      6  C         21.4300  -22.6500   -9.6370 C.2     1  UNL1        0.1120
      7  C         23.0070  -22.3790  -13.5630 C.2     1  UNL1        0.0320
      8  C         24.0770  -21.6790  -13.9930 C.2     1  UNL1        0.0810
      9  C         25.0250  -20.8610  -13.1480 C.2     1  UNL1        0.1440
     10  C         24.2860  -21.6640  -15.4920 C.2     1  UNL1        0.2830
     11  N         25.2030  -21.0710  -11.8780 N.2     1  UNL1       -0.2830
     12  N         25.7310  -19.8910  -13.8470 N.pl3   1  UNL1       -0.2780
     13  H         24.6410  -21.8500  -11.5280 H       1  UNL1        0.1880
     14  C         26.5720  -18.8830  -13.3240 C.2     1  UNL1        0.0230
     15  C         25.6600  -19.8540  -15.2290 C.2     1  UNL1        0.1820
     16  C         26.8210  -18.7080  -11.8600 C.3     1  UNL1        0.0690
     17  C         27.1210  -18.0790  -14.2570 C.2     1  UNL1        0.0780
     18  S         26.6350  -18.5180  -15.8700 S.3     1  UNL1       -0.0610
     19  N         25.0210  -20.6310  -16.0270 N.am    1  UNL1       -0.1840
     20  O         23.7940  -22.5390  -16.1970 O.2     1  UNL1       -0.2650
     21  O         19.4640  -21.5150  -10.2320 O.2     1  UNL1       -0.3490
     22  C         18.3120  -21.7830  -11.0290 C.3     1  UNL1        0.1710
     23  C         17.1130  -22.0950  -10.1510 C.3     1  UNL1        0.0340
     24  O         20.8810  -22.7880   -8.3570 O.3     1  UNL1       -0.2720
     25  C         20.1490  -23.9470   -8.2010 C.2     1  UNL1        0.2980
     26  O         20.3910  -25.0500   -8.6610 O.2     1  UNL1       -0.2590
     27  C         18.9260  -23.6390   -7.4170 C.2     1  UNL1        0.0400
     28  C         17.9460  -24.6250   -7.2960 C.2     1  UNL1        0.0180
     29  C         16.7730  -24.3750   -6.5730 C.2     1  UNL1        0.0090
     30  C         16.5530  -23.1400   -5.9420 C.2     1  UNL1       -0.0510
     31  C         17.5680  -22.1680   -6.0540 C.2     1  UNL1        0.0090
     32  C         18.7380  -22.4090   -6.7840 C.2     1  UNL1        0.0180
     33  C         15.2790  -22.8400   -5.1350 C.3     1  UNL1       -0.0240
     34  C         14.4750  -24.1450   -4.9550 C.3     1  UNL1        0.0190
     35  C         14.3430  -21.8070   -5.8020 C.3     1  UNL1        0.0190
     36  C         15.6440  -22.2780   -3.7430 C.3     1  UNL1        0.0190
@<TRIPOS>BOND
     1    20    10    2
     2    19    10    1
     3    19    15    2
     4    18    15    1
     5    18    17    1
     6    10     8    1
     7    15    12    1
     8    17    14    2
     9     8     7    2
    10     8     9    1
    11    12    14    1
    12    12     9    1
    13     7     3    1
    14    14    16    1
    15     9    11    2
    16     3     2    1
    17     3     4    2
    18     2     1    2
    19    11    13    1
    20     4     5    1
    21    22    21    1
    22    22    23    1
    23     1    21    1
    24     1     6    1
    25     5     6    2
    26     6    24    1
    27    26    25    2
    28    24    25    1
    29    25    27    1
    30    27    28    2
    31    27    32    1
    32    28    29    1
    33    32    31    2
    34    29    30    2
    35    31    30    1
    36    30    33    1
    37    35    33    1
    38    33    34    1
    39    33    36    1
