@<TRIPOS>MOLECULE
64903_out_ligand_01.pdbqt
 32 35 0 0 0
SMALL
GASTEIGER

@<TRIPOS>ATOM
      1  C         20.6050  -22.7620  -10.4350 C.2     1  UNL1        0.0330
      2  C         19.9320  -21.8100  -11.2410 C.2     1  UNL1        0.0180
      3  C         20.5860  -21.1860  -12.3120 C.2     1  UNL1        0.0190
      4  C         21.9050  -21.5290  -12.5360 C.2     1  UNL1        0.0480
      5  C         22.5690  -22.4460  -11.7410 C.2     1  UNL1        0.0490
      6  C         21.9530  -23.0780  -10.6780 C.2     1  UNL1        0.0350
      7  C         23.9350  -22.5610  -12.2480 C.2     1  UNL1        0.2620
      8  O         24.7840  -23.2930  -11.7770 O.2     1  UNL1       -0.2670
      9  N         24.0230  -21.7110  -13.3160 N.am    1  UNL1       -0.2760
     10  C         22.8460  -21.0590  -13.5510 C.2     1  UNL1        0.2620
     11  O         22.5740  -20.2470  -14.4130 O.2     1  UNL1       -0.2670
     12  C         19.9300  -23.4280   -9.2830 C.2     1  UNL1        0.2560
     13  O         20.4180  -24.4670   -8.8590 O.2     1  UNL1       -0.2670
     14  N         18.7790  -22.8000   -8.8360 N.am    1  UNL1       -0.3220
     15  H         18.4530  -22.0170   -9.3930 H       1  UNL1        0.1690
     16  C         17.9530  -23.1700   -7.7440 C.2     1  UNL1        0.0500
     17  C         18.4380  -23.2030   -6.4280 C.2     1  UNL1        0.0300
     18  C         17.6140  -23.5660   -5.3580 C.2     1  UNL1        0.0020
     19  C         16.2860  -23.9020   -5.5810 C.2     1  UNL1        0.0010
     20  C         15.7830  -23.8700   -6.8770 C.2     1  UNL1        0.0180
     21  C         16.6000  -23.5040   -7.9700 C.2     1  UNL1        0.0740
     22  C         15.9530  -23.5040   -9.3320 C.3     1  UNL1        0.4190
     23  F         16.8410  -23.5060  -10.3720 F       1  UNL1       -0.1660
     24  F         15.1630  -22.4130   -9.5370 F       1  UNL1       -0.1660
     25  F         15.1530  -24.5870   -9.5330 F       1  UNL1       -0.1660
     26  C         25.2310  -21.4940  -14.0810 C.3     1  UNL1        0.1750
     27  C         25.0820  -21.9790  -15.4970 C.2     1  UNL1       -0.0220
     28  C         25.0920  -21.0910  -16.5770 C.2     1  UNL1        0.0120
     29  C         24.9290  -21.5770  -17.8700 C.2     1  UNL1        0.0200
     30  C         24.7520  -22.9400  -18.0410 C.2     1  UNL1        0.1160
     31  N         24.7240  -23.8260  -17.0230 N.2     1  UNL1       -0.2730
     32  C         24.8820  -23.3270  -15.7760 C.2     1  UNL1        0.1240
@<TRIPOS>BOND
     1    30    29    2
     2    30    31    1
     3    29    28    1
     4    31    32    2
     5    28    27    2
     6    32    27    1
     7    27    26    1
     8    11    10    2
     9    26     9    1
    10    10     9   am
    11    10     4    1
    12     9     7   am
    13     4     3    2
    14     4     5    1
    15     3     2    1
    16     7     8    2
    17     7     5    1
    18     5     6    2
    19     2     1    2
    20     6     1    1
    21     1    12    1
    22    23    22    1
    23    24    22    1
    24    25    22    1
    25    15    14    1
    26    22    21    1
    27    12    13    2
    28    12    14   am
    29    14    16    1
    30    21    16    2
    31    21    20    1
    32    16    17    1
    33    20    19    2
    34    17    18    2
    35    19    18    1
