@<TRIPOS>MOLECULE
64902_out_ligand_01.pdbqt
 27 30 0 0 0
SMALL
GASTEIGER

@<TRIPOS>ATOM
      1  C         17.4940  -22.1530  -10.1800 C.2     1  UNL1        0.1430
      2  C         16.2060  -21.7020  -10.4160 C.2     1  UNL1        0.0450
      3  C         15.3330  -22.5340   -9.6740 C.2     1  UNL1        0.0380
      4  C         16.1300  -23.4480   -9.0210 C.2     1  UNL1        0.0780
      5  O         17.4380  -23.2180   -9.3190 O.2     1  UNL1       -0.3070
      6  C         15.8520  -24.5780   -8.0970 C.3     1  UNL1        0.2400
      7  O         16.8710  -24.6100   -7.0940 O.2     1  UNL1       -0.3440
      8  C         16.6910  -23.8490   -5.9620 C.2     1  UNL1        0.0800
      9  C         15.6230  -24.0190   -5.0730 C.2     1  UNL1        0.0370
     10  C         15.4990  -23.1960   -3.9560 C.2     1  UNL1        0.0040
     11  C         16.4330  -22.1890   -3.7210 C.2     1  UNL1        0.0120
     12  C         17.5020  -21.9850   -4.6050 C.2     1  UNL1       -0.0230
     13  C         18.4370  -20.9620   -4.3700 C.2     1  UNL1        0.0120
     14  C         17.6390  -22.8160   -5.7430 C.2     1  UNL1        0.0070
     15  C         19.5020  -20.7480   -5.2440 C.2     1  UNL1        0.0010
     16  C         19.6470  -21.5560   -6.3650 C.2     1  UNL1        0.0010
     17  C         18.7270  -22.5760   -6.6120 C.2     1  UNL1        0.0150
     18  C         18.8020  -21.7270  -10.6480 C.2     1  UNL1        0.2750
     19  O         18.9690  -20.8710  -11.5130 O.2     1  UNL1       -0.2650
     20  N         19.8750  -22.3540  -10.0340 N.am    1  UNL1       -0.3510
     21  H         19.6930  -22.8980   -9.2030 H       1  UNL1        0.1630
     22  C         21.2480  -21.9430  -10.2900 C.3     1  UNL1        0.0840
     23  C         22.1500  -22.2510   -9.0900 C.3     1  UNL1        0.0250
     24  C         23.5760  -21.7370   -9.3020 C.3     1  UNL1        0.0020
     25  C         23.9910  -21.6720  -10.7730 C.3     1  UNL1        0.0000
     26  C         23.3030  -22.7480  -11.6010 C.3     1  UNL1        0.0020
     27  C         21.7780  -22.6140  -11.5670 C.3     1  UNL1        0.0250
@<TRIPOS>BOND
     1    26    27    1
     2    26    25    1
     3    27    22    1
     4    19    18    2
     5    25    24    1
     6    18     1    1
     7    18    20   am
     8     2     1    2
     9     2     3    1
    10    22    20    1
    11    22    23    1
    12     1     5    1
    13    20    21    1
    14     3     4    2
    15     5     4    1
    16    24    23    1
    17     4     6    1
    18     6     7    1
    19     7     8    1
    20    17    16    2
    21    17    14    1
    22    16    15    1
    23     8    14    2
    24     8     9    1
    25    14    12    1
    26    15    13    2
    27     9    10    2
    28    12    13    1
    29    12    11    2
    30    10    11    1
