@<TRIPOS>MOLECULE
64936_out_ligand_01.pdbqt
 32 34 0 0 0
SMALL
GASTEIGER

@<TRIPOS>ATOM
      1  C         19.3450  -21.7780  -10.9880 C.2     1  UNL1        0.0320
      2  C         18.0880  -21.1590  -11.0870 C.2     1  UNL1        0.0200
      3  C         16.9580  -21.7870  -10.5590 C.2     1  UNL1        0.0380
      4  C         17.0900  -23.0380   -9.9600 C.2     1  UNL1        0.0790
      5  C         18.3320  -23.6640   -9.8490 C.2     1  UNL1        0.0380
      6  C         19.4600  -23.0360  -10.3790 C.2     1  UNL1        0.0200
      7  O         15.9530  -23.6280   -9.4080 O.3     1  UNL1       -0.2770
      8  C         15.7970  -23.3890   -8.0470 C.2     1  UNL1        0.2880
      9  O         15.3730  -22.3650   -7.5280 O.2     1  UNL1       -0.2620
     10  C         16.2870  -24.5970   -7.2620 C.3     1  UNL1        0.2870
     11  O         16.8150  -24.3150   -5.9760 O.2     1  UNL1       -0.3410
     12  C         17.6800  -23.2630   -5.8310 C.2     1  UNL1        0.0760
     13  C         18.7900  -23.0370   -6.6600 C.2     1  UNL1        0.0440
     14  C         19.6370  -21.9380   -6.4540 C.2     1  UNL1       -0.0590
     15  C         20.8350  -21.7370   -7.3330 C.3     1  UNL1        0.0480
     16  C         19.3820  -21.0740   -5.3880 C.2     1  UNL1        0.0070
     17  C         18.2820  -21.2910   -4.5560 C.2     1  UNL1        0.0110
     18  C         17.4170  -22.3830   -4.7590 C.2     1  UNL1       -0.0210
     19  C         16.2390  -22.5420   -3.8040 C.3     1  UNL1        0.0130
     20  C         16.1860  -23.9280   -3.1530 C.3     1  UNL1        0.0150
     21  C         14.9030  -22.1760   -4.4580 C.3     1  UNL1        0.0150
     22  C         20.5730  -21.1440  -11.5520 C.2     1  UNL1        0.2560
     23  N         21.4660  -22.0290  -12.1290 N.am    1  UNL1       -0.3230
     24  H         21.1630  -22.9890  -12.2280 H       1  UNL1        0.1690
     25  O         20.6790  -19.9250  -11.4840 O.2     1  UNL1       -0.2670
     26  C         22.7310  -21.7330  -12.6800 C.2     1  UNL1        0.0350
     27  C         22.9230  -21.1960  -13.9530 C.2     1  UNL1        0.0300
     28  C         24.2130  -20.9200  -14.4220 C.2     1  UNL1        0.0090
     29  C         25.3320  -21.1630  -13.6200 C.2     1  UNL1       -0.0620
     30  C         26.7110  -20.8880  -14.1390 C.3     1  UNL1        0.0480
     31  C         25.1430  -21.7120  -12.3480 C.2     1  UNL1        0.0090
     32  C         23.8530  -21.9900  -11.8820 C.2     1  UNL1        0.0300
@<TRIPOS>BOND
     1    28    27    1
     2    28    29    2
     3    30    29    1
     4    27    26    2
     5    29    31    1
     6    26    23    1
     7    26    32    1
     8    31    32    2
     9    24    23    1
    10    23    22   am
    11    22    25    2
    12    22     1    1
    13     2     1    2
    14     2     3    1
    15     1     6    1
    16     3     4    2
    17     6     5    2
    18     4     5    1
    19     4     7    1
    20     7     8    1
    21     8     9    2
    22     8    10    1
    23    15    14    1
    24    10    11    1
    25    13    14    1
    26    13    12    2
    27    14    16    2
    28    11    12    1
    29    12    18    1
    30    16    17    1
    31    18    17    2
    32    18    19    1
    33    21    19    1
    34    19    20    1
