@<TRIPOS>MOLECULE
64937_out_ligand_01.pdbqt
 33 36 0 0 0
SMALL
GASTEIGER

@<TRIPOS>ATOM
      1  C         23.9910  -22.0150  -11.1280 C.2     1  UNL1        0.0320
      2  C         23.9120  -21.2720   -9.9410 C.2     1  UNL1        0.0200
      3  C         23.0280  -21.6590   -8.9300 C.2     1  UNL1        0.0380
      4  C         22.2510  -22.8040   -9.1010 C.2     1  UNL1        0.0790
      5  C         22.3180  -23.5500  -10.2760 C.2     1  UNL1        0.0380
      6  C         23.1990  -23.1610  -11.2860 C.2     1  UNL1        0.0200
      7  O         21.3110  -23.2220   -8.1470 O.3     1  UNL1       -0.2780
      8  C         20.3590  -24.1770   -8.5100 C.2     1  UNL1        0.2770
      9  O         20.6060  -25.3190   -8.8880 O.2     1  UNL1       -0.2640
     10  C         18.9430  -23.6320   -8.3240 C.3     1  UNL1        0.1510
     11  C         18.6920  -23.0430   -6.9360 C.2     1  UNL1       -0.0400
     12  C         19.1520  -21.7710   -6.5570 C.2     1  UNL1        0.0080
     13  C         18.8810  -21.2660   -5.2820 C.2     1  UNL1        0.0010
     14  C         18.1410  -22.0180   -4.3730 C.2     1  UNL1        0.0000
     15  C         17.6670  -23.2760   -4.7360 C.2     1  UNL1        0.0010
     16  C         17.9360  -23.7830   -6.0080 C.2     1  UNL1        0.0080
     17  C         18.4830  -22.7450   -9.4820 C.2     1  UNL1       -0.0400
     18  C         19.3410  -22.3720  -10.5290 C.2     1  UNL1        0.0080
     19  C         18.8780  -21.5850  -11.5850 C.2     1  UNL1        0.0010
     20  C         17.5490  -21.1650  -11.6150 C.2     1  UNL1        0.0000
     21  C         16.6820  -21.5340  -10.5900 C.2     1  UNL1        0.0010
     22  C         17.1430  -22.3200   -9.5330 C.2     1  UNL1        0.0080
     23  C         24.9180  -21.6380  -12.2340 C.2     1  UNL1        0.2560
     24  N         24.3270  -20.9640  -13.2870 N.am    1  UNL1       -0.3230
     25  H         23.3210  -20.8760  -13.2710 H       1  UNL1        0.1690
     26  O         26.0920  -21.9780  -12.1440 O.2     1  UNL1       -0.2670
     27  C         24.9600  -20.4590  -14.4430 C.2     1  UNL1        0.0350
     28  C         24.7330  -21.1400  -15.6460 C.2     1  UNL1        0.0300
     29  C         25.3200  -20.7030  -16.8380 C.2     1  UNL1        0.0090
     30  C         26.1520  -19.5810  -16.8470 C.2     1  UNL1       -0.0620
     31  C         26.7660  -19.0870  -18.1220 C.3     1  UNL1        0.0480
     32  C         26.3640  -18.8910  -15.6490 C.2     1  UNL1        0.0090
     33  C         25.7760  -19.3290  -14.4570 C.2     1  UNL1        0.0300
@<TRIPOS>BOND
     1    31    30    1
     2    30    29    2
     3    30    32    1
     4    29    28    1
     5    32    33    2
     6    28    27    2
     7    33    27    1
     8    27    24    1
     9    24    25    1
    10    24    23   am
    11    23    26    2
    12    23     1    1
    13    20    19    2
    14    20    21    1
    15    19    18    1
    16     6     1    2
    17     6     5    1
    18     1     2    1
    19    21    22    2
    20    18    17    2
    21     5     4    2
    22     2     3    2
    23    22    17    1
    24    17    10    1
    25     4     3    1
    26     4     7    1
    27     9     8    2
    28     8    10    1
    29     8     7    1
    30    10    11    1
    31    11    12    2
    32    11    16    1
    33    12    13    1
    34    16    15    2
    35    13    14    2
    36    15    14    1
