@<TRIPOS>MOLECULE
64961_out_ligand_01.pdbqt
 31 34 0 0 0
SMALL
GASTEIGER

@<TRIPOS>ATOM
      1  C         19.7970  -23.6990   -7.9410 C.2     1  UNL1        0.0320
      2  C         20.6400  -22.6160   -7.6760 C.2     1  UNL1        0.0190
      3  C         21.8340  -22.4580   -8.3910 C.2     1  UNL1        0.0300
      4  C         22.2040  -23.3850   -9.3660 C.2     1  UNL1        0.0340
      5  C         21.3670  -24.4840   -9.6090 C.2     1  UNL1        0.0300
      6  C         20.1700  -24.6440   -8.9020 C.2     1  UNL1        0.0190
      7  N         23.3910  -23.3050  -10.1210 N.am    1  UNL1       -0.3260
      8  C         23.6700  -22.4440  -11.1750 C.2     1  UNL1        0.2350
      9  O         22.8860  -21.6340  -11.6600 O.2     1  UNL1       -0.2720
     10  H         24.0870  -24.0160   -9.9320 H       1  UNL1        0.1690
     11  C         25.1180  -22.6060  -11.7140 C.3     1  UNL1        0.0680
     12  C         26.0190  -23.3440  -10.6970 C.3     1  UNL1        0.0240
     13  C         27.1210  -23.9720  -11.5420 C.3     1  UNL1        0.0020
     14  C         26.4600  -24.3250  -12.8690 C.3     1  UNL1        0.0020
     15  C         25.0890  -23.6470  -12.8590 C.3     1  UNL1        0.0240
     16  C         25.7170  -21.2300  -12.0530 C.2     1  UNL1       -0.0400
     17  C         25.7250  -20.8010  -13.3950 C.2     1  UNL1        0.0080
     18  C         26.2710  -19.5700  -13.7610 C.2     1  UNL1        0.0010
     19  C         26.8190  -18.7380  -12.7920 C.2     1  UNL1        0.0000
     20  C         26.8180  -19.1370  -11.4590 C.2     1  UNL1        0.0010
     21  C         26.2720  -20.3700  -11.0910 C.2     1  UNL1        0.0080
     22  C         18.5350  -23.8330   -7.1620 C.2     1  UNL1        0.2560
     23  O         18.1280  -24.9600   -6.9080 O.2     1  UNL1       -0.2670
     24  N         17.9680  -22.6320   -6.7760 N.am    1  UNL1       -0.3230
     25  H         18.5060  -21.7940   -6.9510 H       1  UNL1        0.1690
     26  C         16.7590  -22.4440   -6.0720 C.2     1  UNL1        0.0350
     27  C         15.5250  -22.2240   -6.6840 C.2     1  UNL1        0.0290
     28  C         14.3730  -22.0380   -5.9120 C.2     1  UNL1        0.0020
     29  C         14.4470  -22.0690   -4.5220 C.2     1  UNL1        0.0000
     30  C         15.6730  -22.2850   -3.9010 C.2     1  UNL1        0.0020
     31  C         16.8250  -22.4700   -4.6720 C.2     1  UNL1        0.0290
@<TRIPOS>BOND
     1    18    17    1
     2    18    19    2
     3    17    16    2
     4    14    15    1
     5    14    13    1
     6    15    11    1
     7    19    20    1
     8    16    11    1
     9    16    21    1
    10    11     8    1
    11    11    12    1
    12     9     8    2
    13    13    12    1
    14    20    21    2
    15     8     7   am
    16     7    10    1
    17     7     4    1
    18     5     4    2
    19     5     6    1
    20     4     3    1
    21     6     1    2
    22     3     2    2
    23     1     2    1
    24     1    22    1
    25    22    23    2
    26    22    24   am
    27    25    24    1
    28    24    26    1
    29    27    26    2
    30    27    28    1
    31    26    31    1
    32    28    29    2
    33    31    30    2
    34    29    30    1
