@<TRIPOS>MOLECULE
64963_out_ligand_01.pdbqt
 37 41 0 0 0
SMALL
GASTEIGER

@<TRIPOS>ATOM
      1  O         19.4220  -21.0160   -6.1600 O.2     1  UNL1       -0.2670
      2  C         19.4150  -22.1570   -6.6080 C.2     1  UNL1        0.2560
      3  N         18.4750  -23.1340   -6.3510 N.am    1  UNL1       -0.3220
      4  H         18.6670  -24.0730   -6.7060 H       1  UNL1        0.1690
      5  C         20.5330  -22.5690   -7.5110 C.2     1  UNL1        0.0320
      6  C         21.6340  -21.7120   -7.6350 C.2     1  UNL1        0.0170
      7  C         22.6990  -22.0450   -8.4760 C.2     1  UNL1        0.0100
      8  C         22.6740  -23.2360   -9.2130 C.2     1  UNL1       -0.0300
      9  C         21.5640  -24.0860   -9.0960 C.2     1  UNL1        0.0100
     10  C         20.4970  -23.7550   -8.2550 C.2     1  UNL1        0.0170
     11  C         23.8260  -23.5990  -10.1310 C.3     1  UNL1        0.3110
     12  N         24.6430  -22.4360  -10.5090 N.3     1  UNL1        0.0970
     13  C         23.9740  -21.5940  -11.5130 C.3     1  UNL1        0.2770
     14  C         23.7580  -22.2710  -12.8750 C.3     1  UNL1        0.0690
     15  C         24.9520  -23.0760  -13.3270 C.2     1  UNL1       -0.0490
     16  C         25.0040  -23.5760  -14.6360 C.2     1  UNL1        0.0070
     17  C         25.9870  -23.3780  -12.4230 C.2     1  UNL1       -0.0240
     18  C         26.0870  -24.3500  -15.0510 C.2     1  UNL1        0.0010
     19  C         27.1210  -24.6350  -14.1630 C.2     1  UNL1        0.0010
     20  C         27.0740  -24.1500  -12.8570 C.2     1  UNL1        0.0090
     21  C         25.9760  -22.8190  -11.0150 C.3     1  UNL1        0.3110
     22  C         17.3130  -23.0560   -5.5420 C.2     1  UNL1        0.0500
     23  C         17.3710  -22.7220   -4.1830 C.2     1  UNL1        0.0300
     24  C         16.2140  -22.6830   -3.4000 C.2     1  UNL1        0.0020
     25  C         14.9780  -22.9840   -3.9590 C.2     1  UNL1        0.0010
     26  C         14.8920  -23.3080   -5.3110 C.2     1  UNL1        0.0190
     27  C         16.0470  -23.3250   -6.1160 C.2     1  UNL1        0.0580
     28  C         15.9210  -23.6360   -7.5770 C.2     1  UNL1        0.2540
     29  O         15.9850  -24.7960   -7.9770 O.2     1  UNL1       -0.2680
     30  N         15.7880  -22.5650   -8.4330 N.am    1  UNL1       -0.3510
     31  H         16.0650  -21.6460   -8.1160 H       1  UNL1        0.1630
     32  C         15.8060  -22.7680   -9.8630 C.3     1  UNL1        0.1870
     33  C         17.0880  -22.2480  -10.3950 C.2     1  UNL1        0.0700
     34  C         18.3730  -22.7490  -10.4320 C.2     1  UNL1        0.0360
     35  C         19.1630  -21.7740  -11.0890 C.2     1  UNL1        0.0270
     36  C         18.3120  -20.7430  -11.4100 C.2     1  UNL1        0.1420
     37  O         17.0480  -21.0230  -10.9980 O.2     1  UNL1       -0.3250
@<TRIPOS>BOND
     1    18    16    1
     2    18    19    2
     3    16    15    2
     4    19    20    1
     5    15    14    1
     6    15    17    1
     7    14    13    1
     8    20    17    2
     9    17    21    1
    10    13    12    1
    11    36    35    2
    12    36    37    1
    13    35    34    1
    14    21    12    1
    15    37    33    1
    16    12    11    1
    17    34    33    2
    18    33    32    1
    19    11     8    1
    20    32    30    1
    21     8     9    2
    22     8     7    1
    23     9    10    1
    24     7     6    2
    25    30    31    1
    26    30    28   am
    27    10     5    2
    28    29    28    2
    29     6     5    1
    30    28    27    1
    31     5     2    1
    32     4     3    1
    33     2     3   am
    34     2     1    2
    35     3    22    1
    36    27    22    2
    37    27    26    1
    38    22    23    1
    39    26    25    2
    40    23    24    2
    41    25    24    1
