@<TRIPOS>MOLECULE
64978_out_ligand_01.pdbqt
 34 37 0 0 0
SMALL
GASTEIGER

@<TRIPOS>ATOM
      1  C         22.8790  -22.5940  -10.9590 C.2     1  UNL1        0.0450
      2  C         23.3160  -23.4070   -9.9110 C.2     1  UNL1        0.0300
      3  C         22.4230  -23.8680   -8.9570 C.2     1  UNL1        0.0030
      4  C         21.0750  -23.5290   -9.0460 C.2     1  UNL1        0.0140
      5  C         20.5650  -22.7030  -10.0790 C.2     1  UNL1        0.0030
      6  C         19.1800  -22.3360  -10.1810 C.2     1  UNL1        0.0450
      7  C         18.7700  -21.4560  -11.1830 C.2     1  UNL1        0.0300
      8  C         19.6800  -20.9510  -12.0990 C.2     1  UNL1        0.0030
      9  C         21.0160  -21.3280  -12.0330 C.2     1  UNL1        0.0140
     10  C         21.5010  -22.2130  -11.0430 C.2     1  UNL1        0.0030
     11  N         23.7890  -22.2030  -11.9790 N.am    1  UNL1       -0.3260
     12  C         24.9400  -21.4360  -11.8330 C.2     1  UNL1        0.2310
     13  O         25.2470  -20.8080  -10.8250 O.2     1  UNL1       -0.2720
     14  H         23.5430  -22.4650  -12.9220 H       1  UNL1        0.1690
     15  C         25.7570  -21.4100  -13.1240 C.3     1  UNL1        0.1820
     16  S         25.1420  -20.2070  -14.3450 S.3     1  UNL1       -0.1210
     17  C         24.8990  -21.2770  -15.7540 C.2     1  UNL1        0.0010
     18  C         24.9650  -20.7900  -17.0660 C.2     1  UNL1        0.0180
     19  C         24.7850  -21.6590  -18.1520 C.2     1  UNL1        0.0010
     20  C         24.5480  -23.0180  -17.9300 C.2     1  UNL1        0.0000
     21  C         24.4880  -23.5110  -16.6240 C.2     1  UNL1        0.0010
     22  C         24.6650  -22.6440  -15.5390 C.2     1  UNL1        0.0180
     23  N         18.2390  -22.8760   -9.2630 N.am    1  UNL1       -0.3260
     24  C         16.8590  -22.7400   -9.2490 C.2     1  UNL1        0.2310
     25  O         16.1790  -22.0710  -10.0280 O.2     1  UNL1       -0.2720
     26  H         18.5920  -23.5420   -8.5890 H       1  UNL1        0.1690
     27  C         16.1960  -23.4520   -8.0740 C.3     1  UNL1        0.1820
     28  S         17.4310  -24.3320   -7.0520 S.3     1  UNL1       -0.1210
     29  C         17.8920  -23.0830   -5.8580 C.2     1  UNL1        0.0010
     30  C         17.3900  -23.2200   -4.5540 C.2     1  UNL1        0.0180
     31  C         17.6910  -22.2750   -3.5690 C.2     1  UNL1        0.0010
     32  C         18.4950  -21.1770   -3.8790 C.2     1  UNL1        0.0000
     33  C         18.9890  -21.0230   -5.1740 C.2     1  UNL1        0.0010
     34  C         18.6840  -21.9680   -6.1610 C.2     1  UNL1        0.0180
@<TRIPOS>BOND
     1    19    20    2
     2    19    18    1
     3    20    21    1
     4    18    17    2
     5    21    22    2
     6    17    22    1
     7    17    16    1
     8    16    15    1
     9    15    12    1
    10    14    11    1
    11     8     9    2
    12     8     7    1
    13     9    10    1
    14    11    12   am
    15    11     1    1
    16    12    13    2
    17     7     6    2
    18    10     1    2
    19    10     5    1
    20     1     2    1
    21     6     5    1
    22     6    23    1
    23     5     4    2
    24    25    24    2
    25     2     3    2
    26    23    24   am
    27    23    26    1
    28    24    27    1
    29     4     3    1
    30    27    28    1
    31    28    29    1
    32    34    29    2
    33    34    33    1
    34    29    30    1
    35    33    32    2
    36    30    31    2
    37    32    31    1
