@<TRIPOS>MOLECULE
64983_out_ligand_01.pdbqt
 34 37 0 0 0
SMALL
GASTEIGER

@<TRIPOS>ATOM
      1  C         21.2770  -22.8370  -10.1440 C.2     1  UNL1        0.0340
      2  C         22.5770  -23.3020   -9.9270 C.2     1  UNL1        0.0310
      3  C         23.5940  -23.0260  -10.8480 C.2     1  UNL1        0.0270
      4  C         23.3060  -22.2900  -11.9980 C.2     1  UNL1        0.0800
      5  C         22.0160  -21.8070  -12.2230 C.2     1  UNL1        0.0270
      6  C         21.0070  -22.0850  -11.2980 C.2     1  UNL1        0.0310
      7  N         20.1940  -23.0750   -9.2730 N.am    1  UNL1       -0.3260
      8  C         20.0770  -22.7180   -7.9360 C.2     1  UNL1        0.2350
      9  O         20.9350  -22.1220   -7.2860 O.2     1  UNL1       -0.2720
     10  H         19.3960  -23.5410   -9.6880 H       1  UNL1        0.1690
     11  C         18.7690  -23.1810   -7.2510 C.3     1  UNL1        0.1440
     12  C         18.5340  -22.5230   -5.8860 C.2     1  UNL1       -0.0410
     13  C         18.9420  -21.2110   -5.5950 C.2     1  UNL1        0.0080
     14  C         18.7430  -20.6680   -4.3230 C.2     1  UNL1        0.0010
     15  C         18.1370  -21.4270   -3.3250 C.2     1  UNL1        0.0000
     16  C         17.7310  -22.7310   -3.5960 C.2     1  UNL1        0.0010
     17  C         17.9280  -23.2770   -4.8650 C.2     1  UNL1        0.0080
     18  C         17.5580  -23.1650   -8.1860 C.2     1  UNL1       -0.0410
     19  C         16.6010  -24.1930   -8.0780 C.2     1  UNL1        0.0080
     20  C         15.4670  -24.2050   -8.8900 C.2     1  UNL1        0.0010
     21  C         15.2670  -23.1910   -9.8230 C.2     1  UNL1        0.0000
     22  C         16.2000  -22.1640   -9.9420 C.2     1  UNL1        0.0010
     23  C         17.3360  -22.1480   -9.1280 C.2     1  UNL1        0.0080
     24  S         24.5940  -21.9060  -13.1540 S.O2    1  UNL1        0.2640
     25  O         25.3370  -23.1070  -13.4760 O.2     1  UNL1       -0.2000
     26  O         25.2870  -20.7400  -12.6400 O.2     1  UNL1       -0.2000
     27  N         23.7780  -21.3710  -14.5170 N.pl3   1  UNL1       -0.2640
     28  H         23.3430  -20.4680  -14.3640 H       1  UNL1        0.1800
     29  C         24.4000  -21.6120  -15.7550 C.2     1  UNL1        0.1360
     30  C         25.4350  -20.8000  -16.1920 C.2     1  UNL1        0.0510
     31  C         26.0240  -21.0930  -17.4190 C.2     1  UNL1        0.0050
     32  C         25.5590  -22.1800  -18.1530 C.2     1  UNL1        0.0190
     33  C         24.5160  -22.9270  -17.6280 C.2     1  UNL1        0.1190
     34  N         23.9240  -22.6620  -16.4440 N.2     1  UNL1       -0.2430
@<TRIPOS>BOND
     1    32    33    2
     2    32    31    1
     3    33    34    1
     4    31    30    2
     5    34    29    2
     6    30    29    1
     7    29    27    1
     8    27    28    1
     9    27    24    1
    10    25    24    2
    11    24    26    2
    12    24     4    1
    13     5     4    2
    14     5     6    1
    15     4     3    1
    16     6     1    2
    17     3     2    2
    18     1     2    1
    19     1     7    1
    20    22    21    2
    21    22    23    1
    22    21    20    1
    23    10     7    1
    24     7     8   am
    25    23    18    2
    26    20    19    2
    27    18    19    1
    28    18    11    1
    29     8     9    2
    30     8    11    1
    31    11    12    1
    32    12    13    2
    33    12    17    1
    34    13    14    1
    35    17    16    2
    36    14    15    2
    37    16    15    1
