@<TRIPOS>MOLECULE
64987_out_ligand_01.pdbqt
 38 42 0 0 0
SMALL
GASTEIGER

@<TRIPOS>ATOM
      1  C         23.6650  -21.7610  -11.2340 C.2     1  UNL1        0.0320
      2  C         23.8120  -21.7860   -9.8440 C.2     1  UNL1        0.0190
      3  C         22.7100  -22.0530   -9.0210 C.2     1  UNL1        0.0300
      4  C         21.4530  -22.3030   -9.5740 C.2     1  UNL1        0.0340
      5  C         21.3140  -22.2970  -10.9670 C.2     1  UNL1        0.0300
      6  C         22.4110  -22.0290  -11.7930 C.2     1  UNL1        0.0190
      7  N         20.2970  -22.5850   -8.8170 N.am    1  UNL1       -0.3260
      8  C         19.9110  -23.8080   -8.2690 C.2     1  UNL1        0.2350
      9  O         20.5590  -24.8480   -8.3560 O.2     1  UNL1       -0.2720
     10  H         19.7190  -21.7860   -8.5820 H       1  UNL1        0.1690
     11  C         18.5390  -23.7200   -7.5530 C.3     1  UNL1        0.1440
     12  C         18.5250  -22.8500   -6.2980 C.2     1  UNL1       -0.0410
     13  C         17.7850  -23.2550   -5.1740 C.2     1  UNL1        0.0080
     14  C         17.7350  -22.4610   -4.0260 C.2     1  UNL1        0.0010
     15  C         18.4210  -21.2500   -3.9850 C.2     1  UNL1        0.0000
     16  C         19.1550  -20.8300   -5.0910 C.2     1  UNL1        0.0010
     17  C         19.2050  -21.6220   -6.2400 C.2     1  UNL1        0.0080
     18  C         17.3900  -23.3690   -8.5010 C.2     1  UNL1       -0.0410
     19  C         16.1820  -24.0840   -8.4940 C.2     1  UNL1        0.0080
     20  C         15.1480  -23.7410   -9.3670 C.2     1  UNL1        0.0010
     21  C         15.3100  -22.6860  -10.2620 C.2     1  UNL1        0.0000
     22  C         16.5090  -21.9760  -10.2910 C.2     1  UNL1        0.0010
     23  C         17.5450  -22.3170   -9.4190 C.2     1  UNL1        0.0080
     24  C         24.8050  -21.4830  -12.1510 C.2     1  UNL1        0.2510
     25  O         25.7940  -20.8830  -11.7480 O.2     1  UNL1       -0.2680
     26  N         24.6950  -21.9700  -13.4380 N.am    1  UNL1       -0.3540
     27  H         24.0110  -22.6930  -13.6230 H       1  UNL1        0.1620
     28  C         25.8200  -21.8880  -14.3570 C.3     1  UNL1        0.1570
     29  C         25.6400  -20.7730  -15.3960 C.3     1  UNL1        0.1710
     30  C         26.2750  -21.1760  -16.7240 C.3     1  UNL1        0.2090
     31  O         26.0680  -20.1640  -17.7170 O.2     1  UNL1       -0.3460
     32  C         26.3230  -18.9130  -17.2200 C.2     1  UNL1        0.1020
     33  C         26.4600  -17.8850  -18.1530 C.2     1  UNL1        0.0390
     34  C         26.4390  -18.6380  -15.8550 C.2     1  UNL1        0.1020
     35  C         26.7430  -16.5880  -17.7220 C.2     1  UNL1        0.0030
     36  C         26.8850  -16.3190  -16.3590 C.2     1  UNL1        0.0030
     37  C         26.7340  -17.3450  -15.4250 C.2     1  UNL1        0.0390
     38  O         26.2850  -19.5900  -14.8820 O.2     1  UNL1       -0.3390
@<TRIPOS>BOND
     1    33    35    1
     2    33    32    2
     3    35    36    2
     4    31    32    1
     5    31    30    1
     6    32    34    1
     7    30    29    1
     8    36    37    1
     9    34    37    2
    10    34    38    1
    11    29    38    1
    12    29    28    1
    13    28    26    1
    14    27    26    1
    15    26    24   am
    16    24    25    2
    17    24     1    1
    18     6     1    2
    19     6     5    1
    20     1     2    1
    21     5     4    2
    22    22    21    2
    23    22    23    1
    24    21    20    1
    25     2     3    2
    26     4     3    1
    27     4     7    1
    28    23    18    2
    29    20    19    2
    30     7    10    1
    31     7     8   am
    32    18    19    1
    33    18    11    1
    34     9     8    2
    35     8    11    1
    36    11    12    1
    37    12    17    2
    38    12    13    1
    39    17    16    1
    40    13    14    2
    41    16    15    2
    42    14    15    1
