@<TRIPOS>MOLECULE
64999_out_ligand_01.pdbqt
 28 31 0 0 0
SMALL
GASTEIGER

@<TRIPOS>ATOM
      1  C         21.8530  -23.3920   -8.8270 C.2     1  UNL1        0.0320
      2  C         21.4660  -22.2730   -8.0810 C.2     1  UNL1        0.0180
      3  C         20.2540  -22.2910   -7.3890 C.2     1  UNL1        0.0260
      4  C         19.4390  -23.4280   -7.4570 C.2     1  UNL1        0.0790
      5  C         19.8080  -24.5340   -8.2320 C.2     1  UNL1        0.0260
      6  C         21.0200  -24.5130   -8.9210 C.2     1  UNL1        0.0180
      7  C         23.1220  -23.3830   -9.5840 C.2     1  UNL1        0.2580
      8  O         24.1120  -23.8080   -8.9960 O.2     1  UNL1       -0.2670
      9  N         23.0850  -22.8680  -10.8680 N.am    1  UNL1       -0.3130
     10  C         21.9220  -22.2510  -11.5360 C.2     1  UNL1        0.1370
     11  C         24.1730  -22.8290  -11.7610 C.2     1  UNL1        0.0430
     12  C         22.4230  -21.6190  -12.8410 C.2     1  UNL1        0.0610
     13  C         23.8170  -22.1490  -12.9270 C.2     1  UNL1       -0.0300
     14  C         24.7200  -21.9750  -13.9660 C.2     1  UNL1        0.0090
     15  C         26.0020  -22.5080  -13.8230 C.2     1  UNL1        0.0010
     16  C         26.3620  -23.1920  -12.6530 C.2     1  UNL1        0.0020
     17  C         25.4450  -23.3530  -11.6090 C.2     1  UNL1        0.0300
     18  S         17.8850  -23.4310   -6.5920 S.O2    1  UNL1        0.2580
     19  O         17.9980  -22.5390   -5.4580 O.2     1  UNL1       -0.2010
     20  O         17.4650  -24.8060   -6.4440 O.2     1  UNL1       -0.2010
     21  N         16.8530  -22.7280   -7.6960 N.3     1  UNL1       -0.3130
     22  H         16.3290  -21.9160   -7.3650 H       1  UNL1        0.1720
     23  C         16.2330  -23.5310   -8.7560 C.3     1  UNL1        0.1640
     24  C         16.5520  -22.9230  -10.1250 C.3     1  UNL1        0.1400
     25  C         18.0190  -22.9770  -10.5240 C.3     1  UNL1        0.0350
     26  C         18.1050  -21.8320  -11.5030 C.3     1  UNL1        0.0290
     27  C         17.1870  -20.8060  -10.8710 C.3     1  UNL1        0.1680
     28  O         16.1730  -21.5290  -10.1530 O.3     1  UNL1       -0.3840
@<TRIPOS>BOND
     1    14    15    2
     2    14    13    1
     3    15    16    1
     4    13    12    1
     5    13    11    2
     6    12    10    2
     7    16    17    2
     8    11    17    1
     9    11     9    1
    10    10     9    1
    11    26    27    1
    12    26    25    1
    13    27    28    1
    14     9     7   am
    15    25    24    1
    16    28    24    1
    17    24    23    1
    18     7     8    2
    19     7     1    1
    20     6     1    2
    21     6     5    1
    22     1     2    1
    23    23    21    1
    24     5     4    2
    25     2     3    2
    26    21    22    1
    27    21    18    1
    28     4     3    1
    29     4    18    1
    30    18    20    2
    31    18    19    2
