@<TRIPOS>MOLECULE
65009_out_ligand_01.pdbqt
 32 35 0 0 0
SMALL
GASTEIGER

@<TRIPOS>ATOM
      1  C         21.5650  -22.3970   -9.9600 C.2     1  UNL1        0.0320
      2  C         20.4350  -22.7410  -10.7110 C.2     1  UNL1        0.0190
      3  C         19.3300  -23.3150  -10.0820 C.2     1  UNL1        0.0250
      4  C         19.3420  -23.5190   -8.7020 C.2     1  UNL1        0.0220
      5  C         20.4660  -23.1770   -7.9470 C.2     1  UNL1        0.0250
      6  C         21.5780  -22.6080   -8.5750 C.2     1  UNL1        0.0190
      7  N         18.2220  -24.1600   -8.0840 N.pl3   1  UNL1       -0.1810
      8  H         17.9910  -25.0310   -8.5630 H       1  UNL1        0.1460
      9  S         16.7990  -23.2140   -8.0880 S.O2    1  UNL1        0.2480
     10  O         15.8380  -24.0350   -8.8040 O.2     1  UNL1       -0.2050
     11  O         17.0560  -21.8550   -8.5100 O.2     1  UNL1       -0.2050
     12  C         16.3170  -23.2010   -6.3850 C.2     1  UNL1        0.1040
     13  C         15.1550  -23.9040   -6.0200 C.2     1  UNL1        0.0270
     14  C         14.7380  -23.9070   -4.6960 C.2     1  UNL1        0.0030
     15  C         15.4780  -23.2100   -3.7490 C.2     1  UNL1        0.0140
     16  C         16.6370  -22.5050   -4.1190 C.2     1  UNL1       -0.0060
     17  C         17.3710  -21.8030   -3.1530 C.2     1  UNL1        0.0150
     18  C         17.0840  -22.4880   -5.4610 C.2     1  UNL1        0.0890
     19  C         18.5140  -21.1060   -3.5180 C.2     1  UNL1        0.0200
     20  C         18.8880  -21.1400   -4.8430 C.2     1  UNL1        0.1170
     21  N         18.2070  -21.8100   -5.7960 N.2     1  UNL1       -0.2590
     22  C         22.7320  -21.7980  -10.6630 C.2     1  UNL1        0.2560
     23  O         23.4540  -21.0310  -10.0390 O.2     1  UNL1       -0.2670
     24  N         22.8500  -22.1620  -11.9920 N.am    1  UNL1       -0.3230
     25  H         22.0850  -22.6950  -12.3880 H       1  UNL1        0.1690
     26  C         23.8670  -21.7900  -12.8940 C.2     1  UNL1        0.0350
     27  C         25.2120  -22.1300  -12.7360 C.2     1  UNL1        0.0310
     28  C         26.1630  -21.7300  -13.6810 C.2     1  UNL1        0.0210
     29  C         25.7700  -20.9860  -14.7900 C.2     1  UNL1        0.0110
     30 BR         27.0550  -20.4440  -16.0640 Br      1  UNL1       -0.0510
     31  C         24.4340  -20.6410  -14.9640 C.2     1  UNL1        0.0210
     32  C         23.4850  -21.0440  -14.0190 C.2     1  UNL1        0.0310
@<TRIPOS>BOND
     1    30    29    1
     2    31    29    2
     3    31    32    1
     4    29    28    1
     5    32    26    2
     6    28    27    2
     7    26    27    1
     8    26    24    1
     9    25    24    1
    10    24    22   am
    11     2     3    1
    12     2     1    2
    13    22    23    2
    14    22     1    1
    15     3     4    2
    16     1     6    1
    17    10     9    2
    18     4     7    1
    19     4     5    1
    20     6     5    2
    21     8     7    1
    22    11     9    2
    23     9     7    1
    24     9    12    1
    25    12    13    2
    26    12    18    1
    27    13    14    1
    28    21    18    1
    29    21    20    2
    30    18    16    2
    31    20    19    1
    32    14    15    2
    33    16    15    1
    34    16    17    1
    35    19    17    2
