@<TRIPOS>MOLECULE
65008_out_ligand_01.pdbqt
 34 38 0 0 0
SMALL
GASTEIGER

@<TRIPOS>ATOM
      1  C         17.9840  -21.6520  -10.3360 C.ar    1  UNL1        0.1960
      2  N         16.6730  -21.6650  -10.3740 N.ar    1  UNL1       -0.1220
      3  N         16.2390  -22.6230   -9.5120 N.ar    1  UNL1       -0.1330
      4  C         17.2910  -23.1980   -8.9570 C.ar    1  UNL1        0.1400
      5  N         18.4540  -22.6090   -9.4520 N.ar    1  UNL1       -0.2750
      6  S         18.9490  -20.6810  -11.4040 S.3     1  UNL1       -0.0810
      7  C         19.9390  -21.9710  -12.2090 C.3     1  UNL1        0.1850
      8  C         21.3660  -21.5110  -12.4620 C.2     1  UNL1        0.2270
      9  O         21.6160  -20.4940  -13.1070 O.2     1  UNL1       -0.2730
     10  N         22.3320  -22.2900  -11.8620 N.am    1  UNL1       -0.3560
     11  H         22.0590  -23.2400  -11.6060 H       1  UNL1        0.1620
     12  C         23.7530  -22.0320  -12.0200 C.3     1  UNL1        0.0840
     13  C         24.3300  -21.4730  -10.7200 C.3     1  UNL1        0.0250
     14  C         25.8010  -21.0790  -10.8660 C.3     1  UNL1        0.0020
     15  C         26.5360  -21.8610  -11.9570 C.3     1  UNL1        0.0000
     16  C         25.9960  -23.2810  -12.0880 C.3     1  UNL1        0.0020
     17  C         24.5120  -23.2930  -12.4690 C.3     1  UNL1        0.0250
     18  C         19.7990  -22.9190   -9.1170 C.2     1  UNL1        0.0430
     19  C         20.6100  -21.9580   -8.5030 C.2     1  UNL1        0.0300
     20  C         21.9440  -22.2460   -8.2110 C.2     1  UNL1        0.0020
     21  C         22.4730  -23.4980   -8.5190 C.2     1  UNL1        0.0000
     22  C         21.6640  -24.4660   -9.1090 C.2     1  UNL1        0.0020
     23  C         20.3280  -24.1830   -9.4070 C.2     1  UNL1        0.0300
     24  C         17.2050  -24.2120   -7.8520 C.3     1  UNL1        0.1200
     25  C         16.5790  -23.7040   -6.5590 C.2     1  UNL1       -0.0400
     26  C         15.2670  -24.1150   -6.2450 C.2     1  UNL1        0.0080
     27  C         14.6400  -23.6990   -5.0760 C.2     1  UNL1        0.0010
     28  C         15.3050  -22.8500   -4.2000 C.2     1  UNL1        0.0120
     29  C         16.5940  -22.3830   -4.4910 C.2     1  UNL1       -0.0250
     30  C         17.2300  -21.5090   -3.5910 C.2     1  UNL1        0.0120
     31  C         17.2490  -22.7890   -5.6870 C.2     1  UNL1       -0.0190
     32  C         18.5030  -21.0050   -3.8510 C.2     1  UNL1        0.0010
     33  C         19.1550  -21.3720   -5.0200 C.2     1  UNL1        0.0010
     34  C         18.5380  -22.2460   -5.9230 C.2     1  UNL1        0.0130
@<TRIPOS>BOND
     1     9     8    2
     2    17    16    1
     3    17    12    1
     4     8     7    1
     5     8    10   am
     6     7     6    1
     7    16    15    1
     8    12    10    1
     9    12    13    1
    10    15    14    1
    11    10    11    1
    12     6     1    1
    13    14    13    1
    14     2     1   ar
    15     2     3   ar
    16     1     5   ar
    17     3     4   ar
    18     5    18    1
    19     5     4   ar
    20    23    18    2
    21    23    22    1
    22    18    19    1
    23    22    21    2
    24     4    24    1
    25    21    20    1
    26    19    20    2
    27    24    25    1
    28    25    26    2
    29    25    31    1
    30    26    27    1
    31    34    31    1
    32    34    33    2
    33    31    29    2
    34    27    28    2
    35    33    32    1
    36    29    28    1
    37    29    30    1
    38    32    30    2
