@<TRIPOS>MOLECULE
65015_out_ligand_01.pdbqt
 35 38 0 0 0
SMALL
GASTEIGER

@<TRIPOS>ATOM
      1  C         19.9110  -22.9920  -10.2220 C.2     1  UNL1        0.0350
      2  C         18.5700  -22.6540  -10.4220 C.2     1  UNL1        0.0310
      3  C         17.5900  -23.0620   -9.5100 C.2     1  UNL1        0.0270
      4  C         17.9530  -23.8260   -8.4000 C.2     1  UNL1        0.0800
      5  C         19.2920  -24.1520   -8.1740 C.2     1  UNL1        0.0270
      6  C         20.2640  -23.7390   -9.0880 C.2     1  UNL1        0.0310
      7  N         20.9510  -22.6220  -11.0920 N.am    1  UNL1       -0.3200
      8  C         21.0100  -21.5340  -11.9490 C.2     1  UNL1        0.2960
      9  O         20.1300  -20.6950  -12.1130 O.2     1  UNL1       -0.2640
     10  H         21.7780  -23.2130  -11.1150 H       1  UNL1        0.1690
     11  C         22.2990  -21.5010  -12.6790 C.2     1  UNL1        0.2560
     12  N         23.4790  -21.8600  -12.1500 N.2     1  UNL1       -0.1260
     13  N         24.3460  -21.6700  -13.1680 N.pl3   1  UNL1       -0.0560
     14  C         25.7230  -21.8750  -13.2190 C.3     1  UNL1        0.1200
     15  C         23.6470  -21.1950  -14.2870 C.cat   1  UNL1        0.7520
     16  C         26.3830  -21.6070  -14.3630 C.2     1  UNL1        0.0610
     17  C         25.5580  -21.1040  -15.5050 C.2     1  UNL1        0.0520
     18  C         26.2780  -20.8000  -16.7960 C.3     1  UNL1        0.0710
     19  N         24.2730  -20.9120  -15.4660 N.2     1  UNL1       -0.0660
     20  N         22.3720  -21.0860  -13.9940 N.pl3   1  UNL1       -0.0330
     21  C         26.3910  -22.3820  -11.9910 C.3     1  UNL1        0.4050
     22  F         25.8920  -23.5860  -11.6080 F       1  UNL1       -0.2070
     23  F         26.2450  -21.5270  -10.9490 F       1  UNL1       -0.2070
     24  S         16.7080  -24.3350   -7.2380 S.O2    1  UNL1        0.2630
     25  O         17.3690  -25.1020   -6.2020 O.2     1  UNL1       -0.2000
     26  O         15.6000  -24.8930   -7.9830 O.2     1  UNL1       -0.2000
     27  N         16.2420  -22.8860   -6.5130 N.pl3   1  UNL1       -0.2800
     28  H         15.2320  -22.7940   -6.4500 H       1  UNL1        0.1790
     29  C         17.0450  -22.3040   -5.4880 C.2     1  UNL1        0.0480
     30  C         18.1600  -21.5400   -5.8430 C.2     1  UNL1        0.0300
     31  C         18.9820  -20.9850   -4.8630 C.2     1  UNL1        0.0020
     32  C         18.6910  -21.1910   -3.5180 C.2     1  UNL1        0.0010
     33  C         17.5740  -21.9450   -3.1550 C.2     1  UNL1        0.0090
     34  C         16.7290  -22.5010   -4.1320 C.2     1  UNL1       -0.0350
     35  C         15.5570  -23.3280   -3.6850 C.3     1  UNL1        0.0500
@<TRIPOS>BOND
     1    18    17    1
     2    17    19    1
     3    17    16    2
     4    19    15    2
     5    16    14    1
     6    15    20    1
     7    15    13    1
     8    20    11    1
     9    14    13    1
    10    14    21    1
    11    13    12    1
    12    11    12    2
    13    11     8    1
    14     9     8    2
    15    21    22    1
    16    21    23    1
    17     8     7   am
    18    10     7    1
    19     7     1    1
    20     2     1    2
    21     2     3    1
    22     1     6    1
    23     3     4    2
    24     6     5    2
    25     4     5    1
    26     4    24    1
    27    26    24    2
    28    24    27    1
    29    24    25    2
    30    27    28    1
    31    27    29    1
    32    30    29    2
    33    30    31    1
    34    29    34    1
    35    31    32    2
    36    34    35    1
    37    34    33    2
    38    32    33    1
