@<TRIPOS>MOLECULE
65012_out_ligand_01.pdbqt
 33 36 0 0 0
SMALL
GASTEIGER

@<TRIPOS>ATOM
      1  C         20.7740  -22.5320   -7.7240 C.2     1  UNL1        0.0320
      2  C         20.7950  -23.6960   -8.5050 C.2     1  UNL1        0.0190
      3  C         21.8690  -23.9380   -9.3670 C.2     1  UNL1        0.0310
      4  C         22.9120  -23.0160   -9.4590 C.2     1  UNL1        0.0420
      5  C         22.8900  -21.8520   -8.6920 C.2     1  UNL1        0.0310
      6  C         21.8170  -21.6060   -7.8310 C.2     1  UNL1        0.0190
      7  N         24.0240  -23.2610  -10.3020 N.pl3   1  UNL1       -0.2810
      8  H         24.6000  -24.0860  -10.1470 H       1  UNL1        0.1790
      9  S         23.9450  -22.8470  -11.9340 S.O2    1  UNL1        0.2650
     10  O         22.6060  -22.3670  -12.2120 O.2     1  UNL1       -0.2000
     11  O         24.4860  -23.9560  -12.6910 O.2     1  UNL1       -0.2000
     12  C         25.0560  -21.4800  -12.0990 C.2     1  UNL1        0.1090
     13  C         25.6790  -20.9870  -10.9400 C.2     1  UNL1        0.0280
     14  C         26.5520  -19.9130  -11.0300 C.2     1  UNL1        0.0030
     15  C         26.7960  -19.3380  -12.2730 C.2     1  UNL1        0.0140
     16  C         26.1700  -19.8360  -13.4300 C.2     1  UNL1       -0.0060
     17  C         26.4250  -19.2480  -14.6770 C.2     1  UNL1        0.0150
     18  C         25.2770  -20.9300  -13.3640 C.2     1  UNL1        0.0900
     19  C         25.8080  -19.7390  -15.8180 C.2     1  UNL1        0.0200
     20  C         24.9540  -20.8120  -15.6730 C.2     1  UNL1        0.1170
     21  N         24.6900  -21.4040  -14.4890 N.2     1  UNL1       -0.2590
     22  C         19.6460  -22.2310   -6.7960 C.2     1  UNL1        0.2560
     23  N         18.6270  -23.1590   -6.8070 N.am    1  UNL1       -0.3210
     24  H         18.7510  -24.0120   -7.3430 H       1  UNL1        0.1690
     25  O         19.7230  -21.2290   -6.0960 O.2     1  UNL1       -0.2670
     26  C         17.4190  -23.1410   -6.0720 C.2     1  UNL1        0.0680
     27  C         17.3100  -23.5980   -4.7580 C.2     1  UNL1        0.0320
     28  C         16.0810  -23.5450   -4.0950 C.2     1  UNL1        0.0020
     29  C         14.9600  -23.0310   -4.7410 C.2     1  UNL1        0.0030
     30  C         15.0570  -22.5670   -6.0540 C.2     1  UNL1        0.0390
     31  C         16.2820  -22.6180   -6.7260 C.2     1  UNL1        0.0950
     32  O         16.4920  -22.1830   -8.0170 O.2     1  UNL1       -0.3540
     33  C         15.8950  -22.9490   -9.0580 C.3     1  UNL1        0.2100
@<TRIPOS>BOND
     1    19    20    1
     2    19    17    2
     3    20    21    2
     4    17    16    1
     5    21    18    1
     6    16    18    1
     7    16    15    2
     8    18    12    2
     9    11     9    2
    10    15    14    1
    11    10     9    2
    12    12     9    1
    13    12    13    1
    14     9     7    1
    15    14    13    2
    16     7     8    1
    17     7     4    1
    18     4     3    2
    19     4     5    1
    20     3     2    1
    21    33    32    1
    22     5     6    2
    23     2     1    2
    24    32    31    1
    25     6     1    1
    26     1    22    1
    27    24    23    1
    28    23    22   am
    29    23    26    1
    30    22    25    2
    31    31    26    2
    32    31    30    1
    33    26    27    1
    34    30    29    2
    35    27    28    2
    36    29    28    1
