@<TRIPOS>MOLECULE
65049_out_ligand_01.pdbqt
 31 34 0 0 0
SMALL
GASTEIGER

@<TRIPOS>ATOM
      1  C         20.7790  -22.4210   -7.6820 C.2     1  UNL1        0.0320
      2  C         20.7390  -23.6070   -8.4200 C.2     1  UNL1        0.0190
      3  C         21.7880  -23.9310   -9.2900 C.2     1  UNL1        0.0310
      4  C         22.8930  -23.0850   -9.4190 C.2     1  UNL1        0.0420
      5  C         22.9050  -21.8780   -8.7130 C.2     1  UNL1        0.0310
      6  C         21.8580  -21.5470   -7.8460 C.2     1  UNL1        0.0190
      7  N         23.9610  -23.3020  -10.3380 N.pl3   1  UNL1       -0.2810
      8  H         24.5890  -24.0900  -10.1850 H       1  UNL1        0.1790
      9  S         23.9210  -22.8580  -11.9660 S.O2    1  UNL1        0.2650
     10  O         22.5690  -22.4330  -12.2530 O.2     1  UNL1       -0.2000
     11  O         24.5450  -23.9720  -12.6520 O.2     1  UNL1       -0.2000
     12  C         25.0430  -21.4910  -12.0780 C.2     1  UNL1        0.1090
     13  C         25.6910  -21.0230  -10.9220 C.2     1  UNL1        0.0280
     14  C         26.5550  -19.9390  -11.0030 C.2     1  UNL1        0.0030
     15  C         26.7760  -19.3340  -12.2350 C.2     1  UNL1        0.0140
     16  C         26.1420  -19.8160  -13.3920 C.2     1  UNL1       -0.0060
     17  C         26.3830  -19.2110  -14.6340 C.2     1  UNL1        0.0150
     18  C         25.2580  -20.9200  -13.3350 C.2     1  UNL1        0.0900
     19  C         25.7660  -19.6950  -15.7780 C.2     1  UNL1        0.0200
     20  C         24.9260  -20.7790  -15.6410 C.2     1  UNL1        0.1170
     21  N         24.6720  -21.3830  -14.4600 N.2     1  UNL1       -0.2590
     22  C         19.6860  -22.0340   -6.7480 C.2     1  UNL1        0.2520
     23  O         19.8370  -21.0850   -5.9880 O.2     1  UNL1       -0.2680
     24  N         18.5500  -22.8190   -6.7840 N.am    1  UNL1       -0.3520
     25  H         18.6160  -23.7230   -7.2340 H       1  UNL1        0.1630
     26  C         17.4710  -22.6300   -5.8240 C.3     1  UNL1        0.0840
     27  C         17.3680  -23.8180   -4.8640 C.3     1  UNL1        0.0250
     28  C         16.3020  -23.5920   -3.7890 C.3     1  UNL1        0.0020
     29  C         15.1630  -22.6750   -4.2390 C.3     1  UNL1        0.0000
     30  C         14.9100  -22.7830   -5.7360 C.3     1  UNL1        0.0020
     31  C         16.1400  -22.3930   -6.5570 C.3     1  UNL1        0.0250
@<TRIPOS>BOND
     1    19    20    1
     2    19    17    2
     3    20    21    2
     4    17    16    1
     5    21    18    1
     6    16    18    1
     7    16    15    2
     8    18    12    2
     9    11     9    2
    10    10     9    2
    11    15    14    1
    12    12     9    1
    13    12    13    1
    14     9     7    1
    15    14    13    2
    16     7     8    1
    17     7     4    1
    18     4     3    2
    19     4     5    1
    20     3     2    1
    21     5     6    2
    22     2     1    2
    23     6     1    1
    24     1    22    1
    25    25    24    1
    26    24    22   am
    27    24    26    1
    28    22    23    2
    29    31    26    1
    30    31    30    1
    31    26    27    1
    32    30    29    1
    33    27    28    1
    34    29    28    1
