@<TRIPOS>MOLECULE
65086_out_ligand_01.pdbqt
 33 36 0 0 0
SMALL
GASTEIGER

@<TRIPOS>ATOM
      1  C         20.1120  -21.9160  -11.1480 C.2     1  UNL1        0.0320
      2  C         20.6230  -22.6910  -10.1000 C.2     1  UNL1        0.0190
      3  C         21.9470  -23.1300  -10.1370 C.2     1  UNL1        0.0250
      4  C         22.7710  -22.7700  -11.2030 C.2     1  UNL1        0.0220
      5  C         22.2700  -21.9990  -12.2520 C.2     1  UNL1        0.0250
      6  C         20.9410  -21.5620  -12.2220 C.2     1  UNL1        0.0190
      7  N         24.1090  -23.2730  -11.2480 N.pl3   1  UNL1       -0.1810
      8  H         24.2790  -23.9250  -10.4810 H       1  UNL1        0.1460
      9  S         25.3070  -22.0600  -11.1210 S.O2    1  UNL1        0.2480
     10  O         24.8580  -20.9400  -10.3270 O.2     1  UNL1       -0.2050
     11  O         26.5050  -22.7920  -10.7490 O.2     1  UNL1       -0.2050
     12  C         25.5170  -21.5240  -12.7960 C.2     1  UNL1        0.1040
     13  C         25.6830  -20.1480  -13.0340 C.2     1  UNL1        0.0270
     14  C         25.8370  -19.6860  -14.3340 C.2     1  UNL1        0.0030
     15  C         25.8190  -20.5960  -15.3850 C.2     1  UNL1        0.0140
     16  C         25.6480  -21.9700  -15.1410 C.2     1  UNL1       -0.0060
     17  C         25.6270  -22.8760  -16.2110 C.2     1  UNL1        0.0150
     18  C         25.4910  -22.4670  -13.8250 C.2     1  UNL1        0.0890
     19  C         25.4560  -24.2320  -15.9730 C.2     1  UNL1        0.0200
     20  C         25.3150  -24.6390  -14.6640 C.2     1  UNL1        0.1170
     21  N         25.3360  -23.7930  -13.6110 N.2     1  UNL1       -0.2590
     22  C         18.6930  -21.4750  -11.0780 C.2     1  UNL1        0.2510
     23  O         18.3520  -20.4100  -11.5780 O.2     1  UNL1       -0.2680
     24  N         17.8320  -22.3100  -10.3950 N.am    1  UNL1       -0.3570
     25  H         18.2200  -23.0450   -9.8190 H       1  UNL1        0.1620
     26  C         16.4450  -21.9420  -10.1800 C.3     1  UNL1        0.1270
     27  C         15.7160  -22.9320   -9.2700 C.3     1  UNL1        0.0580
     28  C         16.4490  -23.1350   -7.9680 C.2     1  UNL1       -0.0570
     29  C         16.8150  -22.0400   -7.1750 C.2     1  UNL1        0.0070
     30  C         17.5130  -22.2340   -5.9810 C.2     1  UNL1        0.0010
     31  C         17.8530  -23.5220   -5.5720 C.2     1  UNL1        0.0000
     32  C         17.4980  -24.6180   -6.3570 C.2     1  UNL1        0.0010
     33  C         16.8010  -24.4260   -7.5500 C.2     1  UNL1        0.0070
@<TRIPOS>BOND
     1    17    19    2
     2    17    16    1
     3    19    20    1
     4    15    16    2
     5    15    14    1
     6    16    18    1
     7    20    21    2
     8    14    13    2
     9    18    21    1
    10    18    12    2
    11    13    12    1
    12    12     9    1
    13     5     6    1
    14     5     4    2
    15     6     1    2
    16    23    22    2
    17     7     4    1
    18     7     9    1
    19     7     8    1
    20     4     3    1
    21     1    22    1
    22     1     2    1
    23     9    11    2
    24     9    10    2
    25    22    24   am
    26    24    26    1
    27    24    25    1
    28    26    27    1
    29     3     2    2
    30    27    28    1
    31    28    33    2
    32    28    29    1
    33    33    32    1
    34    29    30    2
    35    32    31    2
    36    30    31    1
