@<TRIPOS>MOLECULE
65125_out_ligand_01.pdbqt
 33 36 0 0 0
SMALL
GASTEIGER

@<TRIPOS>ATOM
      1  C         18.9880  -22.0460  -10.6620 C.2     1  UNL1        0.0320
      2  C         19.9950  -22.9160  -10.2370 C.2     1  UNL1        0.0190
      3  C         21.2590  -22.8630  -10.8360 C.2     1  UNL1        0.0300
      4  C         21.5290  -21.9450  -11.8630 C.2     1  UNL1        0.0340
      5  C         20.5170  -21.0760  -12.2750 C.2     1  UNL1        0.0300
      6  C         19.2540  -21.1190  -11.6730 C.2     1  UNL1        0.0190
      7  N         22.8260  -21.9650  -12.4110 N.am    1  UNL1       -0.3260
      8  C         23.2720  -21.3460  -13.5720 C.2     1  UNL1        0.2350
      9  O         22.5850  -20.6580  -14.3210 O.2     1  UNL1       -0.2720
     10  H         23.5340  -22.4380  -11.8600 H       1  UNL1        0.1690
     11  C         24.7760  -21.6100  -13.8570 C.3     1  UNL1        0.0680
     12  C         25.2670  -22.8900  -13.1430 C.3     1  UNL1        0.0240
     13  C         26.7660  -22.6810  -12.9660 C.3     1  UNL1        0.0020
     14  C         26.9350  -21.1860  -12.7320 C.3     1  UNL1        0.0020
     15  C         25.6030  -20.5350  -13.1080 C.3     1  UNL1        0.0240
     16  C         25.0200  -21.7260  -15.3720 C.2     1  UNL1       -0.0400
     17  C         25.6320  -20.7180  -16.1350 C.2     1  UNL1        0.0080
     18  C         25.8260  -20.8750  -17.5120 C.2     1  UNL1        0.0010
     19  C         25.4120  -22.0390  -18.1520 C.2     1  UNL1        0.0000
     20  C         24.8100  -23.0530  -17.4160 C.2     1  UNL1        0.0010
     21  C         24.6210  -22.8990  -16.0410 C.2     1  UNL1        0.0080
     22  C         17.6340  -22.0660  -10.0550 C.2     1  UNL1        0.2510
     23  O         16.7680  -21.3030  -10.4630 O.2     1  UNL1       -0.2680
     24  N         17.4430  -23.0010   -9.0560 N.am    1  UNL1       -0.3570
     25  H         18.1620  -23.6940   -8.9020 H       1  UNL1        0.1620
     26  C         16.1140  -23.2890   -8.5430 C.3     1  UNL1        0.1270
     27  C         16.1330  -24.2920   -7.3810 C.3     1  UNL1        0.0580
     28  C         16.1680  -23.6690   -6.0050 C.2     1  UNL1       -0.0570
     29  C         15.0420  -23.0170   -5.4870 C.2     1  UNL1        0.0070
     30  C         15.0740  -22.4510   -4.2120 C.2     1  UNL1        0.0010
     31  C         16.2330  -22.5240   -3.4440 C.2     1  UNL1        0.0000
     32  C         17.3610  -23.1650   -3.9490 C.2     1  UNL1        0.0010
     33  C         17.3300  -23.7340   -5.2240 C.2     1  UNL1        0.0070
@<TRIPOS>BOND
     1    19    18    2
     2    19    20    1
     3    18    17    1
     4    20    21    2
     5    17    16    2
     6    21    16    1
     7    16    11    1
     8     9     8    2
     9    11     8    1
    10    11    12    1
    11    11    15    1
    12     8     7   am
    13    12    13    1
    14    15    14    1
    15    13    14    1
    16     7     4    1
    17     7    10    1
    18     5     4    2
    19     5     6    1
    20     4     3    1
    21     6     1    2
    22     3     2    2
    23     1     2    1
    24     1    22    1
    25    23    22    2
    26    22    24   am
    27    24    25    1
    28    24    26    1
    29    26    27    1
    30    27    28    1
    31    28    29    2
    32    28    33    1
    33    29    30    1
    34    33    32    2
    35    30    31    2
    36    32    31    1
