@<TRIPOS>MOLECULE
65128_out_ligand_01.pdbqt
 31 34 0 0 0
SMALL
GASTEIGER

@<TRIPOS>ATOM
      1  C         22.6980  -21.9440  -11.7450 C.2     1  UNL1        0.0320
      2  C         22.9380  -22.3010  -10.4140 C.2     1  UNL1        0.0190
      3  C         21.8750  -22.4660   -9.5180 C.2     1  UNL1        0.0300
      4  C         20.5570  -22.2890   -9.9440 C.2     1  UNL1        0.0340
      5  C         20.3190  -21.9460  -11.2820 C.2     1  UNL1        0.0300
      6  C         21.3790  -21.7780  -12.1800 C.2     1  UNL1        0.0190
      7  N         19.4300  -22.4330   -9.1110 N.am    1  UNL1       -0.3260
      8  C         19.1530  -23.4640   -8.2190 C.2     1  UNL1        0.2350
      9  O         19.8700  -24.4390   -8.0160 O.2     1  UNL1       -0.2720
     10  H         18.7010  -21.7380   -9.2250 H       1  UNL1        0.1690
     11  C         17.8230  -23.2430   -7.4400 C.3     1  UNL1        0.0680
     12  C         17.1340  -24.6410   -7.3600 C.3     1  UNL1        0.0240
     13  C         15.6830  -24.4110   -7.7610 C.3     1  UNL1        0.0020
     14  C         15.7970  -23.3450   -8.8330 C.3     1  UNL1        0.0020
     15  C         16.8160  -22.3740   -8.2510 C.3     1  UNL1        0.0240
     16  C         18.0770  -22.5360   -6.0970 C.2     1  UNL1       -0.0400
     17  C         18.8440  -21.3650   -5.9860 C.2     1  UNL1        0.0080
     18  C         19.0560  -20.7600   -4.7430 C.2     1  UNL1        0.0010
     19  C         18.5210  -21.3190   -3.5870 C.2     1  UNL1        0.0000
     20  C         17.7810  -22.4940   -3.6700 C.2     1  UNL1        0.0010
     21  C         17.5680  -23.1010   -4.9090 C.2     1  UNL1        0.0080
     22  C         23.8600  -21.7800  -12.6600 C.2     1  UNL1        0.2510
     23  O         24.9870  -22.1020  -12.2990 O.2     1  UNL1       -0.2680
     24  N         23.5940  -21.2250  -13.8910 N.am    1  UNL1       -0.3510
     25  H         22.7340  -20.7090  -14.0200 H       1  UNL1        0.1630
     26  C         24.6800  -20.8760  -14.7780 C.3     1  UNL1        0.1870
     27  C         24.5990  -21.7360  -15.9840 C.2     1  UNL1        0.0700
     28  C         24.5460  -23.1020  -16.1720 C.2     1  UNL1        0.0360
     29  C         24.4760  -23.3110  -17.5700 C.2     1  UNL1        0.0270
     30  C         24.4880  -22.0620  -18.1450 C.2     1  UNL1        0.1420
     31  O         24.5590  -21.0980  -17.1920 O.2     1  UNL1       -0.3250
@<TRIPOS>BOND
     1    30    29    2
     2    30    31    1
     3    29    28    1
     4    31    27    1
     5    28    27    2
     6    27    26    1
     7    26    24    1
     8    25    24    1
     9    24    22   am
    10    22    23    2
    11    22     1    1
    12     6     1    2
    13     6     5    1
    14     1     2    1
    15     5     4    2
    16     2     3    2
    17     4     3    1
    18     4     7    1
    19    10     7    1
    20     7     8   am
    21    14    15    1
    22    14    13    1
    23    15    11    1
    24     8     9    2
    25     8    11    1
    26    13    12    1
    27    11    12    1
    28    11    16    1
    29    16    17    2
    30    16    21    1
    31    17    18    1
    32    21    20    2
    33    18    19    2
    34    20    19    1
