@<TRIPOS>MOLECULE
65139_out_ligand_01.pdbqt
 30 33 0 0 0
SMALL
GASTEIGER

@<TRIPOS>ATOM
      1  C         21.7880  -22.4730   -9.4400 C.2     1  UNL1        0.0350
      2  C         23.0180  -21.9250   -9.0660 C.2     1  UNL1        0.0310
      3  C         23.9920  -21.6420  -10.0290 C.2     1  UNL1        0.0270
      4  C         23.7350  -21.9160  -11.3740 C.2     1  UNL1        0.0750
      5  C         22.5100  -22.4550  -11.7660 C.2     1  UNL1        0.0270
      6  C         21.5410  -22.7340  -10.7960 C.2     1  UNL1        0.0310
      7  N         20.7600  -22.7880   -8.5300 N.am    1  UNL1       -0.3230
      8  C         19.4220  -22.4490   -8.6220 C.2     1  UNL1        0.2570
      9  O         18.8600  -21.8500   -9.5280 O.2     1  UNL1       -0.2670
     10  H         21.0290  -23.3410   -7.7240 H       1  UNL1        0.1690
     11  C         18.6040  -22.9450   -7.4860 C.2     1  UNL1        0.0430
     12  C         17.8630  -24.1110   -7.7230 C.2     1  UNL1        0.0180
     13  C         17.1200  -24.6780   -6.6960 C.2     1  UNL1        0.0020
     14  C         17.1130  -24.0800   -5.4370 C.2     1  UNL1        0.0120
     15  C         17.8290  -22.8970   -5.1870 C.2     1  UNL1       -0.0250
     16  C         17.7930  -22.3030   -3.9150 C.2     1  UNL1        0.0120
     17  C         18.5850  -22.2960   -6.2240 C.2     1  UNL1       -0.0100
     18  C         18.4770  -21.1170   -3.6550 C.2     1  UNL1        0.0010
     19  C         19.2020  -20.5010   -4.6670 C.2     1  UNL1        0.0010
     20  C         19.2520  -21.0790   -5.9370 C.2     1  UNL1        0.0130
     21  S         24.9810  -21.5410  -12.5880 S.O2    1  UNL1        0.2470
     22  O         25.6210  -22.7910  -12.9320 O.2     1  UNL1       -0.2050
     23  O         25.7350  -20.4050  -12.1030 O.2     1  UNL1       -0.2050
     24  N         24.0110  -20.9660  -13.8470 N.pl3   1  UNL1       -0.1590
     25  H         23.9850  -19.9490  -13.7560 H       1  UNL1        0.1480
     26  C         24.5970  -21.2420  -15.1440 C.2     1  UNL1        0.1580
     27  N         24.0810  -22.2060  -15.8670 N.2     1  UNL1       -0.2400
     28  C         24.8250  -22.3420  -17.0240 C.2     1  UNL1        0.1260
     29  C         25.9220  -21.5130  -17.1290 C.2     1  UNL1        0.0720
     30  S         26.0360  -20.5320  -15.7260 S.3     1  UNL1       -0.0680
@<TRIPOS>BOND
     1    29    28    2
     2    29    30    1
     3    28    27    1
     4    27    26    2
     5    30    26    1
     6    26    24    1
     7    24    25    1
     8    24    21    1
     9    22    21    2
    10    21    23    2
    11    21     4    1
    12     5     4    2
    13     5     6    1
    14     4     3    1
    15     6     1    2
    16     3     2    2
    17     9     8    2
    18     1     2    1
    19     1     7    1
    20     8     7   am
    21     8    11    1
    22     7    10    1
    23    12    11    2
    24    12    13    1
    25    11    17    1
    26    13    14    2
    27    17    20    1
    28    17    15    2
    29    20    19    2
    30    14    15    1
    31    15    16    1
    32    19    18    1
    33    16    18    2
