@<TRIPOS>MOLECULE
65169_out_ligand_01.pdbqt
 28 30 0 0 0
SMALL
GASTEIGER

@<TRIPOS>ATOM
      1  C         20.1080  -23.3840   -9.2820 C.2     1  UNL1        0.2800
      2  O         20.0720  -24.5590   -8.9300 O.2     1  UNL1       -0.2650
      3  N         19.3460  -22.3630   -8.7400 N.am    1  UNL1       -0.3210
      4  H         19.4990  -21.4570   -9.1670 H       1  UNL1        0.1690
      5  C         20.9810  -22.9170  -10.3500 C.ar    1  UNL1        0.1500
      6  O         22.2880  -23.3350  -10.3540 O.2     1  UNL1       -0.3040
      7  C         22.8910  -22.7700  -11.4340 C.ar    1  UNL1        0.0870
      8  C         24.2230  -22.9480  -11.7930 C.2     1  UNL1        0.0450
      9  C         21.9890  -21.9850  -12.1350 C.ar    1  UNL1        0.0070
     10  C         24.6750  -22.2820  -12.9480 C.2     1  UNL1       -0.0530
     11  C         26.1130  -22.4550  -13.3630 C.3     1  UNL1        0.0490
     12  C         23.7920  -21.4710  -13.6950 C.2     1  UNL1       -0.0550
     13  C         22.4490  -21.3230  -13.2890 C.2     1  UNL1        0.0220
     14  C         24.2560  -20.7510  -14.9340 C.3     1  UNL1        0.0490
     15  C         20.7480  -22.0800  -11.4330 C.ar    1  UNL1       -0.0090
     16  C         19.4620  -21.4210  -11.7790 C.3     1  UNL1        0.0520
     17  C         18.4060  -22.4320   -7.6960 C.2     1  UNL1        0.0350
     18  C         18.7390  -22.4070   -6.3390 C.2     1  UNL1        0.0310
     19  C         17.7430  -22.4790   -5.3590 C.2     1  UNL1        0.0270
     20  C         16.4050  -22.5860   -5.7410 C.2     1  UNL1        0.0740
     21  C         16.0530  -22.5990   -7.0910 C.2     1  UNL1        0.0270
     22  C         17.0540  -22.5240   -8.0630 C.2     1  UNL1        0.0310
     23  S         15.1380  -22.6740   -4.5050 S.O2    1  UNL1        0.2390
     24  O         14.8310  -24.0640   -4.2610 O.2     1  UNL1       -0.2060
     25  O         14.1220  -21.6960   -4.8180 O.2     1  UNL1       -0.2060
     26  N         15.9460  -22.0780   -3.1530 N.3     1  UNL1       -0.2250
     27  H         16.4770  -21.2290   -3.3440 H       1  UNL1        0.1360
     28  H         15.2700  -21.9430   -2.3990 H       1  UNL1        0.1360
@<TRIPOS>BOND
     1    14    12    1
     2    12    13    2
     3    12    10    1
     4    11    10    1
     5    13     9    1
     6    10     8    2
     7     9     7   ar
     8     9    15   ar
     9     8     7    1
    10    16    15    1
    11     7     6   ar
    12    15     5   ar
    13     6     5   ar
    14     5     1    1
    15     1     2    2
    16     1     3   am
    17     4     3    1
    18     3    17    1
    19    22    17    2
    20    22    21    1
    21    17    18    1
    22    21    20    2
    23    18    19    2
    24    20    19    1
    25    20    23    1
    26    25    23    2
    27    23    24    2
    28    23    26    1
    29    27    26    1
    30    26    28    1
