@<TRIPOS>MOLECULE
65164_out_ligand_01.pdbqt
 33 36 0 0 0
SMALL
GASTEIGER

@<TRIPOS>ATOM
      1  C         21.9040  -22.3570  -11.4240 C.2     1  UNL1        0.0340
      2  C         21.4310  -23.0910  -10.3360 C.2     1  UNL1        0.0300
      3  C         20.0820  -23.0180   -9.9620 C.2     1  UNL1        0.0190
      4  C         19.1900  -22.2170  -10.6820 C.2     1  UNL1        0.0320
      5  C         19.6610  -21.4650  -11.7620 C.2     1  UNL1        0.0190
      6  C         21.0100  -21.5380  -12.1290 C.2     1  UNL1        0.0300
      7  N         23.2420  -22.3690  -11.8650 N.am    1  UNL1       -0.3270
      8  C         24.3420  -21.7950  -11.2520 C.2     1  UNL1        0.2260
      9  O         24.3260  -21.1510  -10.2040 O.2     1  UNL1       -0.2730
     10  H         23.4260  -22.9280  -12.6900 H       1  UNL1        0.1690
     11  C         25.6530  -21.9530  -12.0180 C.3     1  UNL1        0.1420
     12  C         25.7360  -21.2040  -13.3360 C.2     1  UNL1       -0.0380
     13  C         26.0500  -19.8330  -13.2960 C.2     1  UNL1        0.0080
     14  C         26.1110  -19.0840  -14.4640 C.2     1  UNL1        0.0010
     15  C         25.8600  -19.6920  -15.6910 C.2     1  UNL1        0.0120
     16  C         25.5500  -21.0570  -15.7690 C.2     1  UNL1       -0.0250
     17  C         25.3030  -21.6500  -17.0180 C.2     1  UNL1        0.0120
     18  C         25.4880  -21.8380  -14.5870 C.2     1  UNL1       -0.0190
     19  C         24.9960  -23.0060  -17.1200 C.2     1  UNL1        0.0010
     20  C         24.9350  -23.7860  -15.9750 C.2     1  UNL1        0.0010
     21  C         25.1790  -23.2110  -14.7260 C.2     1  UNL1        0.0130
     22  C         17.7670  -22.1720  -10.2500 C.2     1  UNL1        0.2510
     23  O         17.0030  -21.3380  -10.7240 O.2     1  UNL1       -0.2680
     24  N         17.3920  -23.0850   -9.2860 N.am    1  UNL1       -0.3570
     25  H         18.1090  -23.5910   -8.7840 H       1  UNL1        0.1620
     26  C         16.0550  -23.0710   -8.7180 C.3     1  UNL1        0.1270
     27  C         15.8600  -24.1560   -7.6560 C.3     1  UNL1        0.0580
     28  C         15.9760  -23.5930   -6.2610 C.2     1  UNL1       -0.0570
     29  C         17.1420  -23.8000   -5.5120 C.2     1  UNL1        0.0070
     30  C         17.2470  -23.2990   -4.2140 C.2     1  UNL1        0.0010
     31  C         16.1870  -22.5910   -3.6520 C.2     1  UNL1        0.0000
     32  C         15.0210  -22.3830   -4.3870 C.2     1  UNL1        0.0010
     33  C         14.9140  -22.8830   -5.6860 C.2     1  UNL1        0.0070
@<TRIPOS>BOND
     1    19    17    2
     2    19    20    1
     3    17    16    1
     4    20    21    2
     5    16    15    2
     6    16    18    1
     7    15    14    1
     8    21    18    1
     9    18    12    2
    10    14    13    2
    11    12    13    1
    12    12    11    1
    13    10     7    1
    14     6     5    1
    15     6     1    2
    16    11     8    1
    17     7     1    1
    18     7     8   am
    19     5     4    2
    20     1     2    1
    21     8     9    2
    22    23    22    2
    23     4    22    1
    24     4     3    1
    25     2     3    2
    26    22    24   am
    27    24    25    1
    28    24    26    1
    29    26    27    1
    30    27    28    1
    31    28    33    2
    32    28    29    1
    33    33    32    1
    34    29    30    2
    35    32    31    2
    36    30    31    1
