@<TRIPOS>MOLECULE
65183_out_ligand_01.pdbqt
 37 40 0 0 0
SMALL
GASTEIGER

@<TRIPOS>ATOM
      1  C         18.2960  -22.8640   -8.5850 C.2     1  UNL1        0.1140
      2  N         17.0260  -22.8450   -8.1120 N.2     1  UNL1       -0.2440
      3  C         16.8150  -22.4820   -6.8190 C.2     1  UNL1        0.0420
      4  C         17.8580  -22.1510   -5.9540 C.2     1  UNL1       -0.0320
      5  C         19.1630  -22.1850   -6.4660 C.2     1  UNL1        0.0340
      6  C         19.3940  -22.5470   -7.7960 C.2     1  UNL1        0.0800
      7  C         20.7310  -22.5600   -8.3030 C.1     1  UNL1        0.1020
      8  N         21.8230  -22.5440   -8.6970 N.1     1  UNL1       -0.1910
      9  C         17.6200  -21.7590   -4.5190 C.3     1  UNL1        0.0400
     10  C         16.9980  -22.8810   -3.6870 C.3     1  UNL1        0.0050
     11  C         15.4930  -23.0470   -3.8840 C.3     1  UNL1        0.0010
     12  C         15.0730  -23.4880   -5.2850 C.3     1  UNL1        0.0060
     13  C         15.3780  -22.4550   -6.3690 C.3     1  UNL1        0.0600
     14  S         18.4100  -23.3520  -10.2940 S.3     1  UNL1       -0.1000
     15  C         18.4070  -21.7010  -11.0620 C.3     1  UNL1        0.1840
     16  C         19.7620  -21.1600  -11.5140 C.2     1  UNL1        0.2310
     17  N         20.6830  -22.0920  -11.9380 N.am    1  UNL1       -0.3270
     18  H         20.3170  -23.0370  -12.0570 H       1  UNL1        0.1690
     19  O         19.9540  -19.9440  -11.4660 O.2     1  UNL1       -0.2720
     20  C         22.0050  -21.8820  -12.3720 C.2     1  UNL1        0.0340
     21  C         23.1280  -22.4520  -11.7670 C.2     1  UNL1        0.0310
     22  C         24.4120  -22.1740  -12.2470 C.2     1  UNL1        0.0270
     23  C         24.5710  -21.3350  -13.3530 C.2     1  UNL1        0.0750
     24  C         23.4600  -20.7530  -13.9660 C.2     1  UNL1        0.0270
     25  C         22.1830  -21.0370  -13.4770 C.2     1  UNL1        0.0310
     26  S         26.2020  -20.9430  -13.9440 S.O2    1  UNL1        0.2470
     27  O         27.1210  -21.0450  -12.8310 O.2     1  UNL1       -0.2050
     28  O         26.0900  -19.7190  -14.7090 O.2     1  UNL1       -0.2050
     29  N         26.5710  -22.1570  -15.0610 N.pl3   1  UNL1       -0.1580
     30  H         27.5040  -22.0000  -15.4430 H       1  UNL1        0.1480
     31  C         25.5590  -22.4030  -16.0730 C.ar    1  UNL1        0.1700
     32  O         25.2560  -21.5080  -17.0480 O.2     1  UNL1       -0.2000
     33  N         24.2570  -22.0180  -17.8510 N.ar    1  UNL1       -0.1310
     34  C         23.9880  -23.2360  -17.3660 C.ar    1  UNL1        0.0680
     35  C         22.9380  -24.0610  -18.0100 C.3     1  UNL1        0.0730
     36  C         24.8110  -23.5470  -16.2450 C.ar    1  UNL1        0.0130
     37  C         24.8490  -24.8050  -15.4650 C.3     1  UNL1        0.0540
@<TRIPOS>BOND
     1    35    34    1
     2    33    34   ar
     3    33    32   ar
     4    34    36   ar
     5    32    31   ar
     6    36    31   ar
     7    36    37    1
     8    31    29    1
     9    30    29    1
    10    29    26    1
    11    28    26    2
    12    24    25    1
    13    24    23    2
    14    26    23    1
    15    26    27    2
    16    25    20    2
    17    23    22    1
    18    20    17    1
    19    20    21    1
    20    22    21    2
    21    18    17    1
    22    17    16   am
    23    16    19    2
    24    16    15    1
    25    15    14    1
    26    14     1    1
    27     8     7    3
    28     1     2    2
    29     1     6    1
    30     7     6    1
    31     2     3    1
    32     6     5    2
    33     3    13    1
    34     3     4    2
    35     5     4    1
    36    13    12    1
    37     4     9    1
    38    12    11    1
    39     9    10    1
    40    11    10    1
