@<TRIPOS>MOLECULE
65189_out_ligand_01.pdbqt
 38 42 0 0 0
SMALL
GASTEIGER

@<TRIPOS>ATOM
      1  C         19.2160  -22.0290  -10.6780 C.2     1  UNL1        0.0320
      2  C         20.3360  -22.7040  -10.1860 C.2     1  UNL1        0.0190
      3  C         21.5710  -22.5790  -10.8290 C.2     1  UNL1        0.0300
      4  C         21.7020  -21.7860  -11.9760 C.2     1  UNL1        0.0340
      5  C         20.5750  -21.1280  -12.4730 C.2     1  UNL1        0.0300
      6  C         19.3360  -21.2480  -11.8310 C.2     1  UNL1        0.0190
      7  N         22.9800  -21.7210  -12.5650 N.am    1  UNL1       -0.3260
      8  C         23.3500  -21.0500  -13.7300 C.2     1  UNL1        0.2350
      9  O         22.6010  -20.3500  -14.4070 O.2     1  UNL1       -0.2720
     10  H         23.7290  -22.1660  -12.0470 H       1  UNL1        0.1690
     11  C         24.8420  -21.2730  -14.0780 C.3     1  UNL1        0.1440
     12  C         25.5990  -22.1130  -13.0550 C.2     1  UNL1       -0.0410
     13  C         26.0840  -21.5170  -11.8780 C.2     1  UNL1        0.0080
     14  C         26.7890  -22.2690  -10.9340 C.2     1  UNL1        0.0010
     15  C         27.0190  -23.6250  -11.1530 C.2     1  UNL1        0.0000
     16  C         26.5430  -24.2310  -12.3130 C.2     1  UNL1        0.0010
     17  C         25.8390  -23.4820  -13.2570 C.2     1  UNL1        0.0080
     18  C         25.0510  -21.7590  -15.5130 C.2     1  UNL1       -0.0410
     19  C         26.0400  -21.1580  -16.3110 C.2     1  UNL1        0.0080
     20  C         26.2560  -21.5860  -17.6210 C.2     1  UNL1        0.0010
     21  C         25.4920  -22.6230  -18.1530 C.2     1  UNL1        0.0000
     22  C         24.5180  -23.2390  -17.3710 C.2     1  UNL1        0.0010
     23  C         24.3010  -22.8160  -16.0580 C.2     1  UNL1        0.0080
     24  C         17.9250  -22.1840   -9.9590 C.2     1  UNL1        0.2510
     25  O         16.9390  -21.5560  -10.3280 O.2     1  UNL1       -0.2680
     26  N         17.9200  -23.0790   -8.9110 N.am    1  UNL1       -0.3540
     27  H         18.7360  -23.6450   -8.7310 H       1  UNL1        0.1620
     28  C         16.6880  -23.4750   -8.2470 C.3     1  UNL1        0.1590
     29  C         16.8670  -23.9260   -6.7730 C.3     1  UNL1        0.1720
     30  O         15.6540  -24.5830   -6.3350 O.3     1  UNL1       -0.3790
     31  C         14.8070  -23.7720   -5.5250 C.3     1  UNL1        0.1730
     32  C         15.5210  -23.3760   -4.2430 C.3     1  UNL1        0.0650
     33  C         16.7760  -22.6220   -4.5860 C.2     1  UNL1       -0.0470
     34  C         17.3180  -21.7010   -3.6820 C.2     1  UNL1        0.0080
     35  C         17.4210  -22.8850   -5.8090 C.2     1  UNL1       -0.0210
     36  C         18.4940  -21.0200   -3.9940 C.2     1  UNL1        0.0010
     37  C         19.1370  -21.2670   -5.2020 C.2     1  UNL1        0.0010
     38  C         18.6110  -22.1990   -6.0990 C.2     1  UNL1        0.0100
@<TRIPOS>BOND
     1    21    20    2
     2    21    22    1
     3    20    19    1
     4    22    23    2
     5    19    18    2
     6    23    18    1
     7    18    11    1
     8     9     8    2
     9    11     8    1
    10    11    12    1
    11     8     7   am
    12    17    12    2
    13    17    16    1
    14    12    13    1
    15     7    10    1
    16     7     4    1
    17     5     4    2
    18     5     6    1
    19    16    15    2
    20     4     3    1
    21    13    14    2
    22     6     1    2
    23    15    14    1
    24     3     2    2
    25     1     2    1
    26     1    24    1
    27    25    24    2
    28    24    26   am
    29    26    27    1
    30    26    28    1
    31    28    29    1
    32    29    30    1
    33    29    35    1
    34    30    31    1
    35    38    35    1
    36    38    37    2
    37    35    33    2
    38    31    32    1
    39    37    36    1
    40    33    32    1
    41    33    34    1
    42    36    34    2
