@<TRIPOS>MOLECULE
65203_out_ligand_01.pdbqt
 31 34 0 0 0
SMALL
GASTEIGER

@<TRIPOS>ATOM
      1  O         21.8420  -22.3910   -8.2620 O.2     1  UNL1       -0.2680
      2  C         21.2450  -22.7610   -9.2660 C.2     1  UNL1        0.2510
      3  N         20.0970  -23.5270   -9.2460 N.am    1  UNL1       -0.3560
      4  H         19.7510  -23.9100  -10.1150 H       1  UNL1        0.1620
      5  C         21.7730  -22.4140  -10.6130 C.2     1  UNL1        0.0320
      6  C         21.0290  -21.6750  -11.5360 C.2     1  UNL1        0.0190
      7  C         21.5670  -21.3750  -12.7960 C.2     1  UNL1        0.0300
      8  C         22.8500  -21.8030  -13.1410 C.2     1  UNL1        0.0350
      9  C         23.5970  -22.5300  -12.2050 C.2     1  UNL1        0.0300
     10  C         23.0660  -22.8300  -10.9470 C.2     1  UNL1        0.0190
     11  N         23.4590  -21.5450  -14.3820 N.am    1  UNL1       -0.3210
     12  C         24.4410  -20.6170  -14.6830 C.2     1  UNL1        0.2790
     13  O         24.9540  -19.8370  -13.8870 O.2     1  UNL1       -0.2650
     14  H         23.1490  -22.0980  -15.1730 H       1  UNL1        0.1690
     15  C         24.8230  -20.6480  -16.0840 C.2     1  UNL1        0.1420
     16  C         25.6650  -19.8330  -16.8170 C.2     1  UNL1        0.0450
     17  C         25.6660  -20.3300  -18.1410 C.2     1  UNL1        0.0270
     18  C         24.8250  -21.4180  -18.1420 C.2     1  UNL1        0.1430
     19  O         24.3080  -21.6220  -16.9040 O.2     1  UNL1       -0.3170
     20  C         19.5860  -24.1000   -8.0110 C.3     1  UNL1        0.1370
     21  C         18.2180  -23.4970   -7.5790 C.3     1  UNL1        0.0030
     22  C         17.6150  -22.6650   -8.7390 C.3     1  UNL1        0.0160
     23  C         16.1150  -22.6350   -8.4600 C.3     1  UNL1        0.0010
     24  C         15.8050  -23.9450   -7.7370 C.3     1  UNL1        0.0010
     25  C         17.1540  -24.6210   -7.4940 C.3     1  UNL1        0.0160
     26  C         18.3690  -22.6240   -6.3190 C.2     1  UNL1       -0.0480
     27  C         17.7070  -22.9950   -5.1320 C.2     1  UNL1        0.0080
     28  C         17.7990  -22.2240   -3.9700 C.2     1  UNL1        0.0010
     29  C         18.5600  -21.0610   -3.9660 C.2     1  UNL1        0.0000
     30  C         19.2210  -20.6690   -5.1240 C.2     1  UNL1        0.0010
     31  C         19.1240  -21.4400   -6.2880 C.2     1  UNL1        0.0080
@<TRIPOS>BOND
     1    18    17    2
     2    18    19    1
     3    17    16    1
     4    19    15    1
     5    16    15    2
     6    15    12    1
     7    14    11    1
     8    12    11   am
     9    12    13    2
    10    11     8    1
    11     8     7    2
    12     8     9    1
    13     7     6    1
    14     9    10    2
    15     6     5    2
    16    10     5    1
    17     5     2    1
    18     4     3    1
    19     2     3   am
    20     2     1    2
    21     3    20    1
    22    22    23    1
    23    22    21    1
    24    23    24    1
    25    20    21    1
    26    24    25    1
    27    21    25    1
    28    21    26    1
    29    26    31    2
    30    26    27    1
    31    31    30    1
    32    27    28    2
    33    30    29    2
    34    28    29    1
