@<TRIPOS>MOLECULE
65229_out_ligand_01.pdbqt
 31 34 0 0 0
SMALL
GASTEIGER

@<TRIPOS>ATOM
      1  C         22.1730  -23.3220   -9.3080 C.2     1  UNL1        0.0340
      2  C         22.0550  -22.2390   -8.4300 C.2     1  UNL1        0.0300
      3  C         20.9600  -22.1370   -7.5660 C.2     1  UNL1        0.0190
      4  C         19.9620  -23.1180   -7.5740 C.2     1  UNL1        0.0320
      5  C         20.0910  -24.2160   -8.4290 C.2     1  UNL1        0.0190
      6  C         21.1910  -24.3140   -9.2930 C.2     1  UNL1        0.0300
      7  N         23.2930  -23.3360  -10.1630 N.am    1  UNL1       -0.3270
      8  C         23.3760  -22.8500  -11.4590 C.2     1  UNL1        0.2260
      9  O         22.4600  -22.3590  -12.1120 O.2     1  UNL1       -0.2730
     10  H         24.1620  -23.6670   -9.7540 H       1  UNL1        0.1690
     11  C         24.7660  -23.0100  -12.0640 C.3     1  UNL1        0.1420
     12  C         25.4690  -21.7080  -12.4190 C.2     1  UNL1       -0.0380
     13  C         26.0640  -20.9510  -11.3920 C.2     1  UNL1        0.0080
     14  C         26.7380  -19.7680  -11.6690 C.2     1  UNL1        0.0010
     15  C         26.8170  -19.3080  -12.9780 C.2     1  UNL1        0.0120
     16  C         26.2030  -20.0090  -14.0240 C.2     1  UNL1       -0.0250
     17  C         26.2780  -19.5080  -15.3340 C.2     1  UNL1        0.0120
     18  C         25.4990  -21.2140  -13.7570 C.2     1  UNL1       -0.0190
     19  C         25.6540  -20.1650  -16.3920 C.2     1  UNL1        0.0010
     20  C         24.9380  -21.3290  -16.1500 C.2     1  UNL1        0.0010
     21  C         24.8620  -21.8460  -14.8530 C.2     1  UNL1        0.0130
     22  C         18.8020  -22.9560   -6.6540 C.2     1  UNL1        0.2520
     23  O         18.7260  -21.9680   -5.9320 O.2     1  UNL1       -0.2680
     24  N         17.8350  -23.9410   -6.7080 N.am    1  UNL1       -0.3520
     25  H         17.8440  -24.5760   -7.4940 H       1  UNL1        0.1630
     26  C         16.5850  -23.8160   -5.9700 C.3     1  UNL1        0.0840
     27  C         15.7760  -22.6270   -6.5000 C.3     1  UNL1        0.0250
     28  C         14.4880  -22.4210   -5.7070 C.3     1  UNL1        0.0020
     29  C         14.7630  -22.2830   -4.2130 C.3     1  UNL1        0.0000
     30  C         15.5620  -23.4680   -3.6800 C.3     1  UNL1        0.0020
     31  C         16.8550  -23.6700   -4.4660 C.3     1  UNL1        0.0250
@<TRIPOS>BOND
     1    19    20    1
     2    19    17    2
     3    20    21    2
     4    17    16    1
     5    21    18    1
     6    16    18    1
     7    16    15    2
     8    18    12    2
     9    15    14    1
    10    12    11    1
    11    12    13    1
    12     9     8    2
    13    11     8    1
    14    14    13    2
    15     8     7   am
    16     7    10    1
    17     7     1    1
    18     1     6    2
    19     1     2    1
    20     6     5    1
    21     2     3    2
    22     5     4    2
    23     4     3    1
    24     4    22    1
    25    25    24    1
    26    24    22   am
    27    24    26    1
    28    22    23    2
    29    27    26    1
    30    27    28    1
    31    26    31    1
    32    28    29    1
    33    31    30    1
    34    29    30    1
