@<TRIPOS>MOLECULE
6523_out_ligand_01.pdbqt
 30 32 0 0 0
SMALL
GASTEIGER

@<TRIPOS>ATOM
      1  N         21.0390  -22.8330   -9.4550 N.am    1  UNL1       -0.3270
      2  C         20.6040  -24.0680   -9.0010 C.2     1  UNL1        0.2230
      3  O         20.8670  -25.1560   -9.5030 O.2     1  UNL1       -0.2730
      4  H         20.7280  -22.0210   -8.9370 H       1  UNL1        0.1690
      5  C         19.7780  -23.9630   -7.7260 C.3     1  UNL1        0.1170
      6  C         18.9820  -22.6440   -7.6680 C.3     1  UNL1        0.0600
      7  C         17.7440  -22.6120   -8.5710 C.2     1  UNL1       -0.0490
      8  C         16.6800  -23.4870   -8.2840 C.2     1  UNL1        0.0080
      9  C         15.5320  -23.5070   -9.0770 C.2     1  UNL1        0.0010
     10  C         15.4280  -22.6570  -10.1740 C.2     1  UNL1        0.0000
     11  C         16.4740  -21.7890  -10.4790 C.2     1  UNL1        0.0010
     12  C         17.6250  -21.7680   -9.6860 C.2     1  UNL1        0.0080
     13  C         18.6480  -22.3020   -6.2140 C.2     1  UNL1       -0.0490
     14  C         19.0820  -21.0820   -5.6720 C.2     1  UNL1        0.0080
     15  C         18.8160  -20.7570   -4.3400 C.2     1  UNL1        0.0010
     16  C         18.1140  -21.6460   -3.5320 C.2     1  UNL1        0.0000
     17  C         17.6800  -22.8640   -4.0530 C.2     1  UNL1        0.0010
     18  C         17.9470  -23.1920   -5.3840 C.2     1  UNL1        0.0080
     19  C         21.8330  -22.5650  -10.5890 C.2     1  UNL1        0.0340
     20  C         21.2430  -21.8150  -11.6190 C.2     1  UNL1        0.0310
     21  C         21.9550  -21.5090  -12.7820 C.2     1  UNL1        0.0270
     22  C         23.2690  -21.9570  -12.9180 C.2     1  UNL1        0.0740
     23  C         23.8760  -22.6910  -11.8980 C.2     1  UNL1        0.0270
     24  C         23.1550  -22.9960  -10.7390 C.2     1  UNL1        0.0310
     25  S         24.1900  -21.5820  -14.3850 S.O2    1  UNL1        0.2390
     26  O         25.5800  -21.8990  -14.1470 O.2     1  UNL1       -0.2060
     27  O         23.4590  -22.0810  -15.5250 O.2     1  UNL1       -0.2060
     28  N         24.1120  -19.9000  -14.4090 N.3     1  UNL1       -0.2250
     29  H         25.0260  -19.4500  -14.3640 H       1  UNL1        0.1360
     30  H         23.5790  -19.6020  -15.2270 H       1  UNL1        0.1360
@<TRIPOS>BOND
     1    27    25    2
     2    30    28    1
     3    28    25    1
     4    28    29    1
     5    25    26    2
     6    25    22    1
     7    22    21    2
     8    22    23    1
     9    21    20    1
    10    23    24    2
    11    20    19    2
    12    24    19    1
    13    19     1    1
    14    11    10    2
    15    11    12    1
    16    10     9    1
    17    12     7    2
    18     3     2    2
    19     1     2   am
    20     1     4    1
    21     9     8    2
    22     2     5    1
    23     7     8    1
    24     7     6    1
    25     5     6    1
    26     6    13    1
    27    13    14    2
    28    13    18    1
    29    14    15    1
    30    18    17    2
    31    15    16    2
    32    17    16    1
