@<TRIPOS>MOLECULE
65236_out_ligand_01.pdbqt
 34 37 0 0 0
SMALL
GASTEIGER

@<TRIPOS>ATOM
      1  C         21.2830  -22.7510  -10.2810 C.2     1  UNL1        0.0340
      2  C         21.0000  -22.0230  -11.4460 C.2     1  UNL1        0.0310
      3  C         22.0030  -21.7520  -12.3820 C.2     1  UNL1        0.0270
      4  C         23.3000  -22.2070  -12.1490 C.2     1  UNL1        0.0800
      5  C         23.5940  -22.9460  -11.0010 C.2     1  UNL1        0.0270
      6  C         22.5850  -23.2120  -10.0680 C.2     1  UNL1        0.0310
      7  N         20.2080  -22.9810   -9.3980 N.am    1  UNL1       -0.3260
      8  C         20.1420  -22.6960   -8.0410 C.2     1  UNL1        0.2350
      9  O         21.0410  -22.1700   -7.3850 O.2     1  UNL1       -0.2720
     10  H         19.3730  -23.3660   -9.8200 H       1  UNL1        0.1690
     11  C         18.8330  -23.1410   -7.3450 C.3     1  UNL1        0.1440
     12  C         17.6120  -23.1000   -8.2650 C.2     1  UNL1       -0.0410
     13  C         16.6250  -24.0940   -8.1320 C.2     1  UNL1        0.0080
     14  C         15.4820  -24.0820   -8.9330 C.2     1  UNL1        0.0010
     15  C         15.3050  -23.0750   -9.8790 C.2     1  UNL1        0.0000
     16  C         16.2700  -22.0800  -10.0220 C.2     1  UNL1        0.0010
     17  C         17.4150  -22.0890   -9.2210 C.2     1  UNL1        0.0080
     18  C         18.6230  -22.4870   -5.9740 C.2     1  UNL1       -0.0410
     19  C         19.1000  -21.2020   -5.6640 C.2     1  UNL1        0.0080
     20  C         18.9220  -20.6640   -4.3880 C.2     1  UNL1        0.0010
     21  C         18.2720  -21.4020   -3.4010 C.2     1  UNL1        0.0000
     22  C         17.7970  -22.6790   -3.6900 C.2     1  UNL1        0.0010
     23  C         17.9730  -23.2190   -4.9640 C.2     1  UNL1        0.0080
     24  S         24.5810  -21.9030  -13.3400 S.O2    1  UNL1        0.2760
     25  O         25.3190  -23.1280  -13.5730 O.2     1  UNL1       -0.2000
     26  O         25.2790  -20.7120  -12.8940 O.2     1  UNL1       -0.2000
     27  N         23.7540  -21.4630  -14.7090 N.pl3   1  UNL1       -0.1090
     28  H         23.3260  -20.5470  -14.6540 H       1  UNL1        0.1980
     29  C         24.3530  -21.7210  -15.9340 C.cat   1  UNL1        0.7350
     30  N         25.4750  -21.0800  -16.2620 N.2     1  UNL1       -0.0740
     31  C         26.0750  -21.4990  -17.3910 C.2     1  UNL1        0.1380
     32  C         25.6090  -22.5460  -18.1530 C.2     1  UNL1        0.0400
     33  C         24.4730  -23.1610  -17.6820 C.2     1  UNL1        0.1380
     34  N         23.8330  -22.7820  -16.5590 N.2     1  UNL1       -0.0740
@<TRIPOS>BOND
     1    32    33    1
     2    32    31    2
     3    33    34    2
     4    31    30    1
     5    34    29    1
     6    30    29    2
     7    29    27    1
     8    27    28    1
     9    27    24    1
    10    25    24    2
    11    24    26    2
    12    24     4    1
    13     3     4    2
    14     3     2    1
    15     4     5    1
    16     2     1    2
    17     5     6    2
    18     1     6    1
    19     1     7    1
    20    16    15    2
    21    16    17    1
    22    15    14    1
    23    10     7    1
    24     7     8   am
    25    17    12    2
    26    14    13    2
    27    12    13    1
    28    12    11    1
    29     8     9    2
    30     8    11    1
    31    11    18    1
    32    18    19    2
    33    18    23    1
    34    19    20    1
    35    23    22    2
    36    20    21    2
    37    22    21    1
