@<TRIPOS>MOLECULE
65241_out_ligand_01.pdbqt
 32 35 0 0 0
SMALL
GASTEIGER

@<TRIPOS>ATOM
      1  C         21.2220  -22.2860  -11.0970 C.2     1  UNL1        0.0320
      2  C         22.4150  -22.9540  -10.8060 C.2     1  UNL1        0.0190
      3  C         23.5110  -22.8390  -11.6660 C.2     1  UNL1        0.0300
      4  C         23.4350  -22.0520  -12.8210 C.2     1  UNL1        0.0340
      5  C         22.2470  -21.3700  -13.0960 C.2     1  UNL1        0.0300
      6  C         21.1460  -21.4800  -12.2370 C.2     1  UNL1        0.0190
      7  N         24.5820  -21.9920  -13.6330 N.am    1  UNL1       -0.3250
      8  C         24.6550  -22.0260  -15.0170 C.2     1  UNL1        0.2540
      9  O         23.7020  -22.0870  -15.7890 O.2     1  UNL1       -0.2700
     10  H         25.4790  -21.9860  -13.1570 H       1  UNL1        0.1690
     11  C         26.1020  -21.8830  -15.5290 C.3     1  UNL1        0.2450
     12  C         27.0210  -21.2930  -14.4660 C.3     1  UNL1        0.2180
     13  O         26.7380  -19.9090  -14.2230 O.2     1  UNL1       -0.3450
     14  C         26.5620  -19.2160  -15.3880 C.2     1  UNL1        0.1020
     15  C         26.6150  -17.8250  -15.3030 C.2     1  UNL1        0.0390
     16  C         26.3240  -19.8310  -16.6180 C.2     1  UNL1        0.1030
     17  C         26.4620  -17.0500  -16.4530 C.2     1  UNL1        0.0030
     18  C         26.2540  -17.6670  -17.6880 C.2     1  UNL1        0.0030
     19  C         26.1850  -19.0580  -17.7710 C.2     1  UNL1        0.0400
     20  O         26.2050  -21.1870  -16.7750 O.2     1  UNL1       -0.3310
     21  C         20.0740  -22.4340  -10.1550 C.2     1  UNL1        0.2560
     22  N         20.4300  -22.5730   -8.8260 N.am    1  UNL1       -0.3230
     23  H         21.4080  -22.4570   -8.5970 H       1  UNL1        0.1690
     24  O         18.9410  -22.3850  -10.6170 O.2     1  UNL1       -0.2670
     25  C         19.5700  -22.7710   -7.7240 C.2     1  UNL1        0.0350
     26  C         18.8050  -23.9410   -7.7130 C.2     1  UNL1        0.0300
     27  C         17.9250  -24.2070   -6.6620 C.2     1  UNL1        0.0090
     28  C         17.7870  -23.3070   -5.5960 C.2     1  UNL1       -0.0560
     29  C         16.8330  -23.6260   -4.4780 C.3     1  UNL1        0.0490
     30  C         18.5530  -22.1260   -5.5970 C.2     1  UNL1       -0.0540
     31  C         19.4340  -21.8710   -6.6660 C.2     1  UNL1        0.0370
     32  C         18.4460  -21.1220   -4.4820 C.3     1  UNL1        0.0490
@<TRIPOS>BOND
     1    19    18    2
     2    19    16    1
     3    18    17    1
     4    20    16    1
     5    20    11    1
     6    16    14    2
     7    17    15    2
     8     9     8    2
     9    11     8    1
    10    11    12    1
    11    14    15    1
    12    14    13    1
    13     8     7   am
    14    12    13    1
    15     7    10    1
    16     7     4    1
    17     5     4    2
    18     5     6    1
    19     4     3    1
    20     6     1    2
    21     3     2    2
    22     1     2    1
    23     1    21    1
    24    24    21    2
    25    21    22   am
    26    22    23    1
    27    22    25    1
    28    25    26    2
    29    25    31    1
    30    26    27    1
    31    31    30    2
    32    27    28    2
    33    30    28    1
    34    30    32    1
    35    28    29    1
