@<TRIPOS>MOLECULE
65248_out_ligand_01.pdbqt
 31 34 0 0 0
SMALL
GASTEIGER

@<TRIPOS>ATOM
      1  C         21.3620  -22.8160  -10.1950 C.2     1  UNL1        0.0330
      2  C         22.5270  -23.3280   -9.5700 C.2     1  UNL1        0.0180
      3  C         23.7820  -23.1930  -10.1750 C.2     1  UNL1        0.0190
      4  C         23.8320  -22.5380  -11.3910 C.2     1  UNL1        0.0480
      5  C         22.6970  -22.0240  -11.9940 C.2     1  UNL1        0.0490
      6  C         21.4460  -22.1400  -11.4220 C.2     1  UNL1        0.0350
      7  C         23.1130  -21.3990  -13.2490 C.2     1  UNL1        0.2620
      8  O         22.3570  -20.8600  -14.0330 O.2     1  UNL1       -0.2670
      9  N         24.4680  -21.5620  -13.3330 N.am    1  UNL1       -0.2760
     10  C         24.9700  -22.2380  -12.2570 C.2     1  UNL1        0.2620
     11  O         26.1170  -22.5620  -12.0140 O.2     1  UNL1       -0.2670
     12  C         20.0210  -22.9420   -9.5540 C.2     1  UNL1        0.2560
     13  N         20.0480  -23.1810   -8.1930 N.am    1  UNL1       -0.3230
     14  H         20.9480  -23.3540   -7.7680 H       1  UNL1        0.1690
     15  O         19.0360  -22.8550  -10.2740 O.2     1  UNL1       -0.2670
     16  C         18.9400  -23.3010   -7.3270 C.2     1  UNL1        0.0350
     17  C         18.6320  -22.1970   -6.5240 C.2     1  UNL1        0.0300
     18  C         17.5460  -22.2320   -5.6420 C.2     1  UNL1        0.0100
     19  C         16.7400  -23.3730   -5.5460 C.2     1  UNL1       -0.0550
     20  C         17.0510  -24.4740   -6.3540 C.2     1  UNL1        0.0100
     21  C         18.1380  -24.4380   -7.2370 C.2     1  UNL1        0.0300
     22  C         15.5560  -23.4420   -4.5980 C.3     1  UNL1        0.0100
     23  C         14.7490  -22.1410   -4.6120 C.3     1  UNL1        0.0150
     24  C         15.9950  -23.7960   -3.1750 C.3     1  UNL1        0.0150
     25  C         25.2740  -21.0500  -14.4180 C.3     1  UNL1        0.1750
     26  C         24.9280  -21.7100  -15.7240 C.2     1  UNL1       -0.0220
     27  C         24.7640  -23.0960  -15.8220 C.2     1  UNL1        0.0120
     28  C         24.4650  -23.6700  -17.0520 C.2     1  UNL1        0.0200
     29  C         24.3440  -22.8370  -18.1520 C.2     1  UNL1        0.1160
     30  N         24.5070  -21.4980  -18.1010 N.2     1  UNL1       -0.2730
     31  C         24.8020  -20.9660  -16.8930 C.2     1  UNL1        0.1240
@<TRIPOS>BOND
     1    29    30    2
     2    29    28    1
     3    30    31    1
     4    28    27    2
     5    31    26    2
     6    27    26    1
     7    26    25    1
     8    25     9    1
     9     8     7    2
    10     9     7   am
    11     9    10   am
    12     7     5    1
    13    10    11    2
    14    10     4    1
    15     5     6    1
    16     5     4    2
    17     6     1    2
    18     4     3    1
    19    15    12    2
    20     1     2    1
    21     1    12    1
    22     3     2    2
    23    12    13   am
    24    13    14    1
    25    13    16    1
    26    16    21    2
    27    16    17    1
    28    21    20    1
    29    17    18    2
    30    20    19    2
    31    18    19    1
    32    19    22    1
    33    23    22    1
    34    22    24    1
