@<TRIPOS>MOLECULE
6524_out_ligand_01.pdbqt
 27 29 0 0 0
SMALL
GASTEIGER

@<TRIPOS>ATOM
      1  N         19.5900  -22.3710   -9.1690 N.am    1  UNL1       -0.3220
      2  C         19.4050  -23.5620   -8.4900 C.2     1  UNL1        0.2570
      3  O         20.0420  -24.5980   -8.6210 O.2     1  UNL1       -0.2670
      4  H         19.0770  -21.5750   -8.8100 H       1  UNL1        0.1690
      5  C         20.4720  -22.1280  -10.2460 C.2     1  UNL1        0.0420
      6  C         21.8510  -22.3210  -10.1280 C.2     1  UNL1        0.0540
      7  C         22.6980  -22.0490  -11.2070 C.2     1  UNL1        0.0760
      8  C         22.1880  -21.6000  -12.4220 C.2     1  UNL1        0.0250
      9  C         20.8120  -21.4300  -12.5570 C.2     1  UNL1        0.0100
     10  C         19.9420  -21.6920  -11.4810 C.2     1  UNL1       -0.0350
     11  C         18.4650  -21.4820  -11.6940 C.3     1  UNL1        0.0500
     12  S         24.4420  -22.2840  -11.0060 S.O2    1  UNL1        0.2390
     13  O         24.9370  -22.9690  -12.1760 O.2     1  UNL1       -0.2060
     14  O         25.0190  -21.0510  -10.5240 O.2     1  UNL1       -0.2060
     15  N         24.5090  -23.3950   -9.7400 N.3     1  UNL1       -0.2250
     16  H         25.2060  -24.1070   -9.9660 H       1  UNL1        0.1360
     17  H         23.6050  -23.8140   -9.5250 H       1  UNL1        0.1360
     18  C         18.3670  -23.4930   -7.4290 C.2     1  UNL1        0.0430
     19  C         17.3110  -24.4060   -7.5400 C.2     1  UNL1        0.0180
     20  C         16.3320  -24.4570   -6.5560 C.2     1  UNL1        0.0020
     21  C         16.4060  -23.5950   -5.4630 C.2     1  UNL1        0.0120
     22  C         17.4450  -22.6550   -5.3460 C.2     1  UNL1       -0.0250
     23  C         17.4870  -21.7840   -4.2440 C.2     1  UNL1        0.0120
     24  C         18.4470  -22.5780   -6.3450 C.2     1  UNL1       -0.0100
     25  C         18.4930  -20.8280   -4.1210 C.2     1  UNL1        0.0010
     26  C         19.4680  -20.7210   -5.1040 C.2     1  UNL1        0.0010
     27  C         19.4430  -21.5800   -6.2050 C.2     1  UNL1        0.0130
@<TRIPOS>BOND
     1     9     8    2
     2     9    10    1
     3     8     7    1
     4    13    12    2
     5    11    10    1
     6    10     5    2
     7     7    12    1
     8     7     6    2
     9    12    14    2
    10    12    15    1
    11     5     6    1
    12     5     1    1
    13    16    15    1
    14    15    17    1
    15     1     4    1
    16     1     2   am
    17     3     2    2
    18     2    18    1
    19    19    18    2
    20    19    20    1
    21    18    24    1
    22    20    21    2
    23    24    27    1
    24    24    22    2
    25    27    26    2
    26    21    22    1
    27    22    23    1
    28    26    25    1
    29    23    25    2
