@<TRIPOS>MOLECULE
65240_out_ligand_01.pdbqt
 36 39 0 0 0
SMALL
GASTEIGER

@<TRIPOS>ATOM
      1  C         19.9140  -21.7620  -11.2010 C.2     1  UNL1        0.0330
      2  C         18.7250  -21.1790  -11.7060 C.2     1  UNL1        0.0180
      3  C         17.4800  -21.4900  -11.1460 C.2     1  UNL1        0.0190
      4  C         17.4660  -22.3890  -10.0960 C.2     1  UNL1        0.0480
      5  C         18.6230  -22.9740   -9.6140 C.2     1  UNL1        0.0490
      6  C         19.8640  -22.6870  -10.1450 C.2     1  UNL1        0.0350
      7  C         18.2430  -23.8640   -8.5170 C.2     1  UNL1        0.2620
      8  O         19.0270  -24.5270   -7.8680 O.2     1  UNL1       -0.2670
      9  N         16.8830  -23.7710   -8.3990 N.am    1  UNL1       -0.2760
     10  C         16.3480  -22.9040   -9.3080 C.2     1  UNL1        0.2620
     11  O         15.1880  -22.5790   -9.4720 O.2     1  UNL1       -0.2670
     12  C         21.2470  -21.4400  -11.7840 C.2     1  UNL1        0.2560
     13  N         22.3200  -22.0540  -11.1630 N.am    1  UNL1       -0.3230
     14  H         22.1120  -22.7030  -10.4150 H       1  UNL1        0.1690
     15  O         21.2770  -20.6990  -12.7570 O.2     1  UNL1       -0.2670
     16  C         23.6830  -21.9640  -11.5280 C.2     1  UNL1        0.0350
     17  C         24.6910  -21.5040  -10.6770 C.2     1  UNL1        0.0290
     18  C         26.0120  -21.4030  -11.1240 C.2     1  UNL1        0.0030
     19  C         26.3420  -21.7710  -12.4260 C.2     1  UNL1        0.0170
     20  C         25.3490  -22.2650  -13.2740 C.2     1  UNL1        0.0340
     21  C         24.0220  -22.3520  -12.8310 C.2     1  UNL1        0.0460
     22  C         25.7200  -22.6560  -14.6570 C.2     1  UNL1        0.2520
     23  N         25.2110  -21.8470  -15.6540 N.am    1  UNL1       -0.3490
     24  H         24.4470  -21.2400  -15.3900 H       1  UNL1        0.1630
     25  O         26.4080  -23.6510  -14.8390 O.2     1  UNL1       -0.2680
     26  C         25.3840  -22.0980  -17.0930 C.3     1  UNL1        0.0220
     27  C         24.5360  -23.2980  -17.5440 C.3     1  UNL1        0.0370
     28  C         24.9030  -20.8470  -17.8510 C.3     1  UNL1        0.0370
     29  C         26.8620  -22.3300  -17.4430 C.3     1  UNL1        0.0370
     30  C         16.1120  -24.4530   -7.3830 C.3     1  UNL1        0.1750
     31  C         16.0580  -23.6580   -6.1070 C.2     1  UNL1       -0.0220
     32  C         14.9310  -22.9060   -5.7620 C.2     1  UNL1        0.0120
     33  C         14.9080  -22.2130   -4.5570 C.2     1  UNL1        0.0200
     34  C         16.0150  -22.2960   -3.7300 C.2     1  UNL1        0.1160
     35  N         17.1170  -23.0170   -4.0240 N.2     1  UNL1       -0.2730
     36  C         17.1140  -23.6830   -5.2010 C.2     1  UNL1        0.1240
@<TRIPOS>BOND
     1    28    26    1
     2    27    26    1
     3    29    26    1
     4    26    23    1
     5    23    24    1
     6    23    22   am
     7    25    22    2
     8    22    20    1
     9    20    21    1
    10    20    19    2
    11    21    16    2
    12    15    12    2
    13    19    18    1
    14    12     1    1
    15    12    13   am
    16     2     1    2
    17     2     3    1
    18    16    13    1
    19    16    17    1
    20     1     6    1
    21    13    14    1
    22     3     4    2
    23    18    17    2
    24     6     5    2
    25     4     5    1
    26     4    10    1
    27     5     7    1
    28    11    10    2
    29    10     9   am
    30     7     9   am
    31     7     8    2
    32     9    30    1
    33    30    31    1
    34    31    32    2
    35    31    36    1
    36    32    33    1
    37    36    35    2
    38    33    34    2
    39    35    34    1
