@<TRIPOS>MOLECULE
65243_out_ligand_01.pdbqt
 31 33 0 0 0
SMALL
GASTEIGER

@<TRIPOS>ATOM
      1  C         18.6210  -23.3680   -8.9440 C.2     1  UNL1        0.0800
      2  C         19.6700  -24.1260   -8.4190 C.2     1  UNL1        0.0270
      3  C         20.9510  -23.9960   -8.9620 C.2     1  UNL1        0.0310
      4  C         21.1980  -23.1050  -10.0160 C.2     1  UNL1        0.0340
      5  C         20.1440  -22.3280  -10.5070 C.2     1  UNL1        0.0310
      6  C         18.8580  -22.4510   -9.9700 C.2     1  UNL1        0.0270
      7  S         16.9920  -23.5220   -8.2510 S.O2    1  UNL1        0.2630
      8  O         16.0550  -23.5680   -9.3530 O.2     1  UNL1       -0.2000
      9  O         17.0340  -24.5910   -7.2740 O.2     1  UNL1       -0.2000
     10  N         16.7780  -22.1010   -7.3640 N.pl3   1  UNL1       -0.2800
     11  H         16.0880  -21.4830   -7.7850 H       1  UNL1        0.1790
     12  C         16.8820  -22.1170   -5.9410 C.2     1  UNL1        0.0540
     13  C         18.1180  -21.8420   -5.3230 C.2     1  UNL1       -0.0340
     14  C         18.2290  -21.9610   -3.9290 C.2     1  UNL1        0.0090
     15  C         19.3450  -21.4170   -6.0860 C.3     1  UNL1        0.0500
     16  C         17.1300  -22.3110   -3.1530 C.2     1  UNL1        0.0010
     17  C         15.8990  -22.5400   -3.7620 C.2     1  UNL1        0.0090
     18  C         15.7550  -22.4390   -5.1570 C.2     1  UNL1       -0.0340
     19  C         14.3830  -22.7030   -5.7180 C.3     1  UNL1        0.0500
     20  N         22.5160  -23.0500  -10.5120 N.am    1  UNL1       -0.3270
     21  C         23.4810  -22.0930  -10.2400 C.2     1  UNL1        0.2220
     22  O         23.3560  -21.1300   -9.4910 O.2     1  UNL1       -0.2730
     23  H         22.7660  -23.7700  -11.1780 H       1  UNL1        0.1690
     24  C         24.7980  -22.3860  -10.9440 C.3     1  UNL1        0.1080
     25  C         24.9620  -21.5770  -12.2300 C.3     1  UNL1        0.0470
     26  C         24.9690  -22.4600  -13.4560 C.2     1  UNL1       -0.0580
     27  C         25.3600  -23.8010  -13.3640 C.2     1  UNL1        0.0070
     28  C         25.3910  -24.6100  -14.5020 C.2     1  UNL1        0.0010
     29  C         25.0310  -24.0850  -15.7410 C.2     1  UNL1        0.0000
     30  C         24.6410  -22.7510  -15.8450 C.2     1  UNL1        0.0010
     31  C         24.6110  -21.9400  -14.7090 C.2     1  UNL1        0.0070
@<TRIPOS>BOND
     1    30    29    2
     2    30    31    1
     3    29    28    1
     4    31    26    2
     5    28    27    2
     6    26    27    1
     7    26    25    1
     8    25    24    1
     9    23    20    1
    10    24    21    1
    11    20    21   am
    12    20     4    1
    13     5     4    2
    14     5     6    1
    15    21    22    2
    16     4     3    1
    17     6     1    2
    18     8     7    2
    19     3     2    2
    20     1     2    1
    21     1     7    1
    22     7    10    1
    23     7     9    2
    24    11    10    1
    25    10    12    1
    26    15    13    1
    27    12    13    2
    28    12    18    1
    29    19    18    1
    30    13    14    1
    31    18    17    2
    32    14    16    2
    33    17    16    1
