@<TRIPOS>MOLECULE
65277_out_ligand_01.pdbqt
 29 32 0 0 0
SMALL
GASTEIGER

@<TRIPOS>ATOM
      1  C         20.1470  -21.9490  -11.2300 C.2     1  UNL1        0.0330
      2  C         18.9990  -21.3140  -11.7690 C.2     1  UNL1        0.0180
      3  C         17.7290  -21.5540  -11.2310 C.2     1  UNL1        0.0190
      4  C         17.6500  -22.4220  -10.1580 C.2     1  UNL1        0.0480
      5  C         18.7710  -23.0310   -9.6220 C.2     1  UNL1        0.0490
      6  C         20.0360  -22.8130  -10.1300 C.2     1  UNL1        0.0350
      7  C         18.3260  -23.8710   -8.5100 C.2     1  UNL1        0.2620
      8  O         19.0650  -24.5540   -7.8290 O.2     1  UNL1       -0.2670
      9  N         16.9700  -23.7180   -8.4300 N.am    1  UNL1       -0.2760
     10  C         16.4920  -22.8680   -9.3860 C.2     1  UNL1        0.2620
     11  O         15.3480  -22.5170   -9.6040 O.2     1  UNL1       -0.2670
     12  C         21.5050  -21.6900  -11.7840 C.2     1  UNL1        0.2560
     13  O         21.5870  -20.9960  -12.7890 O.2     1  UNL1       -0.2670
     14  N         22.5450  -22.2470  -11.0630 N.am    1  UNL1       -0.3230
     15  H         22.3140  -22.6840  -10.1800 H       1  UNL1        0.1690
     16  C         23.9220  -22.1970  -11.3730 C.2     1  UNL1        0.0360
     17  C         24.8410  -21.3800  -10.7110 C.2     1  UNL1        0.0290
     18  C         26.1900  -21.3820  -11.0810 C.2     1  UNL1        0.0030
     19  C         26.6330  -22.1970  -12.1200 C.2     1  UNL1        0.0180
     20  C         25.7210  -23.0110  -12.7870 C.2     1  UNL1        0.0080
     21  I         26.3700  -24.2310  -14.3400 I       1  UNL1       -0.0450
     22  C         24.3720  -23.0130  -12.4200 C.2     1  UNL1        0.0470
     23  C         16.1310  -24.4200   -7.4840 C.3     1  UNL1        0.1750
     24  C         16.0210  -23.6740   -6.1830 C.2     1  UNL1       -0.0220
     25  C         14.9240  -22.8530   -5.9040 C.2     1  UNL1        0.0120
     26  C         14.8700  -22.1610   -4.6980 C.2     1  UNL1        0.0200
     27  C         15.9230  -22.3060   -3.8110 C.2     1  UNL1        0.1160
     28  N         17.0040  -23.0780   -4.0510 N.2     1  UNL1       -0.2730
     29  C         17.0330  -23.7400   -5.2290 C.2     1  UNL1        0.1240
@<TRIPOS>BOND
     1    21    20    1
     2    13    12    2
     3    20    22    1
     4    20    19    2
     5    22    16    2
     6    19    18    1
     7    12     1    1
     8    12    14   am
     9     2     3    1
    10     2     1    2
    11    16    14    1
    12    16    17    1
    13     3     4    2
    14     1     6    1
    15    18    17    2
    16    14    15    1
    17     4     5    1
    18     4    10    1
    19     6     5    2
    20     5     7    1
    21    11    10    2
    22    10     9   am
    23     7     9   am
    24     7     8    2
    25     9    23    1
    26    23    24    1
    27    24    25    2
    28    24    29    1
    29    25    26    1
    30    29    28    2
    31    26    27    2
    32    28    27    1
