@<TRIPOS>MOLECULE
65275_out_ligand_01.pdbqt
 31 34 0 0 0
SMALL
GASTEIGER

@<TRIPOS>ATOM
      1  C         20.8780  -22.7130  -10.0540 C.2     1  UNL1        0.0350
      2  C         22.1270  -23.3120   -9.8370 C.2     1  UNL1        0.0310
      3  C         23.1710  -23.1410  -10.7500 C.2     1  UNL1        0.0270
      4  C         22.9670  -22.3590  -11.8880 C.2     1  UNL1        0.0750
      5  C         21.7240  -21.7710  -12.1260 C.2     1  UNL1        0.0270
      6  C         20.6850  -21.9440  -11.2050 C.2     1  UNL1        0.0310
      7  N         19.8850  -22.9300   -9.0790 N.am    1  UNL1       -0.3230
      8  C         18.5550  -22.5580   -9.1340 C.2     1  UNL1        0.2570
      9  O         17.9650  -22.0080  -10.0540 O.2     1  UNL1       -0.2670
     10  H         20.1770  -23.4280   -8.2460 H       1  UNL1        0.1690
     11  C         17.7780  -22.9420   -7.9300 C.2     1  UNL1        0.0430
     12  C         16.7840  -23.9100   -8.1200 C.2     1  UNL1        0.0180
     13  C         16.0510  -24.3740   -7.0340 C.2     1  UNL1        0.0020
     14  C         16.3090  -23.8670   -5.7610 C.2     1  UNL1        0.0120
     15  C         17.2860  -22.8770   -5.5540 C.2     1  UNL1       -0.0250
     16  C         17.5160  -22.3700   -4.2640 C.2     1  UNL1        0.0120
     17  C         18.0360  -22.3840   -6.6490 C.2     1  UNL1       -0.0100
     18  C         18.4640  -21.3720   -4.0430 C.2     1  UNL1        0.0010
     19  C         19.1900  -20.8600   -5.1100 C.2     1  UNL1        0.0010
     20  C         18.9770  -21.3550   -6.3980 C.2     1  UNL1        0.0130
     21  S         24.2830  -22.1720  -13.0650 S.O2    1  UNL1        0.2480
     22  O         24.9080  -23.4550  -13.3010 O.2     1  UNL1       -0.2050
     23  O         25.0830  -21.0510  -12.6060 O.2     1  UNL1       -0.2050
     24  N         23.5160  -21.6440  -14.4410 N.pl3   1  UNL1       -0.1480
     25  H         23.0380  -20.7600  -14.3210 H       1  UNL1        0.1490
     26  C         24.2270  -21.7210  -15.6320 C.cat   1  UNL1        0.2150
     27  N         24.0300  -22.7620  -16.4400 N.2     1  UNL1       -0.2300
     28  C         24.6390  -22.6920  -17.6380 C.2     1  UNL1        0.1210
     29  C         25.3820  -21.6090  -18.0460 C.2     1  UNL1        0.0390
     30  C         25.4620  -20.5710  -17.1470 C.2     1  UNL1        0.1210
     31  N         24.8740  -20.5900  -15.9360 N.2     1  UNL1       -0.2300
@<TRIPOS>BOND
     1    29    28    2
     2    29    30    1
     3    28    27    1
     4    30    31    2
     5    27    26    2
     6    31    26    1
     7    26    24    1
     8    24    25    1
     9    24    21    1
    10    22    21    2
    11    21    23    2
    12    21     4    1
    13     5     4    2
    14     5     6    1
    15     4     3    1
    16     6     1    2
    17     3     2    2
    18     9     8    2
    19     1     2    1
    20     1     7    1
    21     8     7   am
    22     8    11    1
    23     7    10    1
    24    12    11    2
    25    12    13    1
    26    11    17    1
    27    13    14    2
    28    17    20    1
    29    17    15    2
    30    20    19    2
    31    14    15    1
    32    15    16    1
    33    19    18    1
    34    16    18    2
