@<TRIPOS>MOLECULE
65304_out_ligand_01.pdbqt
 32 35 0 0 0
SMALL
GASTEIGER

@<TRIPOS>ATOM
      1  C         21.0740  -22.5260  -10.8140 C.ar    1  UNL1        0.1530
      2  N         21.4470  -21.7990  -11.8530 N.ar    1  UNL1       -0.1330
      3  N         20.3390  -21.1400  -12.3370 N.ar    1  UNL1       -0.1280
      4  C         19.3150  -21.4740  -11.5840 C.ar    1  UNL1        0.1740
      5  C         17.9520  -21.1100  -11.6040 C.2     1  UNL1        0.0570
      6  C         17.1290  -21.6190  -10.6790 C.2     1  UNL1        0.0440
      7  C         17.7290  -22.5420   -9.6820 C.2     1  UNL1        0.1140
      8  N         18.9620  -22.9250   -9.6250 N.2     1  UNL1       -0.1580
      9  N         19.7270  -22.3560  -10.6030 N.ar    1  UNL1       -0.1970
     10  C         21.9170  -23.4130   -9.9630 C.3     1  UNL1        0.1020
     11  C         22.9910  -22.6390   -9.1960 C.3     1  UNL1        0.1300
     12  N         23.7120  -21.6970  -10.0350 N.am    1  UNL1       -0.3560
     13  C         24.8880  -22.0570  -10.6610 C.2     1  UNL1        0.2510
     14  O         25.4470  -23.1320  -10.4700 O.2     1  UNL1       -0.2680
     15  H         23.1540  -20.9540  -10.4390 H       1  UNL1        0.1620
     16  C         25.4440  -21.0840  -11.6450 C.2     1  UNL1        0.0320
     17  C         24.9370  -21.0950  -12.9490 C.2     1  UNL1        0.0170
     18  C         25.4250  -20.2000  -13.9050 C.2     1  UNL1        0.0070
     19  C         26.4400  -19.2950  -13.5720 C.2     1  UNL1       -0.0620
     20  C         26.9410  -18.3110  -14.5890 C.3     1  UNL1        0.0480
     21  C         26.9460  -19.2850  -12.2660 C.2     1  UNL1        0.0070
     22  C         26.4590  -20.1790  -11.3080 C.2     1  UNL1        0.0170
     23  S         16.5850  -23.1410   -8.5080 S.3     1  UNL1       -0.1040
     24  C         17.7370  -23.7840   -7.2560 C.3     1  UNL1        0.1240
     25  C         17.9420  -22.8330   -6.1060 C.2     1  UNL1        0.0120
     26  C         18.9990  -21.9140   -6.1550 C.2     1  UNL1        0.1250
     27  F         19.8250  -21.9000   -7.2110 F       1  UNL1       -0.2050
     28  C         19.2310  -20.9970   -5.1320 C.2     1  UNL1        0.0430
     29  C         18.3990  -20.9810   -4.0170 C.2     1  UNL1        0.0050
     30  C         17.3440  -21.8880   -3.9380 C.2     1  UNL1        0.0240
     31  C         17.1160  -22.8070   -4.9710 C.2     1  UNL1        0.0440
     32 CL         15.7890  -23.8970   -4.7820 Cl      1  UNL1       -0.0840
@<TRIPOS>BOND
     1    20    19    1
     2    18    19    2
     3    18    17    1
     4    19    21    1
     5    17    16    2
     6     3     2   ar
     7     3     4   ar
     8    21    22    2
     9     2     1   ar
    10    16    22    1
    11    16    13    1
    12     5     4    1
    13     5     6    2
    14     4     9   ar
    15     1     9   ar
    16     1    10    1
    17     6     7    1
    18    13    14    2
    19    13    12   am
    20     9     8    1
    21    15    12    1
    22    12    11    1
    23    10    11    1
    24     7     8    2
    25     7    23    1
    26    23    24    1
    27    24    25    1
    28    27    26    1
    29    26    25    2
    30    26    28    1
    31    25    31    1
    32    28    29    2
    33    31    32    1
    34    31    30    2
    35    29    30    1
