@<TRIPOS>MOLECULE
6532_out_ligand_01.pdbqt
 32 34 0 0 0
SMALL
GASTEIGER

@<TRIPOS>ATOM
      1  C         19.1890  -22.3060   -9.4860 C.2     1  UNL1       -0.0080
      2  C         19.2200  -22.1450   -8.1020 C.2     1  UNL1        0.0130
      3  C         20.4270  -22.3150   -7.4330 C.2     1  UNL1        0.0030
      4  C         21.5890  -22.6400   -8.1460 C.2     1  UNL1        0.0290
      5  C         21.5580  -22.7980   -9.5360 C.2     1  UNL1        0.0350
      6  C         20.3420  -22.6340  -10.2060 C.2     1  UNL1        0.0430
      7  C         17.9200  -22.1060  -10.2110 C.2     1  UNL1        0.0610
      8  N         16.7370  -22.0880   -9.6740 N.2     1  UNL1       -0.1760
      9  C         18.0280  -21.8950  -11.7010 C.3     1  UNL1        0.0730
     10  N         16.6210  -22.2470   -8.3240 N.am    1  UNL1       -0.2430
     11  C         16.0260  -23.3910   -7.8130 C.2     1  UNL1        0.2710
     12  O         15.5870  -24.3250   -8.4760 O.2     1  UNL1       -0.2660
     13  H         17.0610  -21.5770   -7.7060 H       1  UNL1        0.1920
     14  C         15.9710  -23.4700   -6.3260 C.2     1  UNL1        0.0360
     15  C         14.8780  -24.0330   -5.6530 C.2     1  UNL1        0.0170
     16  C         14.8730  -24.0770   -4.2590 C.2     1  UNL1        0.0040
     17  C         15.9590  -23.5700   -3.5420 C.2     1  UNL1        0.0370
     18  C         17.0630  -23.0270   -4.2040 C.2     1  UNL1        0.0690
     19  C         17.0670  -22.9800   -5.5990 C.2     1  UNL1        0.0530
     20  O         18.0580  -22.5780   -3.3810 O.2     1  UNL1       -0.3560
     21  C         18.5780  -21.2810   -3.6530 C.3     1  UNL1        0.2100
     22  N         22.6870  -23.1280  -10.3170 N.am    1  UNL1       -0.3230
     23  C         23.8290  -22.3670  -10.4990 C.2     1  UNL1        0.2560
     24  O         24.0270  -21.2330  -10.0800 O.2     1  UNL1       -0.2670
     25  H         22.6150  -23.9840  -10.8520 H       1  UNL1        0.1690
     26  C         24.8860  -23.0050  -11.3330 C.2     1  UNL1        0.0350
     27  C         26.1040  -23.3470  -10.7240 C.2     1  UNL1        0.0170
     28  C         27.1200  -23.9520  -11.4670 C.2     1  UNL1        0.0040
     29  C         26.9180  -24.2250  -12.8200 C.2     1  UNL1        0.0420
     30  C         25.7030  -23.9000  -13.4120 C.2     1  UNL1        0.1170
     31  F         25.5070  -24.1780  -14.7070 F       1  UNL1       -0.2060
     32  C         24.6820  -23.2980  -12.6850 C.2     1  UNL1        0.0590
@<TRIPOS>BOND
     1    31    30    1
     2    30    29    2
     3    30    32    1
     4    29    28    1
     5    32    26    2
     6     9     7    1
     7    28    27    2
     8    26    27    1
     9    26    23    1
    10    25    22    1
    11    23    22   am
    12    23    24    2
    13    22     5    1
    14     7     8    2
    15     7     1    1
    16     6     5    1
    17     6     1    2
    18     8    10    1
    19     5     4    2
    20     1     2    1
    21    12    11    2
    22    10    11   am
    23    10    13    1
    24     4     3    1
    25     2     3    2
    26    11    14    1
    27    14    15    2
    28    14    19    1
    29    15    16    1
    30    19    18    2
    31    16    17    2
    32    18    17    1
    33    18    20    1
    34    21    20    1
