@<TRIPOS>MOLECULE
65336_out_ligand_01.pdbqt
 33 37 0 0 0
SMALL
GASTEIGER

@<TRIPOS>ATOM
      1  C         19.8380  -21.7630  -11.1530 C.2     1  UNL1        0.0790
      2  C         20.5150  -21.3210  -12.2310 C.3     1  UNL1        0.1100
      3  N         21.8690  -21.5510  -12.5000 N.pl3   1  UNL1       -0.3620
      4  C         22.6060  -22.2640  -11.5550 C.2     1  UNL1        0.1100
      5  C         22.0540  -22.7320  -10.4340 C.2     1  UNL1        0.0800
      6  C         22.5630  -23.5000   -9.3010 C.2     1  UNL1        0.2750
      7  O         23.6940  -23.8970   -9.1150 O.2     1  UNL1       -0.2660
      8  N         21.4220  -23.6500   -8.5200 N.am    1  UNL1       -0.2420
      9  N         20.2660  -23.0670   -9.0330 N.pl3   1  UNL1       -0.1700
     10  C         20.6210  -22.5130  -10.1590 C.2     1  UNL1        0.1110
     11  H         21.3990  -24.1370   -7.6310 H       1  UNL1        0.1920
     12  C         18.4070  -21.4340  -11.0290 C.2     1  UNL1        0.2550
     13  O         17.8370  -20.6890  -11.8130 O.2     1  UNL1       -0.2680
     14  N         17.7900  -22.1030   -9.9940 N.am    1  UNL1       -0.3560
     15  H         18.3280  -22.7700   -9.4530 H       1  UNL1        0.1620
     16  C         16.3470  -22.2190   -9.9030 C.3     1  UNL1        0.1270
     17  C         15.9010  -23.5210   -9.2190 C.3     1  UNL1        0.0600
     18  C         16.4120  -23.6840   -7.8130 C.2     1  UNL1       -0.0290
     19  C         17.5470  -24.3860   -7.4460 C.2     1  UNL1        0.0960
     20  N         17.7210  -24.2590   -6.0950 N.pl3   1  UNL1       -0.3650
     21  C         16.7060  -23.5040   -5.5580 C.2     1  UNL1        0.0420
     22  H         18.4890  -24.6460   -5.5620 H       1  UNL1        0.1650
     23  C         16.4840  -23.1160   -4.2310 C.2     1  UNL1        0.0300
     24  C         15.8540  -23.1500   -6.6050 C.2     1  UNL1       -0.0020
     25  C         15.3470  -22.3500   -3.9610 C.2     1  UNL1        0.0020
     26  C         14.4690  -21.9900   -4.9790 C.2     1  UNL1        0.0010
     27  C         14.7090  -22.3830   -6.3010 C.2     1  UNL1        0.0140
     28  C         22.4860  -21.0100  -13.7280 C.3     1  UNL1        0.1590
     29  C         23.8250  -21.7010  -14.0500 C.3     1  UNL1        0.1390
     30  C         25.0420  -20.8180  -13.8040 C.3     1  UNL1        0.0350
     31  C         25.2970  -20.2160  -15.1640 C.3     1  UNL1        0.0290
     32  C         24.9310  -21.3580  -16.0830 C.3     1  UNL1        0.1680
     33  O         23.8450  -22.0530  -15.4540 O.3     1  UNL1       -0.3840
@<TRIPOS>BOND
     1    32    33    1
     2    32    31    1
     3    33    29    1
     4    31    30    1
     5    29    30    1
     6    29    28    1
     7    28     3    1
     8     3     2    1
     9     3     4    1
    10     2     1    1
    11    13    12    2
    12     4     5    2
    13     1    12    1
    14     1    10    2
    15    12    14   am
    16     5    10    1
    17     5     6    1
    18    10     9    1
    19    14    16    1
    20    14    15    1
    21    16    17    1
    22     6     7    2
    23     6     8   am
    24    17    18    1
    25     9     8    1
    26     8    11    1
    27    18    19    2
    28    18    24    1
    29    19    20    1
    30    24    27    1
    31    24    21    2
    32    27    26    2
    33    20    22    1
    34    20    21    1
    35    21    23    1
    36    26    25    1
    37    23    25    2
