@<TRIPOS>MOLECULE
65349_out_ligand_01.pdbqt
 31 35 0 0 0
SMALL
GASTEIGER

@<TRIPOS>ATOM
      1  S         21.9220  -23.0130   -9.3250 S.3     1  UNL1       -0.0790
      2  C         22.9600  -21.5230   -9.3740 C.3     1  UNL1        0.1850
      3  C         23.9170  -21.5590  -10.5560 C.2     1  UNL1        0.2310
      4  O         25.0220  -21.0260  -10.4810 O.2     1  UNL1       -0.2720
      5  N         23.4130  -22.2440  -11.6480 N.am    1  UNL1       -0.3260
      6  H         22.4340  -22.5290  -11.5890 H       1  UNL1        0.1690
      7  C         24.0580  -22.5240  -12.8700 C.2     1  UNL1        0.0370
      8  C         24.9190  -23.6310  -12.8910 C.2     1  UNL1        0.0320
      9  C         25.6200  -23.9690  -14.0530 C.2     1  UNL1        0.0420
     10  C         25.4750  -23.1930  -15.1980 C.2     1  UNL1        0.1020
     11  C         24.6010  -22.1020  -15.1920 C.2     1  UNL1        0.1040
     12  O         26.2220  -23.5560  -16.2890 O.2     1  UNL1       -0.3460
     13  C         23.9040  -21.7610  -14.0290 C.2     1  UNL1        0.0690
     14  O         24.3920  -21.3050  -16.2900 O.2     1  UNL1       -0.3460
     15  C         24.8880  -21.9200  -17.4830 C.3     1  UNL1        0.2020
     16  C         26.2720  -22.4990  -17.2530 C.3     1  UNL1        0.2020
     17  C         20.5300  -22.4840  -10.2050 C.ar    1  UNL1        0.2130
     18  N         20.5120  -22.0590  -11.4510 N.ar    1  UNL1       -0.1200
     19  N         19.2200  -21.7020  -11.7550 N.ar    1  UNL1       -0.1280
     20  C         18.4790  -21.9360  -10.6910 C.ar    1  UNL1        0.1750
     21  C         17.1050  -21.7500  -10.4280 C.2     1  UNL1        0.0570
     22  N         19.2630  -22.4370   -9.6680 N.ar    1  UNL1       -0.1870
     23  C         16.6190  -22.0840   -9.2250 C.2     1  UNL1        0.0380
     24  C         17.5730  -22.6430   -8.2160 C.2     1  UNL1        0.0880
     25  N         18.8510  -22.7960   -8.4130 N.2     1  UNL1       -0.1630
     26  C         16.9980  -23.0200   -6.8950 C.2     1  UNL1       -0.0060
     27  C         17.8080  -23.4310   -5.8280 C.2     1  UNL1        0.0140
     28  C         17.2310  -23.7550   -4.5960 C.2     1  UNL1        0.0010
     29  C         15.8500  -23.6660   -4.4260 C.2     1  UNL1        0.0000
     30  C         15.0410  -23.2410   -5.4800 C.2     1  UNL1        0.0010
     31  C         15.6130  -22.9130   -6.7120 C.2     1  UNL1        0.0140
@<TRIPOS>BOND
     1    15    16    1
     2    15    14    1
     3    16    12    1
     4    14    11    1
     5    12    10    1
     6    10    11    2
     7    10     9    1
     8    11    13    1
     9     9     8    2
    10    13     7    2
    11     8     7    1
    12     7     5    1
    13    19    18   ar
    14    19    20   ar
    15     5     6    1
    16     5     3   am
    17    18    17   ar
    18    20    21    1
    19    20    22   ar
    20     3     4    2
    21     3     2    1
    22    21    23    2
    23    17    22   ar
    24    17     1    1
    25    22    25    1
    26     2     1    1
    27    23    24    1
    28    25    24    2
    29    24    26    1
    30    26    31    2
    31    26    27    1
    32    31    30    1
    33    27    28    2
    34    30    29    2
    35    28    29    1
