@<TRIPOS>MOLECULE
65342_out_ligand_01.pdbqt
 33 36 0 0 0
SMALL
GASTEIGER

@<TRIPOS>ATOM
      1  C         21.9590  -21.9230  -10.6860 C.2     1  UNL1        0.0810
      2  C         21.5990  -22.7190   -9.6690 C.2     1  UNL1        0.1130
      3  N         20.3000  -22.9740   -9.2620 N.pl3   1  UNL1       -0.3310
      4  C         19.2190  -22.4230   -9.9790 C.2     1  UNL1        0.1440
      5  N         17.9460  -22.7230   -9.6090 N.2     1  UNL1       -0.2350
      6  C         16.9160  -22.1670  -10.2990 C.2     1  UNL1        0.0330
      7  C         15.5260  -22.5080   -9.8510 C.3     1  UNL1        0.0700
      8  C         17.1090  -21.3320  -11.3930 C.2     1  UNL1        0.0280
      9  C         18.4080  -21.0420  -11.7870 C.2     1  UNL1        0.0210
     10  C         19.4740  -21.5910  -11.0730 C.2     1  UNL1        0.0610
     11  C         20.8690  -21.3060  -11.4790 C.2     1  UNL1        0.2010
     12  O         21.0910  -20.5950  -12.4530 O.2     1  UNL1       -0.2860
     13  C         19.9770  -23.8370   -8.1120 C.3     1  UNL1        0.2330
     14  C         19.1870  -23.0830   -7.0370 C.2     1  UNL1        0.2400
     15  O         19.6080  -22.0270   -6.5730 O.2     1  UNL1       -0.2710
     16  N         17.9980  -23.7080   -6.7010 N.am    1  UNL1       -0.3260
     17  H         17.8410  -24.6080   -7.1580 H       1  UNL1        0.1690
     18  C         17.0390  -23.3040   -5.7550 C.2     1  UNL1        0.0370
     19  C         17.1800  -23.4740   -4.3750 C.2     1  UNL1        0.0290
     20  C         16.1750  -23.0490   -3.4970 C.2     1  UNL1        0.0050
     21  C         15.0250  -22.4480   -3.9930 C.2     1  UNL1        0.0420
     22  C         14.8860  -22.2780   -5.3640 C.2     1  UNL1        0.1180
     23  F         13.7800  -21.7000   -5.8500 F       1  UNL1       -0.2060
     24  C         15.8780  -22.7000   -6.2450 C.2     1  UNL1        0.0710
     25  C         23.4080  -21.7660  -10.9650 C.2     1  UNL1        0.1970
     26  O         24.1440  -21.2010  -10.1580 O.2     1  UNL1       -0.2860
     27  C         23.9750  -22.2600  -12.2450 C.2     1  UNL1        0.0150
     28  C         24.0420  -21.4630  -13.3930 C.2     1  UNL1        0.0160
     29  C         24.6220  -21.9650  -14.5630 C.2     1  UNL1        0.0070
     30  C         25.1630  -23.2550  -14.5930 C.2     1  UNL1       -0.0620
     31  C         25.7620  -23.8060  -15.8540 C.3     1  UNL1        0.0480
     32  C         25.1030  -24.0460  -13.4400 C.2     1  UNL1        0.0070
     33  C         24.5220  -23.5490  -12.2700 C.2     1  UNL1        0.0160
@<TRIPOS>BOND
     1    31    30    1
     2    30    29    2
     3    30    32    1
     4    29    28    1
     5    32    33    2
     6    28    27    2
     7    12    11    2
     8    33    27    1
     9    27    25    1
    10     9     8    2
    11     9    10    1
    12    11    10    1
    13    11     1    1
    14     8     6    1
    15    10     4    2
    16    25     1    1
    17    25    26    2
    18     1     2    2
    19     6     7    1
    20     6     5    2
    21     4     5    1
    22     4     3    1
    23     2     3    1
    24     3    13    1
    25    13    14    1
    26    17    16    1
    27    14    16   am
    28    14    15    2
    29    16    18    1
    30    24    18    2
    31    24    22    1
    32    23    22    1
    33    18    19    1
    34    22    21    2
    35    19    20    2
    36    21    20    1
