@<TRIPOS>MOLECULE
65371_out_ligand_01.pdbqt
 32 34 0 0 0
SMALL
GASTEIGER

@<TRIPOS>ATOM
      1  C         17.0690  -21.6610  -10.6660 C.3     1  UNL1        0.2110
      2  C         16.4980  -22.4880   -9.5750 C.ar    1  UNL1        0.1870
      3  N         16.0550  -23.7270   -9.6160 N.ar    1  UNL1       -0.1240
      4  N         15.6480  -24.0280   -8.3310 N.ar    1  UNL1       -0.1140
      5  C         15.8680  -22.9560   -7.5960 C.ar    1  UNL1        0.2310
      6  O         16.4020  -21.9280   -8.3310 O.2     1  UNL1       -0.2670
      7  S         15.5150  -22.8560   -5.9020 S.3     1  UNL1       -0.0780
      8  C         17.0490  -23.5380   -5.2120 C.3     1  UNL1        0.1220
      9  C         18.2530  -23.1750   -6.0530 C.2     1  UNL1       -0.0420
     10  C         18.9270  -21.9430   -5.9200 C.2     1  UNL1       -0.0550
     11  C         20.0480  -21.6880   -6.7260 C.2     1  UNL1        0.0080
     12  C         18.5000  -20.9030   -4.9210 C.3     1  UNL1        0.0490
     13  C         20.4860  -22.6210   -7.6680 C.2     1  UNL1        0.0070
     14  C         19.8070  -23.8280   -7.8330 C.2     1  UNL1       -0.0610
     15  C         20.2860  -24.8400   -8.8320 C.3     1  UNL1        0.0480
     16  C         18.7040  -24.1010   -7.0150 C.2     1  UNL1        0.0150
     17  N         18.4370  -22.0700  -10.9250 N.am    1  UNL1       -0.3490
     18  C         19.2690  -21.2840  -11.6910 C.2     1  UNL1        0.2520
     19  O         18.8860  -20.2720  -12.2660 O.2     1  UNL1       -0.2680
     20  H         18.8530  -22.7020  -10.2510 H       1  UNL1        0.1630
     21  C         20.6970  -21.7030  -11.7720 C.2     1  UNL1        0.0320
     22  C         21.4540  -21.2760  -12.8740 C.2     1  UNL1        0.0180
     23  C         22.7950  -21.6490  -12.9970 C.2     1  UNL1        0.0260
     24  C         23.3720  -22.4670  -12.0210 C.2     1  UNL1        0.0740
     25  C         22.6290  -22.9040  -10.9210 C.2     1  UNL1        0.0260
     26  C         21.2870  -22.5290  -10.8020 C.2     1  UNL1        0.0180
     27  S         25.0810  -22.9260  -12.1830 S.O2    1  UNL1        0.2420
     28  O         25.5600  -23.2520  -10.8560 O.2     1  UNL1       -0.2060
     29  O         25.1990  -23.8700  -13.2770 O.2     1  UNL1       -0.2060
     30  N         25.8230  -21.4650  -12.6830 N.3     1  UNL1       -0.2150
     31  C         26.1960  -20.5930  -11.5450 C.3     1  UNL1        0.1290
     32  C         26.9470  -21.6250  -13.6320 C.3     1  UNL1        0.1290
@<TRIPOS>BOND
     1    32    30    1
     2    29    27    2
     3    23    22    1
     4    23    24    2
     5    22    21    2
     6    30    27    1
     7    30    31    1
     8    19    18    2
     9    27    24    1
    10    27    28    2
    11    24    25    1
    12    21    18    1
    13    21    26    1
    14    18    17   am
    15    17     1    1
    16    17    20    1
    17    25    26    2
    18     1     2    1
    19     3     2   ar
    20     3     4   ar
    21     2     6   ar
    22    15    14    1
    23     4     5   ar
    24     6     5   ar
    25    14    13    2
    26    14    16    1
    27    13    11    1
    28     5     7    1
    29    16     9    2
    30    11    10    2
    31     9    10    1
    32     9     8    1
    33    10    12    1
    34     7     8    1
