@<TRIPOS>MOLECULE
65372_out_ligand_01.pdbqt
 34 37 0 0 0
SMALL
GASTEIGER

@<TRIPOS>ATOM
      1  C         20.5270  -22.8690   -8.7810 C.2     1  UNL1       -0.0210
      2  C         19.7000  -23.7820   -8.1580 C.2     1  UNL1        0.1000
      3  N         18.4340  -23.6420   -8.6720 N.pl3   1  UNL1       -0.3510
      4  C         18.4310  -22.6900   -9.6720 C.2     1  UNL1        0.0450
      5  C         17.3990  -22.2140  -10.4990 C.2     1  UNL1        0.0300
      6  C         17.7020  -21.2070  -11.4200 C.2     1  UNL1        0.0020
      7  C         18.9880  -20.6870  -11.5150 C.2     1  UNL1        0.0010
      8  C         20.0090  -21.1650  -10.6880 C.2     1  UNL1        0.0140
      9  C         19.7330  -22.1860   -9.7550 C.2     1  UNL1       -0.0010
     10  C         21.9710  -22.6190   -8.4710 C.3     1  UNL1        0.1440
     11  C         22.7680  -22.0750   -9.6550 C.2     1  UNL1        0.2260
     12  N         22.7810  -22.9060  -10.7650 N.am    1  UNL1       -0.3270
     13  H         22.3310  -23.8070  -10.6510 H       1  UNL1        0.1690
     14  O         23.2740  -20.9560   -9.5920 O.2     1  UNL1       -0.2730
     15  C         23.4140  -22.6910  -12.0040 C.2     1  UNL1        0.0340
     16  C         22.8460  -21.7200  -12.8440 C.2     1  UNL1        0.0310
     17  C         23.4070  -21.4380  -14.0930 C.2     1  UNL1        0.0270
     18  C         24.5480  -22.1290  -14.5020 C.2     1  UNL1        0.0740
     19  C         25.1150  -23.1070  -13.6850 C.2     1  UNL1        0.0270
     20  C         24.5490  -23.3810  -12.4360 C.2     1  UNL1        0.0310
     21  S         25.2750  -21.7900  -16.0830 S.O2    1  UNL1        0.2390
     22  O         26.5990  -21.2550  -15.8720 O.2     1  UNL1       -0.2060
     23  O         25.0160  -22.9110  -16.9590 O.2     1  UNL1       -0.2060
     24  N         24.2900  -20.5460  -16.6470 N.3     1  UNL1       -0.2250
     25  H         23.5450  -20.9510  -17.2170 H       1  UNL1        0.1360
     26  H         23.9230  -19.9520  -15.9050 H       1  UNL1        0.1360
     27  C         17.2760  -24.3900   -8.1920 C.3     1  UNL1        0.1670
     28  C         16.6540  -23.7170   -6.9900 C.2     1  UNL1       -0.0400
     29  C         15.6110  -22.7900   -7.1550 C.2     1  UNL1        0.0120
     30  C         15.0240  -22.1810   -6.0440 C.2     1  UNL1        0.0430
     31  C         15.4780  -22.4950   -4.7690 C.2     1  UNL1        0.1160
     32  F         14.9110  -21.9130   -3.7030 F       1  UNL1       -0.2060
     33  C         16.5100  -23.4060   -4.5830 C.2     1  UNL1        0.0430
     34  C         17.1000  -24.0150   -5.6900 C.2     1  UNL1        0.0120
@<TRIPOS>BOND
     1    25    24    1
     2    23    21    2
     3    24    21    1
     4    24    26    1
     5    21    22    2
     6    21    18    1
     7    18    17    2
     8    18    19    1
     9    17    16    1
    10    19    20    2
    11    16    15    2
    12    20    15    1
    13    15    12    1
    14     7     6    2
    15     7     8    1
    16     6     5    1
    17    12    13    1
    18    12    11   am
    19     8     9    2
    20     5     4    2
    21     9     4    1
    22     9     1    1
    23     4     3    1
    24    11    14    2
    25    11    10    1
    26     1    10    1
    27     1     2    2
    28     3    27    1
    29     3     2    1
    30    27    28    1
    31    29    28    2
    32    29    30    1
    33    28    34    1
    34    30    31    2
    35    34    33    2
    36    31    33    1
    37    31    32    1
