@<TRIPOS>MOLECULE
65395_out_ligand_01.pdbqt
 34 37 0 0 0
SMALL
GASTEIGER

@<TRIPOS>ATOM
      1  C         20.9270  -22.1100  -10.9880 C.ar    1  UNL1        0.1960
      2  N         21.1990  -21.3450  -12.0230 N.ar    1  UNL1       -0.1220
      3  N         20.0260  -20.7520  -12.4260 N.ar    1  UNL1       -0.1290
      4  C         19.0700  -21.1610  -11.6210 C.ar    1  UNL1        0.1580
      5  C         17.6840  -20.8540  -11.5440 C.2     1  UNL1        0.0540
      6  C         16.9250  -21.4330  -10.5940 C.2     1  UNL1        0.0220
      7  C         17.4910  -22.3910   -9.6420 C.2     1  UNL1        0.0480
      8  C         18.8120  -22.6550   -9.6960 C.2     1  UNL1        0.1180
      9  N         19.5890  -22.0450  -10.6810 N.ar    1  UNL1       -0.2820
     10  S         22.0770  -23.0540  -10.1090 S.3     1  UNL1       -0.0810
     11  C         23.2720  -21.7650   -9.6450 C.3     1  UNL1        0.1850
     12  C         24.2930  -21.5700  -10.7580 C.2     1  UNL1        0.2310
     13  N         24.0260  -22.3290  -11.8860 N.am    1  UNL1       -0.3260
     14  H         23.1450  -22.8380  -11.8840 H       1  UNL1        0.1690
     15  O         25.2330  -20.7940  -10.6040 O.2     1  UNL1       -0.2720
     16  C         24.7810  -22.4090  -13.0830 C.2     1  UNL1        0.0400
     17  C         24.4110  -21.7300  -14.2490 C.2     1  UNL1        0.0300
     18  C         25.1670  -21.8370  -15.4210 C.2     1  UNL1        0.0090
     19  C         26.3150  -22.6270  -15.4560 C.2     1  UNL1       -0.0610
     20  C         27.1180  -22.7310  -16.7180 C.3     1  UNL1        0.0480
     21  C         26.7040  -23.2950  -14.2930 C.2     1  UNL1        0.0150
     22  C         25.9530  -23.1980  -13.1030 C.2     1  UNL1       -0.0350
     23  C         26.4380  -23.9600  -11.8980 C.3     1  UNL1        0.0500
     24  C         16.6890  -23.0470   -8.5590 C.2     1  UNL1        0.2570
     25  O         15.9180  -23.9550   -8.8380 O.2     1  UNL1       -0.2670
     26  N         16.8960  -22.4830   -7.3150 N.am    1  UNL1       -0.3230
     27  H         17.4830  -21.6600   -7.2730 H       1  UNL1        0.1690
     28  C         16.3230  -22.8880   -6.0900 C.2     1  UNL1        0.0370
     29  C         16.9370  -22.4270   -4.9150 C.2     1  UNL1        0.0290
     30  C         16.4420  -22.7870   -3.6570 C.2     1  UNL1        0.0050
     31  C         15.3290  -23.6150   -3.5650 C.2     1  UNL1        0.0420
     32  C         14.7230  -24.0730   -4.7280 C.2     1  UNL1        0.1180
     33  F         13.6570  -24.8790   -4.6350 F       1  UNL1       -0.2060
     34  C         15.2070  -23.7190   -5.9850 C.2     1  UNL1        0.0710
@<TRIPOS>BOND
     1    20    19    1
     2    19    18    2
     3    19    21    1
     4    18    17    1
     5    21    22    2
     6    17    16    2
     7    22    16    1
     8    22    23    1
     9    16    13    1
    10     3     2   ar
    11     3     4   ar
    12     2     1   ar
    13    13    14    1
    14    13    12   am
    15     4     5    1
    16     4     9   ar
    17     5     6    2
    18     1     9   ar
    19     1    10    1
    20    12    15    2
    21    12    11    1
    22     9     8    1
    23     6     7    1
    24    10    11    1
    25     8     7    2
    26     7    24    1
    27    25    24    2
    28    24    26   am
    29    26    27    1
    30    26    28    1
    31    28    34    2
    32    28    29    1
    33    34    32    1
    34    29    30    2
    35    32    33    1
    36    32    31    2
    37    30    31    1
