@<TRIPOS>MOLECULE
65404_out_ligand_01.pdbqt
 33 37 0 0 0
SMALL
GASTEIGER

@<TRIPOS>ATOM
      1  C         17.5950  -22.5280   -8.2990 C.2     1  UNL1        0.0900
      2  C         16.6400  -22.0080   -9.3260 C.2     1  UNL1        0.0380
      3  C         17.1330  -21.6740  -10.5250 C.2     1  UNL1        0.0570
      4  C         18.5070  -21.8480  -10.7790 C.ar    1  UNL1        0.1750
      5  N         19.2480  -21.6370  -11.8450 N.ar    1  UNL1       -0.1280
      6  N         20.5310  -22.0370  -11.5510 N.ar    1  UNL1       -0.1200
      7  C         20.5430  -22.4560  -10.3020 C.ar    1  UNL1        0.2130
      8  N         19.2840  -22.3620   -9.7570 N.ar    1  UNL1       -0.1870
      9  N         18.8670  -22.7220   -8.5030 N.2     1  UNL1       -0.1630
     10  S         21.9190  -23.0640   -9.4470 S.3     1  UNL1       -0.0790
     11  C         22.9860  -21.6000   -9.4370 C.3     1  UNL1        0.1850
     12  C         23.9240  -21.5710  -10.6350 C.2     1  UNL1        0.2310
     13  O         25.0270  -21.0340  -10.5460 O.2     1  UNL1       -0.2720
     14  N         23.4220  -22.2330  -11.7450 N.am    1  UNL1       -0.3260
     15  H         22.4490  -22.5330  -11.6860 H       1  UNL1        0.1690
     16  C         24.0770  -22.5280  -12.9560 C.2     1  UNL1        0.0370
     17  C         24.9380  -23.6330  -12.9500 C.2     1  UNL1        0.0320
     18  C         25.6820  -23.9640  -14.0840 C.2     1  UNL1        0.0420
     19  C         25.5670  -23.1910  -15.2330 C.2     1  UNL1        0.1020
     20  C         24.6740  -22.1170  -15.2650 C.2     1  UNL1        0.1040
     21  O         26.3660  -23.5390  -16.2940 O.2     1  UNL1       -0.3460
     22  C         23.9390  -21.7800  -14.1270 C.2     1  UNL1        0.0690
     23  O         24.4810  -21.3350  -16.3780 O.2     1  UNL1       -0.3460
     24  C         25.0750  -21.9170  -17.5440 C.3     1  UNL1        0.2020
     25  C         26.4580  -22.4590  -17.2300 C.3     1  UNL1        0.2020
     26  C         17.0160  -22.9000   -6.9730 C.2     1  UNL1        0.0280
     27  C         15.8550  -23.6890   -6.9870 C.2     1  UNL1        0.0170
     28  C         15.2390  -24.0600   -5.7920 C.2     1  UNL1        0.0010
     29  C         15.7820  -23.6510   -4.5760 C.2     1  UNL1        0.0030
     30  C         16.9540  -22.8850   -4.5550 C.2     1  UNL1        0.0370
     31  C         17.5930  -22.5200   -5.7490 C.2     1  UNL1        0.0800
     32  O         18.7470  -21.7860   -5.7780 O.2     1  UNL1       -0.3550
     33  C         18.8930  -20.8140   -4.7410 C.3     1  UNL1        0.2100
@<TRIPOS>BOND
     1    24    25    1
     2    24    23    1
     3    25    21    1
     4    23    20    1
     5    21    19    1
     6    20    19    2
     7    20    22    1
     8    19    18    1
     9    22    16    2
    10    18    17    2
    11    16    17    1
    12    16    14    1
    13     5     6   ar
    14     5     4   ar
    15    14    15    1
    16    14    12   am
    17     6     7   ar
    18     4     3    1
    19     4     8   ar
    20    12    13    2
    21    12    11    1
    22     3     2    2
    23     7     8   ar
    24     7    10    1
    25     8     9    1
    26    10    11    1
    27     2     1    1
    28     9     1    2
    29     1    26    1
    30    27    26    2
    31    27    28    1
    32    26    31    1
    33    28    29    2
    34    32    31    1
    35    32    33    1
    36    31    30    2
    37    29    30    1
