@<TRIPOS>MOLECULE
65423_out_ligand_01.pdbqt
 33 37 0 0 0
SMALL
GASTEIGER

@<TRIPOS>ATOM
      1  N         21.9740  -21.8170   -9.7240 N.ar    1  UNL1       -0.2070
      2  N         21.4030  -21.3460  -10.9010 N.ar    1  UNL1       -0.1480
      3  C         20.1360  -21.5890  -10.7400 C.ar    1  UNL1        0.1760
      4  C         19.0460  -21.2900  -11.6750 C.2     1  UNL1        0.0570
      5  C         17.8020  -21.6390  -11.3210 C.2     1  UNL1        0.0450
      6  C         17.6260  -22.3030  -10.0040 C.2     1  UNL1        0.1190
      7  N         18.5750  -22.5850   -9.1700 N.2     1  UNL1       -0.1540
      8  N         19.8150  -22.2000   -9.5750 N.ar    1  UNL1       -0.1600
      9  C         20.9950  -22.3860   -8.8810 C.ar    1  UNL1        0.3680
     10  O         21.1820  -22.9150   -7.7980 O.2     1  UNL1       -0.2430
     11  C         23.3990  -21.7990   -9.4580 C.3     1  UNL1        0.2590
     12  C         24.2390  -21.7520  -10.7360 C.2     1  UNL1        0.2420
     13  O         25.0730  -20.8640  -10.9060 O.2     1  UNL1       -0.2710
     14  N         23.8530  -22.6940  -11.6740 N.am    1  UNL1       -0.3260
     15  H         23.0680  -23.2750  -11.3810 H       1  UNL1        0.1690
     16  C         24.3810  -22.9240  -12.9560 C.2     1  UNL1        0.0370
     17  C         25.1870  -24.0170  -13.2820 C.2     1  UNL1        0.0320
     18  C         25.6630  -24.1830  -14.5880 C.2     1  UNL1        0.0420
     19  C         25.3330  -23.2580  -15.5730 C.2     1  UNL1        0.1020
     20  C         24.5490  -22.1500  -15.2500 C.2     1  UNL1        0.1040
     21  O         25.8160  -23.4970  -16.8340 O.2     1  UNL1       -0.3460
     22  C         24.0630  -21.9910  -13.9510 C.2     1  UNL1        0.0690
     23  O         24.2080  -21.1780  -16.1570 O.2     1  UNL1       -0.3460
     24  C         25.0240  -21.2560  -17.3330 C.3     1  UNL1        0.2020
     25  C         25.1430  -22.6940  -17.8100 C.3     1  UNL1        0.2020
     26  S         15.9660  -22.7280   -9.6470 S.3     1  UNL1       -0.0690
     27  C         16.0740  -23.1190   -7.9110 C.2     1  UNL1        0.0100
     28  C         16.7920  -24.2350   -7.4650 C.2     1  UNL1        0.0190
     29  C         16.8610  -24.5360   -6.1010 C.2     1  UNL1        0.0040
     30  C         16.2000  -23.7290   -5.1790 C.2     1  UNL1        0.0420
     31  C         15.4770  -22.6300   -5.6290 C.2     1  UNL1        0.1170
     32  F         14.8380  -21.8550   -4.7420 F       1  UNL1       -0.2060
     33  C         15.4040  -22.3180   -6.9820 C.2     1  UNL1        0.0610
@<TRIPOS>BOND
     1    25    24    1
     2    25    21    1
     3    24    23    1
     4    21    19    1
     5    23    20    1
     6    19    20    2
     7    19    18    1
     8    20    22    1
     9    18    17    2
    10    22    16    2
    11    17    16    1
    12    16    14    1
    13     4     5    2
    14     4     3    1
    15    14    15    1
    16    14    12   am
    17     5     6    1
    18    13    12    2
    19     2     3   ar
    20     2     1   ar
    21     3     8   ar
    22    12    11    1
    23     6    26    1
    24     6     7    2
    25     1    11    1
    26     1     9   ar
    27    26    27    1
    28     8     7    1
    29     8     9   ar
    30     9    10    2
    31    27    28    2
    32    27    33    1
    33    28    29    1
    34    33    31    2
    35    29    30    2
    36    31    30    1
    37    31    32    1
