@<TRIPOS>MOLECULE
6542_out_ligand_01.pdbqt
 37 41 0 0 0
SMALL
GASTEIGER

@<TRIPOS>ATOM
      1  C         18.3670  -21.7700  -11.4570 C.2     1  UNL1        0.2890
      2  O         18.1260  -21.1020  -12.4650 O.2     1  UNL1       -0.2640
      3  N         19.6540  -22.2440  -11.2250 N.am    1  UNL1       -0.2770
      4  H         19.9390  -22.4410  -10.2670 H       1  UNL1        0.1840
      5  C         17.3930  -22.1140  -10.4410 C.2     1  UNL1        0.1440
      6  C         16.1950  -21.5400  -10.0480 C.2     1  UNL1        0.0450
      7  C         15.6970  -22.3180   -8.9770 C.2     1  UNL1        0.0380
      8  C         16.6120  -23.3280   -8.7730 C.2     1  UNL1        0.0780
      9  O         17.6400  -23.2120   -9.6590 O.2     1  UNL1       -0.3070
     10  C         16.6730  -24.4660   -7.8190 C.3     1  UNL1        0.2400
     11  O         17.9900  -24.4540   -7.2570 O.2     1  UNL1       -0.3440
     12  C         18.1400  -23.4570   -6.3270 C.2     1  UNL1        0.0760
     13  C         19.1300  -22.4800   -6.5130 C.2     1  UNL1       -0.0210
     14  C         19.2360  -21.4640   -5.5450 C.2     1  UNL1        0.0110
     15  C         18.3610  -21.4010   -4.4570 C.2     1  UNL1        0.0070
     16  C         17.3440  -22.3470   -4.3130 C.2     1  UNL1       -0.0590
     17  C         16.3960  -22.2640   -3.1530 C.3     1  UNL1        0.0480
     18  C         17.2430  -23.3770   -5.2530 C.2     1  UNL1        0.0440
     19  C         20.0900  -22.4510   -7.6930 C.3     1  UNL1        0.0130
     20  C         20.4600  -23.8550   -8.1800 C.3     1  UNL1        0.0150
     21  C         21.3390  -21.6100   -7.4210 C.3     1  UNL1        0.0150
     22  N         20.6890  -21.6870  -12.0300 N.am    1  UNL1       -0.1520
     23  C         21.9430  -22.2390  -11.8360 C.2     1  UNL1        0.3130
     24  O         22.1170  -23.2540  -11.1710 O.2     1  UNL1       -0.2520
     25  N         22.9190  -21.5360  -12.4920 N.am    1  UNL1       -0.3370
     26  H         22.6260  -20.6970  -12.9710 H       1  UNL1        0.1640
     27  H         20.6560  -20.6690  -12.0430 H       1  UNL1        0.1570
     28  C         24.3580  -21.7950  -12.3900 C.3     1  UNL1        0.0350
     29  C         25.0910  -20.9060  -13.4300 C.3     1  UNL1        0.0350
     30  C         26.6130  -21.1150  -13.3600 C.3     1  UNL1       -0.0120
     31  C         27.1050  -20.7540  -11.9490 C.3     1  UNL1        0.0090
     32  C         26.9330  -22.5890  -13.6500 C.3     1  UNL1        0.0090
     33  C         26.4110  -21.6450  -10.9050 C.3     1  UNL1       -0.0120
     34  C         26.7280  -23.1200  -11.2060 C.3     1  UNL1        0.0090
     35  C         24.8910  -21.4260  -10.9830 C.3     1  UNL1        0.0350
     36  C         26.2360  -23.4900  -12.6160 C.3     1  UNL1       -0.0120
     37  C         24.7140  -23.2730  -12.6950 C.3     1  UNL1        0.0350
@<TRIPOS>BOND
     1    32    30    1
     2    32    36    1
     3    29    30    1
     4    29    28    1
     5    30    31    1
     6    26    25    1
     7    37    36    1
     8    37    28    1
     9    36    34    1
    10    25    28    1
    11    25    23   am
    12     2     1    2
    13    28    35    1
    14    27    22    1
    15    22    23   am
    16    22     3    1
    17    31    33    1
    18    23    24    2
    19     1     3   am
    20     1     5    1
    21     3     4    1
    22    34    33    1
    23    35    33    1
    24     5     6    2
    25     5     9    1
    26     6     7    1
    27     9     8    1
    28     7     8    2
    29     8    10    1
    30    20    19    1
    31    10    11    1
    32    19    21    1
    33    19    13    1
    34    11    12    1
    35    13    12    2
    36    13    14    1
    37    12    18    1
    38    14    15    2
    39    18    16    2
    40    15    16    1
    41    16    17    1
