@<TRIPOS>MOLECULE
65431_out_ligand_01.pdbqt
 32 36 0 0 0
SMALL
GASTEIGER

@<TRIPOS>ATOM
      1  C         20.9110  -22.3980  -10.6190 C.ar    1  UNL1        0.2130
      2  N         20.9670  -21.8720  -11.8260 N.ar    1  UNL1       -0.1200
      3  N         19.6950  -21.4730  -12.1670 N.ar    1  UNL1       -0.1280
      4  C         18.9050  -21.7420  -11.1470 C.ar    1  UNL1        0.1750
      5  C         17.5320  -21.5250  -10.9260 C.2     1  UNL1        0.0570
      6  C         16.9890  -21.9000   -9.7600 C.2     1  UNL1        0.0380
      7  C         17.8790  -22.5530   -8.7470 C.2     1  UNL1        0.0880
      8  N         19.1550  -22.7490   -8.9140 N.2     1  UNL1       -0.1630
      9  N         19.6300  -22.3320  -10.1290 N.ar    1  UNL1       -0.1870
     10  S         22.2320  -23.0960   -9.7460 S.3     1  UNL1       -0.0790
     11  C         23.3700  -21.6900   -9.6290 C.3     1  UNL1        0.1850
     12  C         24.2970  -21.6280  -10.8340 C.2     1  UNL1        0.2310
     13  O         25.2470  -20.8510  -10.8510 O.2     1  UNL1       -0.2720
     14  N         23.9400  -22.5040  -11.8440 N.am    1  UNL1       -0.3260
     15  H         23.2120  -23.1800  -11.6160 H       1  UNL1        0.1690
     16  C         24.5380  -22.6560  -13.1100 C.2     1  UNL1        0.0370
     17  C         25.4800  -23.6870  -13.2440 C.2     1  UNL1        0.0320
     18  C         26.1100  -23.9230  -14.4650 C.2     1  UNL1        0.0420
     19  C         25.8010  -23.1300  -15.5660 C.2     1  UNL1        0.1020
     20  C         24.8460  -22.1170  -15.4490 C.2     1  UNL1        0.1040
     21  O         26.4650  -23.4110  -16.7330 O.2     1  UNL1       -0.3460
     22  C         24.2270  -21.8690  -14.2210 C.2     1  UNL1        0.0690
     23  O         24.4630  -21.3230  -16.5050 O.2     1  UNL1       -0.3460
     24  C         24.8540  -21.9000  -17.7500 C.3     1  UNL1        0.2020
     25  C         26.2990  -22.3640  -17.6970 C.3     1  UNL1        0.2020
     26  C         17.2530  -22.9810   -7.4560 C.2     1  UNL1       -0.0060
     27  C         15.9080  -22.6470   -7.2280 C.2     1  UNL1        0.0150
     28  C         15.2790  -23.0040   -6.0320 C.2     1  UNL1        0.0240
     29  C         15.9950  -23.6910   -5.0550 C.2     1  UNL1        0.0340
     30 CL         15.2350  -24.1130   -3.5780 Cl      1  UNL1       -0.0840
     31  C         17.3310  -24.0310   -5.2700 C.2     1  UNL1        0.0240
     32  C         17.9620  -23.6730   -6.4650 C.2     1  UNL1        0.0150
@<TRIPOS>BOND
     1    24    25    1
     2    24    23    1
     3    25    21    1
     4    21    19    1
     5    23    20    1
     6    19    20    2
     7    19    18    1
     8    20    22    1
     9    18    17    2
    10    22    16    2
    11    17    16    1
    12    16    14    1
    13     3     2   ar
    14     3     4   ar
    15    14    15    1
    16    14    12   am
    17     2     1   ar
    18     4     5    1
    19     4     9   ar
    20     5     6    2
    21    13    12    2
    22    12    11    1
    23     1     9   ar
    24     1    10    1
    25     9     8    1
    26     6     7    1
    27    10    11    1
    28     8     7    2
    29     7    26    1
    30    26    27    2
    31    26    32    1
    32    27    28    1
    33    32    31    2
    34    28    29    2
    35    31    29    1
    36    29    30    1
