@<TRIPOS>MOLECULE
65449_out_ligand_01.pdbqt
 31 34 0 0 0
SMALL
GASTEIGER

@<TRIPOS>ATOM
      1  N         20.1490  -22.6900   -9.1960 N.am    1  UNL1       -0.3230
      2  C         20.2790  -22.4370   -7.8430 C.2     1  UNL1        0.2560
      3  O         21.2510  -21.9530   -7.2750 O.2     1  UNL1       -0.2670
      4  H         19.2360  -22.9670   -9.5310 H       1  UNL1        0.1690
      5  C         21.1300  -22.5200  -10.1960 C.2     1  UNL1        0.0350
      6  C         22.3610  -23.1750  -10.2030 C.2     1  UNL1        0.0300
      7  C         23.2820  -22.9560  -11.2380 C.2     1  UNL1        0.0160
      8  C         22.9880  -22.0800  -12.2890 C.2     1  UNL1       -0.0060
      9  C         21.7490  -21.4280  -12.2790 C.2     1  UNL1        0.0160
     10  C         20.8290  -21.6460  -11.2460 C.2     1  UNL1        0.0300
     11  C         23.9200  -21.8280  -13.3810 C.2     1  UNL1        0.0860
     12  N         25.0870  -21.0920  -13.2120 N.2     1  UNL1       -0.2220
     13  C         25.6240  -21.0990  -14.3990 C.2     1  UNL1        0.1770
     14  S         27.0680  -20.4340  -15.0920 S.3     1  UNL1       -0.0610
     15  N         24.8990  -21.7810  -15.3270 N.pl3   1  UNL1       -0.3020
     16  C         26.6000  -21.1370  -16.6500 C.2     1  UNL1        0.0780
     17  C         25.4350  -21.8140  -16.6030 C.2     1  UNL1        0.0210
     18  C         24.7610  -22.5190  -17.7240 C.3     1  UNL1        0.0690
     19  C         23.7900  -22.2640  -14.6940 C.2     1  UNL1        0.1310
     20  C         19.0760  -22.7580   -7.0210 C.2     1  UNL1        0.0320
     21  C         18.7000  -21.8590   -6.0110 C.2     1  UNL1        0.0180
     22  C         17.5860  -22.1210   -5.2090 C.2     1  UNL1        0.0260
     23  C         16.8470  -23.2870   -5.4220 C.2     1  UNL1        0.0740
     24  C         17.2270  -24.2060   -6.4070 C.2     1  UNL1        0.0260
     25  C         18.3440  -23.9420   -7.2050 C.2     1  UNL1        0.0180
     26  S         15.4420  -23.6390   -4.3950 S.O2    1  UNL1        0.2390
     27  O         14.3430  -24.0310   -5.2440 O.2     1  UNL1       -0.2060
     28  O         15.8850  -24.4330   -3.2730 O.2     1  UNL1       -0.2060
     29  N         15.0950  -22.1150   -3.7680 N.3     1  UNL1       -0.2250
     30  H         14.1930  -22.0620   -3.2990 H       1  UNL1        0.1360
     31  H         15.1790  -21.4250   -4.5160 H       1  UNL1        0.1360
@<TRIPOS>BOND
     1    18    17    1
     2    16    17    2
     3    16    14    1
     4    17    15    1
     5    15    19    1
     6    15    13    1
     7    14    13    1
     8    19    11    2
     9    13    12    2
    10    11    12    1
    11    11     8    1
    12     8     9    2
    13     8     7    1
    14     9    10    1
    15    10     5    2
    16     7     6    2
    17     6     5    1
    18     5     1    1
    19     4     1    1
    20     1     2   am
    21     2     3    2
    22     2    20    1
    23    25    20    2
    24    25    24    1
    25    20    21    1
    26    24    23    2
    27    21    22    2
    28    23    22    1
    29    23    26    1
    30    27    26    2
    31    31    29    1
    32    26    29    1
    33    26    28    2
    34    29    30    1
