@<TRIPOS>MOLECULE
65502_out_ligand_01.pdbqt
 28 31 0 0 0
SMALL
GASTEIGER

@<TRIPOS>ATOM
      1  O         21.5600  -24.5070   -8.7740 O.2     1  UNL1       -0.2920
      2  C         21.7090  -23.6390   -9.6320 C.2     1  UNL1        0.1620
      3  C         23.0810  -23.2650  -10.1440 C.3     1  UNL1        0.0940
      4  C         23.0120  -22.8800  -11.6210 C.3     1  UNL1        0.0380
      5  C         22.0130  -21.7310  -11.8340 C.3     1  UNL1        0.0680
      6  C         20.7000  -21.9860  -11.1440 C.2     1  UNL1        0.0270
      7  N         19.6120  -21.2690  -11.5990 N.am    1  UNL1       -0.3250
      8  C         18.3270  -21.3900  -11.1100 C.2     1  UNL1        0.2610
      9  O         17.4050  -20.7580  -11.6090 O.2     1  UNL1       -0.2670
     10  C         18.1520  -22.3570   -9.9920 C.2     1  UNL1        0.1000
     11  C         19.2200  -23.0440   -9.5460 C.2     1  UNL1        0.0400
     12  C         20.5310  -22.8730  -10.1470 C.2     1  UNL1        0.0340
     13  H         19.7120  -20.6050  -12.3590 H       1  UNL1        0.1690
     14  C         16.8550  -22.5160   -9.2960 C.2     1  UNL1        0.2570
     15  O         15.7970  -22.5520   -9.9110 O.2     1  UNL1       -0.2670
     16  N         16.9580  -22.5780   -7.9230 N.am    1  UNL1       -0.3520
     17  H         17.8640  -22.4590   -7.4890 H       1  UNL1        0.1630
     18  C         15.7780  -22.6020   -7.0660 C.3     1  UNL1        0.0840
     19  C         15.9880  -21.7240   -5.8180 C.3     1  UNL1        0.0250
     20  C         16.5040  -22.5340   -4.6350 C.3     1  UNL1        0.0020
     21  C         15.5230  -23.6360   -4.2310 C.3     1  UNL1        0.0000
     22  C         14.6720  -24.1520   -5.3930 C.3     1  UNL1        0.0020
     23  C         15.4150  -24.0550   -6.7180 C.3     1  UNL1        0.0250
     24  C         24.3750  -22.5200  -12.1650 C.2     1  UNL1       -0.0130
     25  C         24.9970  -22.9620  -13.3180 C.2     1  UNL1        0.0150
     26  C         26.2920  -22.3920  -13.4900 C.2     1  UNL1        0.0080
     27  C         26.6190  -21.5350  -12.4650 C.2     1  UNL1        0.0500
     28  S         25.3720  -21.4210  -11.3030 S.3     1  UNL1       -0.1060
@<TRIPOS>BOND
     1    26    25    1
     2    26    27    2
     3    25    24    2
     4    27    28    1
     5    13     7    1
     6    24     4    1
     7    24    28    1
     8     5     4    1
     9     5     6    1
    10     4     3    1
    11     9     8    2
    12     7     6    1
    13     7     8   am
    14     6    12    2
    15     8    10    1
    16    12     2    1
    17    12    11    1
    18     3     2    1
    19    10    11    2
    20    10    14    1
    21    15    14    2
    22     2     1    2
    23    14    16   am
    24    16    17    1
    25    16    18    1
    26    18    23    1
    27    18    19    1
    28    23    22    1
    29    19    20    1
    30    22    21    1
    31    20    21    1
