@<TRIPOS>MOLECULE
65516_out_ligand_01.pdbqt
 29 32 0 0 0
SMALL
GASTEIGER

@<TRIPOS>ATOM
      1  C         19.7290  -21.8920  -10.5340 C.2     1  UNL1        0.1010
      2  C         20.9690  -22.4230  -10.5130 C.2     1  UNL1        0.0400
      3  C         21.9330  -22.1760  -11.5700 C.2     1  UNL1        0.0340
      4  C         21.5970  -21.3950  -12.6120 C.2     1  UNL1        0.0270
      5  N         20.3350  -20.8410  -12.6550 N.am    1  UNL1       -0.3250
      6  C         19.3670  -21.0270  -11.6950 C.2     1  UNL1        0.2610
      7  O         18.2610  -20.5000  -11.7980 O.2     1  UNL1       -0.2670
      8  C         22.5220  -21.0570  -13.7500 C.3     1  UNL1        0.0690
      9  C         23.9950  -21.2870  -13.3830 C.3     1  UNL1        0.0560
     10  C         24.1800  -22.6610  -12.7480 C.3     1  UNL1        0.0950
     11  C         23.2890  -22.8120  -11.5360 C.2     1  UNL1        0.1620
     12  O         23.6380  -23.4960  -10.5750 O.2     1  UNL1       -0.2920
     13  H         20.0650  -20.2440  -13.4310 H       1  UNL1        0.1690
     14  C         18.7980  -22.2030   -9.4000 C.2     1  UNL1        0.2610
     15  N         19.4130  -22.3200   -8.1710 N.am    1  UNL1       -0.3230
     16  H         20.4250  -22.1840   -8.1540 H       1  UNL1        0.1690
     17  O         17.5950  -22.3310   -9.6160 O.2     1  UNL1       -0.2670
     18  C         18.8220  -22.6030   -6.9230 C.2     1  UNL1        0.0350
     19  C         18.1710  -23.8370   -6.7970 C.2     1  UNL1        0.0290
     20  C         17.5630  -24.2020   -5.5940 C.2     1  UNL1        0.0030
     21  C         17.5970  -23.3340   -4.5050 C.2     1  UNL1        0.0070
     22  C         18.2280  -22.0920   -4.6160 C.2     1  UNL1       -0.0600
     23  C         18.2970  -21.1660   -3.4370 C.3     1  UNL1        0.0480
     24  C         18.8500  -21.7400   -5.8260 C.2     1  UNL1        0.0360
     25  C         24.8660  -21.0960  -14.5810 C.2     1  UNL1        0.0570
     26  C         26.2290  -21.0360  -14.7880 C.2     1  UNL1        0.0350
     27  C         26.4140  -20.8460  -16.1800 C.2     1  UNL1        0.0270
     28  C         25.1550  -20.8070  -16.7320 C.2     1  UNL1        0.1420
     29  O         24.2100  -20.9630  -15.7690 O.2     1  UNL1       -0.3270
@<TRIPOS>BOND
     1    28    27    2
     2    28    29    1
     3    27    26    1
     4    29    25    1
     5    26    25    2
     6    25     9    1
     7     8     9    1
     8     8     4    1
     9    13     5    1
    10     9    10    1
    11    10    11    1
    12     5     4    1
    13     5     6   am
    14     4     3    2
    15     7     6    2
    16     6     1    1
    17     3    11    1
    18     3     2    1
    19    11    12    2
    20     1     2    2
    21     1    14    1
    22    17    14    2
    23    14    15   am
    24    15    16    1
    25    15    18    1
    26    18    19    2
    27    18    24    1
    28    19    20    1
    29    24    22    2
    30    20    21    2
    31    22    21    1
    32    22    23    1
