@<TRIPOS>MOLECULE
65528_out_ligand_01.pdbqt
 38 42 0 0 0
SMALL
GASTEIGER

@<TRIPOS>ATOM
      1  C         18.7100  -21.1260  -11.4290 C.ar    1  UNL1        0.1960
      2  N         17.5420  -20.6420  -11.7830 N.ar    1  UNL1       -0.1220
      3  N         16.5940  -21.2200  -10.9940 N.ar    1  UNL1       -0.1320
      4  C         17.1920  -22.0580  -10.1660 C.ar    1  UNL1        0.1480
      5  N         18.5680  -22.0330  -10.3870 N.ar    1  UNL1       -0.2740
      6  S         20.2130  -20.5180  -12.0540 S.3     1  UNL1       -0.0800
      7  C         21.2520  -22.0050  -11.9860 C.3     1  UNL1        0.1870
      8  C         22.5630  -21.7850  -12.7200 C.2     1  UNL1        0.2470
      9  O         23.6300  -22.2050  -12.2660 O.2     1  UNL1       -0.2710
     10  N         22.4200  -21.0590  -13.9030 N.am    1  UNL1       -0.2470
     11  H         21.5010  -21.1060  -14.3560 H       1  UNL1        0.1920
     12  N         23.4470  -20.8310  -14.7860 N.2     1  UNL1       -0.1840
     13  C         24.0040  -21.8700  -15.3250 C.2     1  UNL1        0.1510
     14  C         25.0930  -21.7410  -16.3060 C.2     1  UNL1        0.0010
     15  C         25.3170  -20.5150  -16.9330 C.2     1  UNL1        0.0160
     16  C         26.3360  -20.4140  -17.8760 C.2     1  UNL1        0.0200
     17  C         27.0950  -21.5440  -18.1510 C.2     1  UNL1        0.1160
     18  N         26.9040  -22.7430  -17.5560 N.2     1  UNL1       -0.2720
     19  C         25.9060  -22.8170  -16.6400 C.2     1  UNL1        0.1290
     20  C         19.5820  -22.7610   -9.7060 C.2     1  UNL1        0.0430
     21  C         20.4720  -22.1000   -8.8480 C.2     1  UNL1        0.0300
     22  C         21.4700  -22.8190   -8.1830 C.2     1  UNL1        0.0020
     23  C         21.5890  -24.1940   -8.3730 C.2     1  UNL1        0.0000
     24  C         20.7110  -24.8570   -9.2280 C.2     1  UNL1        0.0020
     25  C         19.7070  -24.1460   -9.8920 C.2     1  UNL1        0.0300
     26  C         16.4600  -22.9640   -9.2280 C.3     1  UNL1        0.1730
     27  N         17.2220  -23.3490   -8.0450 N.pl3   1  UNL1       -0.2850
     28  H         17.6730  -24.2590   -8.1600 H       1  UNL1        0.1280
     29  C         16.6390  -23.2810   -6.7660 C.2     1  UNL1        0.0190
     30  C         15.4780  -23.9900   -6.4370 C.2     1  UNL1        0.0240
     31  C         14.9500  -23.9460   -5.1490 C.2     1  UNL1        0.0030
     32  C         15.5780  -23.1960   -4.1620 C.2     1  UNL1        0.0120
     33  C         16.7420  -22.4760   -4.4480 C.2     1  UNL1       -0.0240
     34  C         17.3690  -21.7140   -3.4480 C.2     1  UNL1        0.0120
     35  C         17.2860  -22.5120   -5.7550 C.2     1  UNL1       -0.0050
     36  C         18.5200  -20.9780   -3.7210 C.2     1  UNL1        0.0010
     37  C         19.0590  -20.9920   -4.9980 C.2     1  UNL1        0.0010
     38  C         18.4490  -21.7480   -6.0000 C.2     1  UNL1        0.0140
@<TRIPOS>BOND
     1    17    16    2
     2    17    18    1
     3    16    15    1
     4    18    19    2
     5    15    14    2
     6    19    14    1
     7    14    13    1
     8    13    12    2
     9    12    10    1
    10    11    10    1
    11    10     8   am
    12     8     9    2
    13     8     7    1
    14     6     7    1
    15     6     1    1
    16     2     1   ar
    17     2     3   ar
    18     1     5   ar
    19     3     4   ar
    20     5     4   ar
    21     5    20    1
    22     4    26    1
    23    25    20    2
    24    25    24    1
    25    20    21    1
    26    24    23    2
    27    26    27    1
    28    21    22    2
    29    23    22    1
    30    28    27    1
    31    27    29    1
    32    29    30    2
    33    29    35    1
    34    30    31    1
    35    38    35    1
    36    38    37    2
    37    35    33    2
    38    31    32    2
    39    37    36    1
    40    33    32    1
    41    33    34    1
    42    36    34    2
