@<TRIPOS>MOLECULE
65548_out_ligand_01.pdbqt
 29 31 0 0 0
SMALL
GASTEIGER

@<TRIPOS>ATOM
      1  N         21.7020  -22.3690   -9.5750 N.am    1  UNL1       -0.3230
      2  C         21.1330  -23.4590   -8.9410 C.2     1  UNL1        0.2560
      3  O         21.4210  -24.6380   -9.1060 O.2     1  UNL1       -0.2670
      4  H         21.4160  -21.4520   -9.2550 H       1  UNL1        0.1690
      5  C         20.0880  -23.1290   -7.9300 C.2     1  UNL1        0.0340
      6  C         20.2540  -21.9650   -7.1630 C.2     1  UNL1        0.0190
      7  C         19.3190  -21.5870   -6.1910 C.2     1  UNL1        0.0330
      8  C         18.2230  -22.4330   -6.0240 C.ar    1  UNL1        0.0620
      9  N         17.1390  -22.3840   -5.1860 N.ar    1  UNL1       -0.3350
     10  C         18.0380  -23.5990   -6.7560 C.ar    1  UNL1        0.0860
     11  C         16.3510  -23.4860   -5.4250 C.ar    1  UNL1        0.2130
     12  H         16.9490  -21.6650   -4.5000 H       1  UNL1        0.1670
     13  N         16.8820  -24.2350   -6.3790 N.ar    1  UNL1       -0.2250
     14  C         18.9830  -23.9710   -7.7220 C.2     1  UNL1        0.0510
     15  C         15.0900  -23.7000   -4.6530 C.3     1  UNL1        0.4510
     16  F         15.2680  -24.5120   -3.5820 F       1  UNL1       -0.1630
     17  F         14.6110  -22.5190   -4.1680 F       1  UNL1       -0.1630
     18  F         14.1010  -24.2340   -5.4110 F       1  UNL1       -0.1630
     19  C         22.6940  -22.3800  -10.5790 C.2     1  UNL1        0.0350
     20  C         23.9520  -22.8860  -10.2190 C.2     1  UNL1        0.0290
     21  C         24.9970  -22.9340  -11.1440 C.2     1  UNL1        0.0030
     22  C         24.8000  -22.4680  -12.4410 C.2     1  UNL1        0.0170
     23  C         23.5520  -21.9510  -12.8100 C.2     1  UNL1        0.0340
     24  C         22.5000  -21.9170  -11.8820 C.2     1  UNL1        0.0460
     25  C         23.3040  -21.4520  -14.1870 C.2     1  UNL1        0.2490
     26  N         22.5520  -20.3150  -14.3100 N.am    1  UNL1       -0.3660
     27  H         21.9500  -19.9990  -13.5620 H       1  UNL1        0.1590
     28  H         22.2750  -20.0810  -15.2560 H       1  UNL1        0.1590
     29  O         23.7190  -22.0360  -15.1780 O.2     1  UNL1       -0.2680
@<TRIPOS>BOND
     1    28    26    1
     2    29    25    2
     3    26    25   am
     4    26    27    1
     5    25    23    1
     6    23    22    2
     7    23    24    1
     8    22    21    1
     9    24    19    2
    10    21    20    2
    11    19    20    1
    12    19     1    1
    13     1     4    1
    14     1     2   am
    15     3     2    2
    16     2     5    1
    17     5    14    2
    18     5     6    1
    19    14    10    1
    20     6     7    2
    21    10    13   ar
    22    10     8   ar
    23    13    11   ar
    24     7     8    1
    25     8     9   ar
    26    11     9   ar
    27    11    15    1
    28    18    15    1
    29     9    12    1
    30    15    17    1
    31    15    16    1
