@<TRIPOS>MOLECULE
6558_out_ligand_01.pdbqt
 38 42 0 0 0
SMALL
GASTEIGER

@<TRIPOS>ATOM
      1  C         18.6340  -22.6190   -7.9950 C.2     1  UNL1        0.0710
      2  C         18.0350  -22.0500   -9.2450 C.2     1  UNL1        0.0690
      3  C         18.8910  -21.7740  -10.2480 C.2     1  UNL1        0.1460
      4  N         20.2470  -22.0270  -10.0850 N.pl3   1  UNL1       -0.2100
      5  N         21.2590  -21.8130  -10.9670 N.2     1  UNL1       -0.1600
      6  C         22.3750  -22.2260  -10.3340 C.2     1  UNL1        0.1490
      7  C         22.0820  -22.7110   -9.0420 C.2     1  UNL1        0.0910
      8  C         20.7250  -22.5780   -8.8930 C.2     1  UNL1        0.1540
      9  N         19.9030  -22.8790   -7.8470 N.2     1  UNL1       -0.2290
     10  C         23.7020  -22.1490  -10.9730 C.2     1  UNL1        0.2760
     11  O         24.5230  -21.2960  -10.6510 O.2     1  UNL1       -0.2660
     12  N         23.8650  -23.1260  -11.9340 N.am    1  UNL1       -0.3190
     13  H         23.0710  -23.7490  -12.0640 H       1  UNL1        0.1690
     14  C         24.9840  -23.3220  -12.7140 C.2     1  UNL1        0.0710
     15  C         26.2370  -23.8200  -12.2950 C.2     1  UNL1        0.1690
     16  N         27.1210  -23.8980  -13.2930 N.2     1  UNL1       -0.1830
     17  N         26.4380  -23.4200  -14.3560 N.pl3   1  UNL1       -0.2750
     18  C         25.1450  -23.0880  -14.0570 C.2     1  UNL1        0.1430
     19  C         27.0690  -23.3480  -15.6670 C.3     1  UNL1        0.1920
     20  C         26.4760  -22.2510  -16.5090 C.2     1  UNL1        0.0000
     21  C         26.9970  -20.9470  -16.4840 C.2     1  UNL1        0.0120
     22  C         26.4400  -19.9450  -17.2850 C.2     1  UNL1        0.0010
     23  C         25.3570  -20.2340  -18.1180 C.2     1  UNL1        0.0030
     24  C         24.8320  -21.5240  -18.1500 C.2     1  UNL1        0.0430
     25  C         25.3910  -22.5180  -17.3500 C.2     1  UNL1        0.1240
     26  F         24.8550  -23.7470  -17.3840 F       1  UNL1       -0.2050
     27  C         18.4760  -21.2140  -11.5540 C.3     1  UNL1        0.4340
     28  F         18.3410  -22.1650  -12.5120 F       1  UNL1       -0.1650
     29  F         19.3400  -20.2800  -12.0220 F       1  UNL1       -0.1650
     30  F         17.2650  -20.5940  -11.4700 F       1  UNL1       -0.1650
     31  C         17.6950  -22.9210   -6.8760 C.2     1  UNL1       -0.0070
     32  C         18.1120  -23.7980   -5.8730 C.2     1  UNL1        0.0140
     33  C         17.2620  -24.1030   -4.8090 C.2     1  UNL1        0.0080
     34  C         15.9850  -23.5280   -4.7240 C.2     1  UNL1       -0.0560
     35  C         15.0990  -23.8790   -3.5580 C.3     1  UNL1        0.0490
     36  C         15.5610  -22.6330   -5.7270 C.2     1  UNL1       -0.0550
     37  C         16.4280  -22.3310   -6.7930 C.2     1  UNL1        0.0210
     38  C         14.2090  -21.9750   -5.6680 C.3     1  UNL1        0.0490
@<TRIPOS>BOND
     1    24    23    2
     2    24    25    1
     3    23    22    1
     4    26    25    1
     5    25    20    2
     6    22    21    2
     7    20    21    1
     8    20    19    1
     9    19    17    1
    10    17    18    1
    11    17    16    1
    12    18    14    2
    13    16    15    2
    14    14    15    1
    15    14    12    1
    16    28    27    1
    17    13    12    1
    18    29    27    1
    19    12    10   am
    20    27    30    1
    21    27     3    1
    22    10    11    2
    23    10     6    1
    24     5     6    2
    25     5     4    1
    26     6     7    1
    27     3     4    1
    28     3     2    2
    29     4     8    1
    30     2     1    1
    31     7     8    2
    32     8     9    1
    33     1     9    2
    34     1    31    1
    35    31    37    2
    36    31    32    1
    37    37    36    1
    38    32    33    2
    39    36    38    1
    40    36    34    2
    41    33    34    1
    42    34    35    1
