@<TRIPOS>MOLECULE
655_out_ligand_01.pdbqt
 30 33 0 0 0
SMALL
GASTEIGER

@<TRIPOS>ATOM
      1  C         20.0960  -21.6120  -11.1750 C.2     1  UNL1        0.0860
      2  C         19.1260  -20.7370  -11.6120 C.2     1  UNL1        0.0410
      3  C         17.8880  -21.2510  -11.1560 C.2     1  UNL1        0.0400
      4  C         18.1410  -22.4350  -10.4760 C.2     1  UNL1        0.0770
      5  O         19.5020  -22.6250  -10.4820 O.2     1  UNL1       -0.3100
      6  C         17.2180  -23.2830   -9.8130 C.2     1  UNL1        0.0550
      7  C         17.0210  -23.3230   -8.4870 C.2     1  UNL1        0.0470
      8  C         15.9140  -24.2060   -7.9670 C.2     1  UNL1        0.2570
      9  C         17.6320  -22.6720   -7.3220 C.2     1  UNL1        0.0060
     10  O         15.1860  -24.9400   -8.6080 O.2     1  UNL1       -0.2670
     11  N         15.8970  -23.9970   -6.6000 N.am    1  UNL1       -0.3220
     12  C         16.8950  -23.1080   -6.2110 C.2     1  UNL1        0.0480
     13  H         15.2480  -24.4660   -5.9870 H       1  UNL1        0.1690
     14  C         17.1720  -22.7100   -4.9180 C.2     1  UNL1        0.0540
     15  C         18.2500  -21.8440   -4.7410 C.2     1  UNL1        0.0360
     16 CL         18.6550  -21.3120   -3.1550 Cl      1  UNL1       -0.0840
     17  C         19.0210  -21.4130   -5.8320 C.2     1  UNL1        0.0250
     18  C         18.7180  -21.8350   -7.1350 C.2     1  UNL1        0.0160
     19  C         21.5510  -21.6790  -11.2960 C.2     1  UNL1       -0.0020
     20  C         22.3750  -21.6550  -10.1570 C.2     1  UNL1        0.0160
     21  C         23.7670  -21.7200  -10.2710 C.2     1  UNL1        0.0260
     22  C         24.3470  -21.8040  -11.5360 C.2     1  UNL1        0.0740
     23  C         23.5500  -21.8420  -12.6820 C.2     1  UNL1        0.0260
     24  C         22.1600  -21.7760  -12.5570 C.2     1  UNL1        0.0160
     25  S         26.1100  -21.8910  -11.7020 S.O2    1  UNL1        0.2390
     26  O         26.6470  -20.5600  -11.5420 O.2     1  UNL1       -0.2060
     27  O         26.4260  -22.7290  -12.8360 O.2     1  UNL1       -0.2060
     28  N         26.5300  -22.7910  -10.3430 N.3     1  UNL1       -0.2250
     29  H         25.8810  -23.5750  -10.2520 H       1  UNL1        0.1360
     30  H         26.5760  -22.2380   -9.4880 H       1  UNL1        0.1360
@<TRIPOS>BOND
     1    27    25    2
     2    23    24    1
     3    23    22    2
     4    24    19    2
     5    25    26    2
     6    25    22    1
     7    25    28    1
     8     2     1    2
     9     2     3    1
    10    22    21    1
    11    19     1    1
    12    19    20    1
    13     1     5    1
    14     3     4    2
    15     5     4    1
    16     4     6    1
    17    28    29    1
    18    28    30    1
    19    21    20    2
    20     6     7    2
    21    10     8    2
    22     7     8    1
    23     7     9    1
    24     8    11   am
    25     9    18    2
    26     9    12    1
    27    18    17    1
    28    11    12    1
    29    11    13    1
    30    12    14    2
    31    17    15    2
    32    14    15    1
    33    15    16    1
