@<TRIPOS>MOLECULE
65659_out_ligand_01.pdbqt
 37 41 0 0 0
SMALL
GASTEIGER

@<TRIPOS>ATOM
      1  C         21.7810  -22.1790   -9.6260 C.2     1  UNL1        0.1490
      2  C         21.4790  -22.5560   -8.3010 C.2     1  UNL1        0.0910
      3  C         20.1100  -22.5240   -8.2070 C.2     1  UNL1        0.1540
      4  N         19.2750  -22.7960   -7.1640 N.2     1  UNL1       -0.2290
      5  C         17.9950  -22.6900   -7.3830 C.2     1  UNL1        0.0710
      6  C         17.4030  -22.2590   -8.6910 C.2     1  UNL1        0.0690
      7  C         18.2720  -21.9990   -9.6880 C.2     1  UNL1        0.1460
      8  N         19.6380  -22.1330   -9.4620 N.pl3   1  UNL1       -0.2100
      9  N         20.6610  -21.9220  -10.3310 N.2     1  UNL1       -0.1600
     10  C         23.1200  -22.0620  -10.2290 C.2     1  UNL1        0.2760
     11  O         23.8650  -21.1200   -9.9780 O.2     1  UNL1       -0.2660
     12  N         23.4020  -23.1150  -11.0760 N.am    1  UNL1       -0.3190
     13  H         22.6730  -23.8150  -11.1740 H       1  UNL1        0.1690
     14  C         24.5760  -23.2730  -11.7770 C.2     1  UNL1        0.0710
     15  C         25.9150  -23.3850  -11.3460 C.2     1  UNL1        0.1690
     16  N         26.7690  -23.5240  -12.3650 N.2     1  UNL1       -0.1830
     17  N         25.9680  -23.5190  -13.4520 N.pl3   1  UNL1       -0.2750
     18  C         24.6450  -23.3550  -13.1470 C.2     1  UNL1        0.1430
     19  C         26.5510  -23.6410  -14.7810 C.3     1  UNL1        0.1900
     20  C         26.3170  -22.3930  -15.6000 C.2     1  UNL1       -0.0170
     21  C         27.1210  -21.2640  -15.3490 C.2     1  UNL1        0.0120
     22  C         26.9580  -20.0890  -16.0860 C.2     1  UNL1        0.0240
     23  C         25.9920  -20.0300  -17.0850 C.2     1  UNL1        0.0350
     24 CL         25.7890  -18.5850  -17.9940 Cl      1  UNL1       -0.0840
     25  C         25.1910  -21.1360  -17.3560 C.2     1  UNL1        0.0480
     26  C         25.3550  -22.3130  -16.6200 C.2     1  UNL1        0.0430
     27 CL         24.3310  -23.6460  -17.0190 Cl      1  UNL1       -0.0840
     28  C         17.8670  -21.5570  -11.0400 C.3     1  UNL1        0.4340
     29  F         18.1230  -22.4860  -11.9950 F       1  UNL1       -0.1650
     30  F         18.4700  -20.4030  -11.4180 F       1  UNL1       -0.1650
     31  F         16.5270  -21.3170  -11.1060 F       1  UNL1       -0.1650
     32  C         17.0410  -22.9840   -6.2760 C.2     1  UNL1       -0.0070
     33  C         15.6890  -22.6640   -6.4560 C.2     1  UNL1        0.0140
     34  C         14.7630  -22.9220   -5.4440 C.2     1  UNL1        0.0010
     35  C         15.1830  -23.4920   -4.2440 C.2     1  UNL1        0.0000
     36  C         16.5310  -23.7980   -4.0500 C.2     1  UNL1        0.0010
     37  C         17.4620  -23.5410   -5.0610 C.2     1  UNL1        0.0140
@<TRIPOS>BOND
     1    24    23    1
     2    25    23    2
     3    25    26    1
     4    23    22    1
     5    27    26    1
     6    26    20    2
     7    22    21    2
     8    20    21    1
     9    20    19    1
    10    19    17    1
    11    17    18    1
    12    17    16    1
    13    18    14    2
    14    16    15    2
    15    29    28    1
    16    14    15    1
    17    14    12    1
    18    30    28    1
    19    13    12    1
    20    31    28    1
    21    12    10   am
    22    28     7    1
    23     9     1    2
    24     9     8    1
    25    10    11    2
    26    10     1    1
    27     7     8    1
    28     7     6    2
    29     1     2    1
    30     8     3    1
    31     6     5    1
    32     2     3    2
    33     3     4    1
    34     5     4    2
    35     5    32    1
    36    33    32    2
    37    33    34    1
    38    32    37    1
    39    34    35    2
    40    37    36    2
    41    35    36    1
