@<TRIPOS>MOLECULE
65650_out_ligand_01.pdbqt
 37 41 0 0 0
SMALL
GASTEIGER

@<TRIPOS>ATOM
      1  C         21.7770  -22.2810   -9.5760 C.2     1  UNL1        0.1480
      2  C         21.4140  -22.3740   -8.1970 C.2     1  UNL1        0.0890
      3  C         20.0540  -22.5320   -8.1860 C.2     1  UNL1        0.1230
      4  N         19.6560  -22.4530   -9.4940 N.pl3   1  UNL1       -0.2400
      5  N         20.6800  -22.3870  -10.3550 N.2     1  UNL1       -0.1650
      6  C         18.2860  -22.6300   -9.9440 C.3     1  UNL1        0.2210
      7  C         17.3030  -22.5210   -8.7580 C.3     1  UNL1        0.0660
      8  C         17.8440  -23.2720   -7.5350 C.3     1  UNL1        0.1180
      9  N         19.1610  -22.7330   -7.1900 N.pl3   1  UNL1       -0.3660
     10  H         19.4920  -23.0120   -6.2680 H       1  UNL1        0.1610
     11  C         23.1290  -22.1320  -10.1630 C.2     1  UNL1        0.2760
     12  O         23.8510  -21.1740   -9.8980 O.2     1  UNL1       -0.2660
     13  N         23.4780  -23.1710  -11.0160 N.am    1  UNL1       -0.3190
     14  H         22.8470  -23.9530  -11.1090 H       1  UNL1        0.1690
     15  C         24.6710  -23.2690  -11.7100 C.2     1  UNL1        0.0710
     16  C         25.9540  -23.4950  -11.1640 C.2     1  UNL1        0.1690
     17  N         26.9120  -23.5510  -12.0940 N.2     1  UNL1       -0.1830
     18  N         26.2390  -23.3270  -13.2460 N.pl3   1  UNL1       -0.2750
     19  C         24.8930  -23.1780  -13.0620 C.2     1  UNL1        0.1430
     20  C         26.9450  -23.3170  -14.5190 C.3     1  UNL1        0.1890
     21  C         26.3070  -22.3630  -15.4980 C.2     1  UNL1       -0.0380
     22  C         25.4780  -22.8400  -16.5280 C.2     1  UNL1        0.0120
     23  C         24.8850  -21.9500  -17.4240 C.2     1  UNL1        0.0430
     24  C         25.1140  -20.5850  -17.2910 C.2     1  UNL1        0.1160
     25  F         24.5440  -19.7340  -18.1530 F       1  UNL1       -0.2060
     26  C         25.9250  -20.0920  -16.2760 C.2     1  UNL1        0.0430
     27  C         26.5200  -20.9790  -15.3780 C.2     1  UNL1        0.0120
     28  C         17.9060  -21.6210  -11.0070 C.3     1  UNL1        0.4090
     29  F         18.6580  -20.4980  -10.9440 F       1  UNL1       -0.1690
     30  F         16.6140  -21.2320  -10.8210 F       1  UNL1       -0.1690
     31  F         17.9720  -22.1070  -12.2620 F       1  UNL1       -0.1690
     32  C         16.9130  -23.1530   -6.3460 C.2     1  UNL1       -0.0350
     33  C         17.3250  -23.5180   -5.0530 C.2     1  UNL1        0.0090
     34  C         16.4590  -23.3910   -3.9650 C.2     1  UNL1        0.0010
     35  C         15.1710  -22.8960   -4.1530 C.2     1  UNL1        0.0000
     36  C         14.7470  -22.5280   -5.4280 C.2     1  UNL1        0.0010
     37  C         15.6110  -22.6540   -6.5180 C.2     1  UNL1        0.0090
@<TRIPOS>BOND
     1    25    24    1
     2    23    24    2
     3    23    22    1
     4    24    26    1
     5    22    21    2
     6    26    27    2
     7    21    27    1
     8    21    20    1
     9    20    18    1
    10    18    19    1
    11    18    17    1
    12    19    15    2
    13    31    28    1
    14    17    16    2
    15    15    16    1
    16    15    13    1
    17    14    13    1
    18    13    11   am
    19    28    29    1
    20    28    30    1
    21    28     6    1
    22     5     1    2
    23     5     4    1
    24    11    12    2
    25    11     1    1
    26     6     4    1
    27     6     7    1
    28     1     2    1
    29     4     3    1
    30     7     8    1
    31     2     3    2
    32     3     9    1
    33     8     9    1
    34     8    32    1
    35     9    10    1
    36    37    32    2
    37    37    36    1
    38    32    33    1
    39    36    35    2
    40    33    34    2
    41    35    34    1
