@<TRIPOS>MOLECULE
65662_out_ligand_01.pdbqt
 38 42 0 0 0
SMALL
GASTEIGER

@<TRIPOS>ATOM
      1  C         21.8540  -22.7000   -9.4300 C.2     1  UNL1        0.1480
      2  C         21.3780  -22.3620   -8.1320 C.2     1  UNL1        0.0890
      3  C         20.0140  -22.4500   -8.2140 C.2     1  UNL1        0.1230
      4  N         19.7390  -22.7880   -9.5100 N.pl3   1  UNL1       -0.2400
      5  N         20.8300  -22.9810  -10.2720 N.2     1  UNL1       -0.1650
      6  C         18.3970  -22.9650  -10.0330 C.3     1  UNL1        0.2210
      7  C         17.4190  -23.2600   -8.8810 C.3     1  UNL1        0.0660
      8  C         17.6260  -22.2870   -7.7040 C.3     1  UNL1        0.1180
      9  N         19.0300  -22.2920   -7.3030 N.pl3   1  UNL1       -0.3660
     10  H         19.2230  -21.8640   -6.3970 H       1  UNL1        0.1610
     11  C         23.2600  -22.7640   -9.8650 C.2     1  UNL1        0.2760
     12  O         24.0550  -23.5630   -9.3830 O.2     1  UNL1       -0.2660
     13  N         23.5380  -21.8320  -10.8450 N.am    1  UNL1       -0.3190
     14  H         22.7600  -21.2400  -11.1220 H       1  UNL1        0.1690
     15  C         24.7650  -21.6560  -11.4430 C.2     1  UNL1        0.0710
     16  C         26.0400  -21.3900  -10.9000 C.2     1  UNL1        0.1690
     17  N         26.9850  -21.3020  -11.8430 N.2     1  UNL1       -0.1830
     18  N         26.3080  -21.4770  -12.9940 N.pl3   1  UNL1       -0.2750
     19  C         24.9740  -21.7230  -12.8000 C.2     1  UNL1        0.1430
     20  C         27.0180  -21.4740  -14.2660 C.3     1  UNL1        0.1900
     21  C         26.7890  -20.1930  -15.0330 C.2     1  UNL1       -0.0170
     22  C         27.0140  -18.9610  -14.3900 C.2     1  UNL1        0.0120
     23  C         26.8370  -17.7540  -15.0710 C.2     1  UNL1        0.0240
     24  C         26.4330  -17.7640  -16.4020 C.2     1  UNL1        0.0350
     25 CL         26.2140  -16.2770  -17.2370 Cl      1  UNL1       -0.0840
     26  C         26.2030  -18.9690  -17.0590 C.2     1  UNL1        0.0480
     27  C         26.3800  -20.1780  -16.3800 C.2     1  UNL1        0.0430
     28 CL         26.0520  -21.6280  -17.2560 Cl      1  UNL1       -0.0840
     29  C         17.9930  -21.7450  -10.8310 C.3     1  UNL1        0.4090
     30  F         18.8470  -20.7120  -10.6690 F       1  UNL1       -0.1690
     31  F         16.7510  -21.3040  -10.5370 F       1  UNL1       -0.1690
     32  F         17.9960  -22.0410  -12.1570 F       1  UNL1       -0.1690
     33  C         16.7460  -22.6670   -6.5270 C.2     1  UNL1       -0.0350
     34  C         15.3640  -22.4130   -6.5310 C.2     1  UNL1        0.0090
     35  C         14.5720  -22.7520   -5.4330 C.2     1  UNL1        0.0010
     36  C         15.1510  -23.3450   -4.3140 C.2     1  UNL1        0.0000
     37  C         16.5210  -23.5980   -4.2910 C.2     1  UNL1        0.0010
     38  C         17.3150  -23.2600   -5.3900 C.2     1  UNL1        0.0090
@<TRIPOS>BOND
     1    28    27    1
     2    25    24    1
     3    26    24    2
     4    26    27    1
     5    24    23    1
     6    27    21    2
     7    23    22    2
     8    21    22    1
     9    21    20    1
    10    20    18    1
    11    18    19    1
    12    18    17    1
    13    19    15    2
    14    32    29    1
    15    17    16    2
    16    15    16    1
    17    15    13    1
    18    14    13    1
    19    13    11   am
    20    29    30    1
    21    29    31    1
    22    29     6    1
    23     5     4    1
    24     5     1    2
    25     6     4    1
    26     6     7    1
    27    11     1    1
    28    11    12    2
    29     4     3    1
    30     1     2    1
    31     7     8    1
    32     3     2    2
    33     3     9    1
    34     8     9    1
    35     8    33    1
    36     9    10    1
    37    34    33    2
    38    34    35    1
    39    33    38    1
    40    35    36    2
    41    38    37    2
    42    36    37    1
