@<TRIPOS>MOLECULE
65660_out_ligand_01.pdbqt
 29 32 0 0 0
SMALL
GASTEIGER

@<TRIPOS>ATOM
      1  C         21.0040  -22.8330  -10.3660 C.2     1  UNL1        0.0320
      2  C         20.3250  -21.9530  -11.2140 C.2     1  UNL1        0.0170
      3  C         20.9700  -21.4310  -12.3400 C.2     1  UNL1        0.0100
      4  C         22.2970  -21.7810  -12.6350 C.2     1  UNL1       -0.0340
      5  C         22.9790  -22.6400  -11.7620 C.2     1  UNL1        0.0100
      6  C         22.3370  -23.1630  -10.6360 C.2     1  UNL1        0.0170
      7  C         20.3610  -23.4170   -9.1550 C.2     1  UNL1        0.2520
      8  O         20.8980  -24.3420   -8.5580 O.2     1  UNL1       -0.2680
      9  N         19.1420  -22.8820   -8.7970 N.am    1  UNL1       -0.3480
     10  H         18.6390  -22.3340   -9.4820 H       1  UNL1        0.1630
     11  C         18.3480  -23.4660   -7.7250 C.3     1  UNL1        0.1180
     12  C         16.9170  -23.7250   -8.2370 C.3     1  UNL1        0.0300
     13  C         15.8670  -24.0020   -7.1540 C.3     1  UNL1        0.0070
     14  C         16.4150  -24.0340   -5.7320 C.3     1  UNL1        0.0390
     15  C         17.3590  -22.8850   -5.4950 C.2     1  UNL1       -0.0500
     16  C         17.3240  -22.1560   -4.3020 C.2     1  UNL1        0.0070
     17  C         18.3320  -22.6020   -6.4750 C.2     1  UNL1       -0.0290
     18  C         18.2520  -21.1410   -4.0750 C.2     1  UNL1        0.0010
     19  C         19.2320  -20.8690   -5.0270 C.2     1  UNL1        0.0010
     20  C         19.2810  -21.6020   -6.2150 C.2     1  UNL1        0.0100
     21  C         23.0100  -21.1890  -13.8310 C.3     1  UNL1        0.2140
     22  O         24.4080  -21.4570  -13.7300 O.2     1  UNL1       -0.3450
     23  C         25.2790  -20.4410  -14.0150 C.2     1  UNL1        0.0860
     24  C         25.3990  -19.8250  -15.2660 C.2     1  UNL1        0.0380
     25  C         26.3170  -18.7870  -15.4610 C.2     1  UNL1        0.0030
     26  C         27.1210  -18.3520  -14.4110 C.2     1  UNL1        0.0020
     27  C         27.0090  -18.9540  -13.1590 C.2     1  UNL1        0.0220
     28  C         26.0930  -19.9910  -12.9630 C.2     1  UNL1        0.0440
     29 BR         25.9980  -20.7710  -11.2310 Br      1  UNL1       -0.0480
@<TRIPOS>BOND
     1    25    24    1
     2    25    26    2
     3    24    23    2
     4    26    27    1
     5    23    22    1
     6    23    28    1
     7    21    22    1
     8    21     4    1
     9    27    28    2
    10    28    29    1
    11     4     3    2
    12     4     5    1
    13     3     2    1
    14     5     6    2
    15     2     1    2
    16     6     1    1
    17     1     7    1
    18    10     9    1
    19     7     9   am
    20     7     8    2
    21     9    11    1
    22    12    11    1
    23    12    13    1
    24    11    17    1
    25    13    14    1
    26    17    20    1
    27    17    15    2
    28    20    19    2
    29    14    15    1
    30    15    16    1
    31    19    18    1
    32    16    18    2
