@<TRIPOS>MOLECULE
65714_out_ligand_01.pdbqt
 28 31 0 0 0
SMALL
GASTEIGER

@<TRIPOS>ATOM
      1  O         19.8400  -24.3280   -8.0760 O.2     1  UNL1       -0.2720
      2  C         18.9380  -23.5100   -8.2640 C.2     1  UNL1        0.2350
      3  N         18.9490  -22.5380   -9.2580 N.am    1  UNL1       -0.3260
      4  H         18.1710  -21.8920   -9.2500 H       1  UNL1        0.1690
      5  C         19.9400  -22.3050  -10.2310 C.2     1  UNL1        0.0340
      6  C         19.6170  -21.4230  -11.2710 C.2     1  UNL1        0.0300
      7  C         20.5400  -21.1330  -12.2850 C.2     1  UNL1        0.0170
      8  C         21.8050  -21.7270  -12.2710 C.2     1  UNL1        0.0120
      9  C         22.1280  -22.6130  -11.2380 C.2     1  UNL1        0.0170
     10  C         21.2020  -22.8980  -10.2270 C.2     1  UNL1        0.0300
     11  C         22.8160  -21.4580  -13.3120 C.ar    1  UNL1        0.1700
     12  N         22.6420  -20.6900  -14.3360 N.ar    1  UNL1       -0.1040
     13  O         23.8760  -20.7400  -15.0570 O.2     1  UNL1       -0.1530
     14  C         24.6950  -21.5820  -14.3540 C.ar    1  UNL1        0.3900
     15  O         25.8370  -21.8900  -14.6590 O.2     1  UNL1       -0.2360
     16  N         24.0340  -22.0170  -13.2710 N.ar    1  UNL1       -0.2830
     17  H         24.4340  -22.6640  -12.6180 H       1  UNL1        0.1720
     18  C         17.6170  -23.4550   -7.3770 C.3     1  UNL1        0.0680
     19  C         16.9140  -24.8520   -7.1450 C.3     1  UNL1        0.0240
     20  C         15.5620  -24.1450   -7.3380 C.3     1  UNL1        0.0030
     21  C         16.3050  -23.0900   -8.1720 C.3     1  UNL1        0.0240
     22  C         17.9740  -22.6360   -6.0250 C.2     1  UNL1       -0.0370
     23  C         17.6580  -23.0980   -4.7270 C.2     1  UNL1        0.0090
     24  C         17.9740  -22.3650   -3.5750 C.2     1  UNL1        0.0040
     25  C         18.6180  -21.1380   -3.6870 C.2     1  UNL1        0.0420
     26  C         18.9400  -20.6580   -4.9460 C.2     1  UNL1        0.1170
     27  F         19.5570  -19.4750   -5.0630 F       1  UNL1       -0.2060
     28  C         18.6270  -21.3860   -6.0920 C.2     1  UNL1        0.0500
@<TRIPOS>BOND
     1    13    14   ar
     2    13    12   ar
     3    15    14    2
     4    14    16   ar
     5    12    11   ar
     6    11    16   ar
     7    11     8    1
     8    16    17    1
     9     7     8    2
    10     7     6    1
    11     8     9    1
    12     6     5    2
    13     9    10    2
    14     5    10    1
    15     5     3    1
    16     3     4    1
    17     3     2   am
    18     2     1    2
    19     2    18    1
    20    21    18    1
    21    21    20    1
    22    18    19    1
    23    18    22    1
    24    20    19    1
    25    28    22    2
    26    28    26    1
    27    22    23    1
    28    27    26    1
    29    26    25    2
    30    23    24    2
    31    25    24    1
