@<TRIPOS>MOLECULE
65717_out_ligand_01.pdbqt
 34 38 0 0 0
SMALL
GASTEIGER

@<TRIPOS>ATOM
      1  N         22.4840  -22.6050  -10.5430 N.3     1  UNL1        0.1070
      2  C         22.5060  -22.2980   -9.1030 C.3     1  UNL1        0.3120
      3  C         21.2400  -22.7110   -8.3710 C.2     1  UNL1       -0.0300
      4  C         20.6480  -23.9600   -8.6130 C.2     1  UNL1        0.0100
      5  C         19.4680  -24.3270   -7.9620 C.2     1  UNL1        0.0170
      6  C         18.8470  -23.4360   -7.0820 C.2     1  UNL1        0.0320
      7  C         19.4300  -22.1870   -6.8320 C.2     1  UNL1        0.0170
      8  C         20.6170  -21.8260   -7.4800 C.2     1  UNL1        0.0100
      9  C         17.5830  -23.8560   -6.4190 C.2     1  UNL1        0.2520
     10  O         17.3600  -25.0440   -6.2160 O.2     1  UNL1       -0.2680
     11  N         16.7030  -22.8370   -6.1020 N.am    1  UNL1       -0.3520
     12  H         16.8710  -21.9130   -6.4770 H       1  UNL1        0.1630
     13  C         15.4230  -23.1000   -5.5220 C.3     1  UNL1        0.0840
     14  C         14.3150  -22.0860   -5.6170 C.3     1  UNL1        0.0270
     15  C         14.9770  -22.3510   -4.2970 C.3     1  UNL1        0.0270
     16  C         23.8390  -22.9710  -11.0270 C.3     1  UNL1        0.3750
     17  C         24.7050  -21.7500  -11.4160 C.2     1  UNL1        0.2480
     18  O         25.1370  -20.9480  -10.5860 O.2     1  UNL1       -0.2710
     19  N         24.9720  -21.5910  -12.7810 N.am    1  UNL1       -0.3460
     20  C         25.8930  -20.5330  -13.1880 C.3     1  UNL1        0.1310
     21  C         24.6920  -22.6260  -13.7760 C.3     1  UNL1        0.1650
     22  C         25.4280  -19.8540  -14.4720 C.3     1  UNL1        0.0590
     23  C         25.1630  -20.8650  -15.5550 C.2     1  UNL1       -0.0490
     24  C         25.2300  -20.4870  -16.9030 C.2     1  UNL1        0.0080
     25  C         24.7970  -22.1790  -15.2140 C.2     1  UNL1       -0.0340
     26  C         24.9600  -21.4140  -17.9090 C.2     1  UNL1        0.0010
     27  C         24.6130  -22.7200  -17.5780 C.2     1  UNL1        0.0010
     28  C         24.5290  -23.1010  -16.2380 C.2     1  UNL1        0.0090
     29  C         21.9400  -21.4720  -11.3230 C.3     1  UNL1        0.3380
     30  C         20.4450  -21.4010  -11.3340 C.2     1  UNL1        0.0800
     31  C         19.5550  -20.3480  -11.4150 C.2     1  UNL1        0.0360
     32  C         18.2580  -20.9170  -11.3840 C.2     1  UNL1        0.0270
     33  C         18.4380  -22.2760  -11.2920 C.2     1  UNL1        0.1420
     34  O         19.7600  -22.5800  -11.2690 O.2     1  UNL1       -0.3250
@<TRIPOS>BOND
     1    26    27    2
     2    26    24    1
     3    27    28    1
     4    24    23    2
     5    28    25    2
     6    23    25    1
     7    23    22    1
     8    25    21    1
     9    22    20    1
    10    21    19    1
    11    20    19    1
    12    19    17   am
    13    17    16    1
    14    17    18    2
    15    31    32    1
    16    31    30    2
    17    32    33    2
    18    30    29    1
    19    30    34    1
    20    29     1    1
    21    33    34    1
    22    16     1    1
    23     1     2    1
    24     2     3    1
    25     4     3    2
    26     4     5    1
    27     3     8    1
    28     5     6    2
    29     8     7    2
    30     6     7    1
    31     6     9    1
    32    12    11    1
    33     9    10    2
    34     9    11   am
    35    11    13    1
    36    14    13    1
    37    14    15    1
    38    13    15    1
