@<TRIPOS>MOLECULE
65720_out_ligand_01.pdbqt
 33 37 0 0 0
SMALL
GASTEIGER

@<TRIPOS>ATOM
      1  C         22.0850  -21.7000  -11.7490 C.2     1  UNL1        0.2590
      2  O         21.1250  -20.9520  -11.8800 O.2     1  UNL1       -0.2670
      3  N         22.4180  -22.4390  -10.6380 N.am    1  UNL1       -0.3010
      4  H         23.1730  -23.1070  -10.6370 H       1  UNL1        0.1710
      5  C         21.6950  -22.3730   -9.4770 C.2     1  UNL1        0.1730
      6  N         20.5000  -22.8250   -9.2150 N.2     1  UNL1       -0.2230
      7  C         20.1540  -22.5310   -7.9010 C.2     1  UNL1        0.0760
      8  C         21.1320  -21.8470   -7.2010 C.2     1  UNL1        0.0850
      9  S         22.4970  -21.5690   -8.2060 S.3     1  UNL1       -0.0610
     10  C         18.8540  -22.9390   -7.3630 C.2     1  UNL1       -0.0060
     11  C         18.0190  -23.7560   -8.1420 C.2     1  UNL1        0.0140
     12  C         16.7740  -24.1780   -7.6720 C.2     1  UNL1        0.0080
     13  C         16.3310  -23.7740   -6.4130 C.2     1  UNL1       -0.0520
     14  C         17.1500  -22.9560   -5.6190 C.2     1  UNL1       -0.0510
     15  C         15.0160  -24.2350   -5.8450 C.3     1  UNL1        0.0390
     16  C         18.4050  -22.5490   -6.0920 C.2     1  UNL1        0.0210
     17  C         16.6590  -22.5860   -4.2440 C.3     1  UNL1        0.0390
     18  C         15.1830  -22.1890   -4.2730 C.3     1  UNL1        0.0050
     19  C         14.2880  -23.0900   -5.1380 C.3     1  UNL1        0.0050
     20  C         22.9850  -21.8620  -12.9210 C.2     1  UNL1        0.0510
     21  C         24.0210  -22.7910  -12.9830 C.2     1  UNL1        0.0390
     22  C         24.8090  -22.8510  -14.1390 C.ar    1  UNL1        0.0790
     23  C         25.8990  -23.8210  -14.2530 C.ar    1  UNL1        0.2630
     24  C         24.5650  -21.9880  -15.1980 C.ar    1  UNL1        0.1480
     25  N         26.6180  -23.7840  -15.4140 N.ar    1  UNL1       -0.2750
     26  O         26.1310  -24.6180  -13.3520 O.2     1  UNL1       -0.2670
     27  C         26.4000  -22.9570  -16.4800 C.ar    1  UNL1        0.3300
     28  H         27.3730  -24.4470  -15.5150 H       1  UNL1        0.1730
     29  N         25.3650  -22.0570  -16.3590 N.ar    1  UNL1       -0.2870
     30  O         27.1200  -23.0560  -17.4720 O.2     1  UNL1       -0.2460
     31  C         25.0670  -21.1300  -17.4400 C.3     1  UNL1        0.1630
     32  N         23.5690  -21.0720  -15.1440 N.2     1  UNL1       -0.2410
     33  C         22.8110  -21.0220  -14.0150 C.2     1  UNL1        0.1360
@<TRIPOS>BOND
     1    30    27    2
     2    31    29    1
     3    27    29   ar
     4    27    25   ar
     5    29    24   ar
     6    28    25    1
     7    25    23   ar
     8    24    32    2
     9    24    22   ar
    10    32    33    1
    11    23    22   ar
    12    23    26    2
    13    22    21    2
    14    33    20    2
    15    21    20    1
    16    20     1    1
    17     2     1    2
    18     1     3   am
    19     3     4    1
    20     3     5    1
    21     5     6    2
    22     5     9    1
    23     6     7    1
    24     9     8    1
    25    11    12    1
    26    11    10    2
    27     7    10    1
    28     7     8    2
    29    12    13    2
    30    10    16    1
    31    13    15    1
    32    13    14    1
    33    16    14    2
    34    15    19    1
    35    14    17    1
    36    19    18    1
    37    18    17    1
