@<TRIPOS>MOLECULE
65731_out_ligand_01.pdbqt
 32 35 0 0 0
SMALL
GASTEIGER

@<TRIPOS>ATOM
      1  C         16.1510  -22.6000   -9.8120 C.3     1  UNL1        0.1610
      2  C         17.5870  -22.4640  -10.2470 C.2     1  UNL1       -0.0400
      3  C         18.5500  -23.4030   -9.8670 C.2     1  UNL1        0.0110
      4  C         19.8880  -23.2350  -10.2430 C.2     1  UNL1        0.0300
      5  C         20.2910  -22.1190  -10.9880 C.2     1  UNL1        0.0350
      6  C         19.3280  -21.1790  -11.3610 C.2     1  UNL1        0.0300
      7  C         17.9890  -21.3500  -10.9930 C.2     1  UNL1        0.0110
      8  N         21.6620  -22.0220  -11.3080 N.am    1  UNL1       -0.3210
      9  C         22.7200  -21.7440  -10.4500 C.2     1  UNL1        0.2790
     10  O         22.5950  -21.5470   -9.2450 O.2     1  UNL1       -0.2650
     11  H         21.8980  -22.2130  -12.2720 H       1  UNL1        0.1690
     12  C         24.0240  -21.7300  -11.1060 C.2     1  UNL1        0.1420
     13  C         24.5390  -22.3370  -12.2420 C.2     1  UNL1        0.0450
     14  C         25.8990  -21.9460  -12.3420 C.2     1  UNL1        0.0270
     15  C         26.1370  -21.1210  -11.2730 C.2     1  UNL1        0.1430
     16  O         25.0160  -20.9770  -10.5260 O.2     1  UNL1       -0.3170
     17  N         16.0580  -22.4900   -8.3770 N.am    1  UNL1       -0.3530
     18  C         15.8780  -23.5880   -7.5730 C.2     1  UNL1        0.2550
     19  O         15.7390  -24.7230   -8.0150 O.2     1  UNL1       -0.2680
     20  H         16.1430  -21.5730   -7.9630 H       1  UNL1        0.1630
     21  C         15.8050  -23.3000   -6.1510 C.2     1  UNL1        0.0800
     22  C         14.7830  -23.7260   -5.3210 C.2     1  UNL1        0.1280
     23  N         15.0520  -23.2190   -4.0890 N.pl3   1  UNL1       -0.2880
     24  N         16.1790  -22.4980   -4.0420 N.2     1  UNL1       -0.1740
     25  H         14.5070  -23.3210   -3.2370 H       1  UNL1        0.1880
     26  C         16.6890  -22.5820   -5.2830 C.2     1  UNL1        0.1040
     27  C         18.0030  -22.0070   -5.5740 C.2     1  UNL1       -0.0050
     28  C         18.4370  -20.8490   -4.9160 C.2     1  UNL1        0.0140
     29  C         19.6790  -20.2830   -5.2230 C.2     1  UNL1        0.0010
     30  C         20.4980  -20.8720   -6.1860 C.2     1  UNL1        0.0000
     31  C         20.0750  -22.0210   -6.8490 C.2     1  UNL1        0.0010
     32  C         18.8310  -22.5870   -6.5470 C.2     1  UNL1        0.0140
@<TRIPOS>BOND
     1    14    13    1
     2    14    15    2
     3    11     8    1
     4    13    12    2
     5     6     7    1
     6     6     5    2
     7     8     5    1
     8     8     9   am
     9    15    16    1
    10    12    16    1
    11    12     9    1
    12     7     2    2
    13     5     4    1
    14     9    10    2
    15     2     3    1
    16     2     1    1
    17     4     3    2
    18     1    17    1
    19    17    20    1
    20    17    18   am
    21    19    18    2
    22    18    21    1
    23    31    32    1
    24    31    30    2
    25    32    27    2
    26    30    29    1
    27    21    22    2
    28    21    26    1
    29    27    26    1
    30    27    28    1
    31    22    23    1
    32    26    24    2
    33    29    28    2
    34    23    24    1
    35    23    25    1
