@<TRIPOS>MOLECULE
65732_out_ligand_01.pdbqt
 32 34 0 0 0
SMALL
GASTEIGER

@<TRIPOS>ATOM
      1  C         23.3910  -22.7390  -11.0670 C.2     1  UNL1        0.0400
      2  C         24.0030  -23.3000   -9.9430 C.2     1  UNL1        0.0180
      3  C         23.2550  -23.5160   -8.7940 C.2     1  UNL1        0.0030
      4  C         21.9050  -23.1620   -8.7720 C.2     1  UNL1        0.0300
      5  C         21.2680  -22.5880   -9.8900 C.2     1  UNL1        0.0370
      6  C         22.0270  -22.3720  -11.0610 C.2     1  UNL1       -0.0160
      7  C         21.4100  -21.6930  -12.2610 C.3     1  UNL1        0.0430
      8  C         19.8900  -21.6610  -12.1920 C.3     1  UNL1        0.0250
      9  C         19.4630  -21.2360  -10.8000 C.3     1  UNL1        0.1230
     10  N         19.9150  -22.2070   -9.7920 N.pl3   1  UNL1       -0.3760
     11  C         18.9830  -23.3120   -9.4870 C.3     1  UNL1        0.1640
     12  C         18.1960  -23.0190   -8.2210 C.2     1  UNL1       -0.0070
     13  C         18.8510  -23.0110   -6.9750 C.2     1  UNL1        0.0120
     14  C         18.1560  -22.7420   -5.7890 C.2     1  UNL1        0.0180
     15  C         16.7830  -22.4740   -5.8190 C.2     1  UNL1        0.0340
     16  C         16.1000  -22.5110   -7.0400 C.2     1  UNL1        0.0530
     17  C         16.8080  -22.7930   -8.2170 C.2     1  UNL1        0.1110
     18  C         16.0010  -22.1740   -4.5910 C.2     1  UNL1        0.2490
     19  N         16.6910  -21.8940   -3.4460 N.am    1  UNL1       -0.3660
     20  H         17.6710  -21.6510   -3.4400 H       1  UNL1        0.1590
     21  H         16.1330  -21.5760   -2.6630 H       1  UNL1        0.1590
     22  O         14.7760  -22.1400   -4.6130 O.2     1  UNL1       -0.2680
     23  N         16.0430  -22.8520   -9.4510 N.pl3   1  UNL1       -0.1150
     24  O         16.0680  -21.8480  -10.1760 O.2     1  UNL1       -0.5320
     25  O         15.4160  -23.8950   -9.6780 O.2     1  UNL1       -0.5320
     26  C         24.2430  -22.5460  -12.2590 C.2     1  UNL1        0.2520
     27  N         24.6430  -23.7180  -12.8620 N.am    1  UNL1       -0.3530
     28  H         24.4470  -24.5880  -12.3820 H       1  UNL1        0.1630
     29  O         24.5660  -21.4200  -12.6100 O.2     1  UNL1       -0.2680
     30  C         25.5980  -23.7280  -13.9600 C.3     1  UNL1        0.0760
     31  C         27.0270  -23.8270  -13.4300 C.3     1  UNL1        0.0320
     32  C         25.2890  -24.8840  -14.9060 C.3     1  UNL1        0.0320
@<TRIPOS>BOND
     1    32    30    1
     2    30    31    1
     3    30    27    1
     4    27    28    1
     5    27    26   am
     6    29    26    2
     7     7     8    1
     8     7     6    1
     9    26     1    1
    10     8     9    1
    11     1     6    2
    12     1     2    1
    13     6     5    1
    14     9    10    1
    15    24    23    2
    16     2     3    2
    17     5    10    1
    18     5     4    2
    19    10    11    1
    20    25    23    2
    21    11    12    1
    22    23    17    1
    23     3     4    1
    24    12    17    2
    25    12    13    1
    26    17    16    1
    27    16    15    2
    28    13    14    2
    29    15    14    1
    30    15    18    1
    31    22    18    2
    32    18    19   am
    33    19    20    1
    34    19    21    1
