@<TRIPOS>MOLECULE
65752_out_ligand_01.pdbqt
 32 34 0 0 0
SMALL
GASTEIGER

@<TRIPOS>ATOM
      1  C         17.0130  -23.0260   -8.8610 C.2     1  UNL1        0.0750
      2  C         16.2760  -22.2230   -9.7370 C.2     1  UNL1        0.0260
      3  C         16.9290  -21.5530  -10.7730 C.2     1  UNL1        0.0260
      4  C         18.3130  -21.6790  -10.9350 C.2     1  UNL1        0.0490
      5 CL         19.0600  -20.7840  -12.2070 Cl      1  UNL1       -0.0830
      6  C         19.0420  -22.4780  -10.0450 C.2     1  UNL1        0.0550
      7  C         18.3960  -23.1550   -9.0010 C.2     1  UNL1        0.0430
      8  C         20.4990  -22.6580  -10.1890 C.2     1  UNL1        0.2530
      9  O         20.9680  -23.7850  -10.2190 O.2     1  UNL1       -0.2680
     10  N         21.2170  -21.4840  -10.2430 N.am    1  UNL1       -0.3520
     11  H         20.7050  -20.6130  -10.3030 H       1  UNL1        0.1630
     12  C         22.6580  -21.4210  -10.4730 C.3     1  UNL1        0.0860
     13  C         23.4910  -21.9820   -9.3100 C.3     1  UNL1        0.0250
     14  C         24.2390  -23.2530   -9.6830 C.3     1  UNL1        0.0040
     15  C         25.1230  -23.0800  -10.9190 C.3     1  UNL1        0.0360
     16  C         24.5800  -22.0870  -11.9790 C.3     1  UNL1        0.2240
     17  C         23.0460  -21.9930  -11.8480 C.3     1  UNL1        0.0610
     18  N         25.0640  -22.4630  -13.3340 N.3     1  UNL1        0.0840
     19  C         25.2270  -23.9080  -13.5090 C.3     1  UNL1        0.3090
     20  C         24.1740  -21.9560  -14.3870 C.3     1  UNL1        0.3090
     21  S         16.1690  -23.8600   -7.5360 S.O2    1  UNL1        0.2450
     22  O         15.4100  -22.8660   -6.8070 O.2     1  UNL1       -0.2060
     23  O         15.5530  -25.0350   -8.1100 O.2     1  UNL1       -0.2060
     24  N         17.4930  -24.2900   -6.5520 N.pl3   1  UNL1       -0.1810
     25  H         18.3090  -24.3680   -7.1620 H       1  UNL1        0.1460
     26  C         17.7550  -23.3540   -5.4970 C.2     1  UNL1        0.0230
     27  C         17.4470  -23.6820   -4.1770 C.2     1  UNL1        0.0240
     28  C         17.7540  -22.7850   -3.1530 C.2     1  UNL1        0.0020
     29  C         18.3760  -21.5710   -3.4500 C.2     1  UNL1        0.0070
     30  C         18.6950  -21.2390   -4.7730 C.2     1  UNL1       -0.0600
     31  C         19.4120  -19.9600   -5.0850 C.3     1  UNL1        0.0480
     32  C         18.3950  -22.1500   -5.7940 C.2     1  UNL1        0.0310
@<TRIPOS>BOND
     1    20    18    1
     2    19    18    1
     3    18    16    1
     4     5     4    1
     5    16    17    1
     6    16    15    1
     7    17    12    1
     8     4     3    2
     9     4     6    1
    10    15    14    1
    11     3     2    1
    12    12    10    1
    13    12    13    1
    14    11    10    1
    15    10     8   am
    16     9     8    2
    17     8     6    1
    18     6     7    2
    19     2     1    2
    20    14    13    1
    21     7     1    1
    22     1    21    1
    23    23    21    2
    24    21    22    2
    25    21    24    1
    26    25    24    1
    27    24    26    1
    28    32    26    2
    29    32    30    1
    30    26    27    1
    31    31    30    1
    32    30    29    2
    33    27    28    2
    34    29    28    1
