@<TRIPOS>MOLECULE
65767_out_ligand_01.pdbqt
 29 31 0 0 0
SMALL
GASTEIGER

@<TRIPOS>ATOM
      1  C         17.1300  -22.6770   -9.2670 C.2     1  UNL1        0.0400
      2  C         16.5960  -21.7860  -10.2020 C.2     1  UNL1        0.0180
      3  C         17.4010  -21.2980  -11.2220 C.2     1  UNL1        0.0030
      4  C         18.7390  -21.6860  -11.2910 C.2     1  UNL1        0.0300
      5  C         19.3170  -22.5460  -10.3370 C.2     1  UNL1        0.0370
      6  C         18.4940  -23.0530   -9.3060 C.2     1  UNL1       -0.0160
      7  C         19.0690  -23.9750   -8.2560 C.3     1  UNL1        0.0430
      8  C         20.5890  -23.9330   -8.2220 C.3     1  UNL1        0.0250
      9  C         21.1130  -24.0440   -9.6410 C.3     1  UNL1        0.1230
     10  N         20.6780  -22.8960  -10.4500 N.pl3   1  UNL1       -0.3760
     11  C         21.6150  -21.7550  -10.4930 C.3     1  UNL1        0.1610
     12  C         22.4260  -21.7580  -11.7740 C.2     1  UNL1       -0.0400
     13  C         21.9530  -21.0910  -12.9130 C.2     1  UNL1        0.0100
     14  C         22.6910  -21.1080  -14.1010 C.2     1  UNL1        0.0170
     15  C         23.9020  -21.8040  -14.1710 C.2     1  UNL1        0.0310
     16  C         24.3820  -22.4700  -13.0390 C.2     1  UNL1        0.0170
     17  C         23.6430  -22.4530  -11.8520 C.2     1  UNL1        0.0100
     18  C         24.6520  -21.7840  -15.4560 C.2     1  UNL1        0.2490
     19  N         24.4240  -20.7370  -16.3050 N.am    1  UNL1       -0.3660
     20  H         25.0450  -20.6810  -17.1030 H       1  UNL1        0.1590
     21  H         24.0060  -19.8740  -15.9870 H       1  UNL1        0.1590
     22  O         25.4700  -22.6500  -15.7370 O.2     1  UNL1       -0.2680
     23  C         16.1950  -23.1900   -8.2400 C.2     1  UNL1        0.2520
     24  N         16.0360  -22.3720   -7.1410 N.am    1  UNL1       -0.3530
     25  H         16.6840  -21.6010   -7.0330 H       1  UNL1        0.1630
     26  O         15.6680  -24.2860   -8.3790 O.2     1  UNL1       -0.2680
     27  C         15.2710  -22.7960   -5.9790 C.3     1  UNL1        0.0760
     28  C         14.1090  -21.8400   -5.7410 C.3     1  UNL1        0.0320
     29  C         16.1650  -22.8760   -4.7450 C.3     1  UNL1        0.0320
@<TRIPOS>BOND
     1    20    19    1
     2    19    21    1
     3    19    18   am
     4    22    18    2
     5    18    15    1
     6    15    14    2
     7    15    16    1
     8    14    13    1
     9    16    17    2
    10    13    12    2
    11    17    12    1
    12    12    11    1
    13     4     3    2
    14     4     5    1
    15     3     2    1
    16    11    10    1
    17    10     5    1
    18    10     9    1
    19     5     6    2
    20     2     1    2
    21     9     8    1
    22     6     1    1
    23     6     7    1
    24     1    23    1
    25    26    23    2
    26     7     8    1
    27    23    24   am
    28    24    25    1
    29    24    27    1
    30    27    28    1
    31    27    29    1
