@<TRIPOS>MOLECULE
65768_out_ligand_01.pdbqt
 33 36 0 0 0
SMALL
GASTEIGER

@<TRIPOS>ATOM
      1  C         21.3850  -22.2600   -9.2230 C.ar    1  UNL1        0.1530
      2  N         20.9990  -22.6530   -8.0040 N.ar    1  UNL1       -0.1610
      3  N         19.6460  -22.5610   -7.9960 N.ar    1  UNL1       -0.2370
      4  C         19.1600  -22.2580   -9.2660 C.ar    1  UNL1        0.0450
      5  C         20.2710  -21.9650  -10.0480 C.ar    1  UNL1        0.0030
      6  C         20.3060  -21.5100  -11.4730 C.3     1  UNL1        0.0430
      7  C         19.0670  -20.7200  -11.8890 C.3     1  UNL1        0.0050
      8  C         17.8280  -21.5820  -12.1540 C.3     1  UNL1        0.0010
      9  C         17.5560  -22.7130  -11.1550 C.3     1  UNL1        0.0060
     10  C         17.7220  -22.3160   -9.6840 C.3     1  UNL1        0.0600
     11  C         22.8040  -22.1320   -9.5610 C.2     1  UNL1        0.2720
     12  N         23.2830  -23.2190  -10.2600 N.am    1  UNL1       -0.3510
     13  H         22.6280  -23.9380  -10.5410 H       1  UNL1        0.1630
     14  O         23.4930  -21.1640   -9.2520 O.2     1  UNL1       -0.2660
     15  C         24.6250  -23.2390  -10.7800 C.3     1  UNL1        0.1610
     16  C         24.6140  -23.0670  -12.2770 C.2     1  UNL1       -0.0400
     17  C         23.9990  -21.9610  -12.8740 C.2     1  UNL1        0.0100
     18  C         24.0070  -21.8050  -14.2650 C.2     1  UNL1        0.0170
     19  C         24.6430  -22.7490  -15.0810 C.2     1  UNL1        0.0310
     20  C         25.2600  -23.8540  -14.4830 C.2     1  UNL1        0.0170
     21  C         25.2450  -24.0120  -13.0950 C.2     1  UNL1        0.0100
     22  C         24.6820  -22.6590  -16.5680 C.2     1  UNL1        0.2490
     23  N         24.4150  -21.4570  -17.1610 N.am    1  UNL1       -0.3660
     24  H         24.2760  -20.5830  -16.6760 H       1  UNL1        0.1590
     25  H         24.4890  -21.4270  -18.1710 H       1  UNL1        0.1590
     26  O         24.9520  -23.6330  -17.2620 O.2     1  UNL1       -0.2680
     27  C         18.9650  -22.7410   -6.7520 C.2     1  UNL1        0.0580
     28  C         18.2680  -23.9170   -6.4400 C.2     1  UNL1        0.0340
     29  C         17.5940  -24.0300   -5.2180 C.2     1  UNL1        0.0440
     30  C         17.6070  -22.9720   -4.3160 C.2     1  UNL1        0.1160
     31  F         16.9540  -23.0850   -3.1540 F       1  UNL1       -0.2060
     32  C         18.2820  -21.7960   -4.6110 C.2     1  UNL1        0.0440
     33  C         18.9510  -21.6750   -5.8300 C.2     1  UNL1        0.0340
@<TRIPOS>BOND
     1    25    23    1
     2    26    22    2
     3    23    24    1
     4    23    22   am
     5    22    19    1
     6    19    20    2
     7    19    18    1
     8    20    21    1
     9    18    17    2
    10    21    16    2
    11    17    16    1
    12    16    15    1
    13     8     7    1
    14     8     9    1
    15     7     6    1
    16     6     5    1
    17     9    10    1
    18    15    12    1
    19    13    12    1
    20    12    11   am
    21     5     4   ar
    22     5     1   ar
    23    10     4    1
    24    11    14    2
    25    11     1    1
    26     4     3   ar
    27     1     2   ar
    28     2     3   ar
    29     3    27    1
    30    27    28    2
    31    27    33    1
    32    28    29    1
    33    33    32    2
    34    29    30    2
    35    32    30    1
    36    30    31    1
