@<TRIPOS>MOLECULE
65774_out_ligand_01.pdbqt
 33 36 0 0 0
SMALL
GASTEIGER

@<TRIPOS>ATOM
      1  N         23.1670  -22.4480  -11.1790 N.am    1  UNL1       -0.3470
      2  C         22.6870  -21.7480  -10.0900 C.2     1  UNL1        0.2730
      3  O         23.4140  -21.0040   -9.4350 O.2     1  UNL1       -0.2660
      4  H         22.5770  -23.1220  -11.6390 H       1  UNL1        0.1630
      5  C         21.2560  -21.9650   -9.7790 C.ar    1  UNL1        0.1530
      6  N         20.8730  -22.3520   -8.5400 N.ar    1  UNL1       -0.1610
      7  N         19.5140  -22.4800   -8.5610 N.ar    1  UNL1       -0.2370
      8  C         19.0470  -22.1480   -9.7990 C.ar    1  UNL1        0.0450
      9  C         20.1160  -21.8280  -10.5880 C.ar    1  UNL1        0.0030
     10  C         17.7400  -22.0380  -10.4700 C.3     1  UNL1        0.0600
     11  C         19.6950  -21.4580  -11.9520 C.3     1  UNL1        0.0430
     12  C         18.1470  -21.3120  -11.7940 C.3     1  UNL1        0.0110
     13  C         18.8180  -22.9060   -7.3930 C.2     1  UNL1        0.0580
     14  C         18.7260  -22.0260   -6.2970 C.2     1  UNL1        0.0340
     15  C         18.0500  -22.4070   -5.1360 C.2     1  UNL1        0.0440
     16  C         17.4690  -23.6640   -5.0660 C.2     1  UNL1        0.1160
     17  F         16.8180  -24.0330   -3.9560 F       1  UNL1       -0.2060
     18  C         17.5540  -24.5500   -6.1340 C.2     1  UNL1        0.0440
     19  C         18.2310  -24.1740   -7.3000 C.2     1  UNL1        0.0340
     20  C         24.5570  -22.3750  -11.5900 C.3     1  UNL1        0.1140
     21  C         25.3960  -23.4410  -10.8820 C.3     1  UNL1        0.0370
     22  C         24.6230  -22.4610  -13.1070 C.2     1  UNL1       -0.0360
     23  C         25.1830  -23.5660  -13.7690 C.2     1  UNL1        0.0110
     24  C         25.1880  -23.6360  -15.1640 C.2     1  UNL1        0.0250
     25  C         24.6170  -22.6020  -15.9080 C.2     1  UNL1        0.0740
     26  C         24.0600  -21.4920  -15.2720 C.2     1  UNL1        0.0250
     27  C         24.0570  -21.4300  -13.8770 C.2     1  UNL1        0.0110
     28  S         24.6380  -22.6770  -17.6750 S.O2    1  UNL1        0.2390
     29  O         25.9660  -23.0190  -18.1250 O.2     1  UNL1       -0.2060
     30  O         23.4580  -23.3740  -18.1350 O.2     1  UNL1       -0.2060
     31  N         24.4100  -21.0660  -18.0890 N.3     1  UNL1       -0.2250
     32  H         25.3090  -20.6360  -18.3100 H       1  UNL1        0.1360
     33  H         23.8990  -20.5890  -17.3460 H       1  UNL1        0.1360
@<TRIPOS>BOND
     1    32    31    1
     2    30    28    2
     3    29    28    2
     4    31    28    1
     5    31    33    1
     6    28    25    1
     7    25    26    2
     8    25    24    1
     9    26    27    1
    10    24    23    2
    11    27    22    2
    12    23    22    1
    13    22    20    1
    14    11    12    1
    15    11     9    1
    16    12    10    1
    17     4     1    1
    18    20     1    1
    19    20    21    1
    20     1     2   am
    21     9     8   ar
    22     9     5   ar
    23    10     8    1
    24     2     5    1
    25     2     3    2
    26     8     7   ar
    27     5     6   ar
    28     7     6   ar
    29     7    13    1
    30    13    19    2
    31    13    14    1
    32    19    18    1
    33    14    15    2
    34    18    16    2
    35    15    16    1
    36    16    17    1
