@<TRIPOS>MOLECULE
65798_out_ligand_01.pdbqt
 31 33 0 0 0
SMALL
GASTEIGER

@<TRIPOS>ATOM
      1  C         20.2390  -22.5830   -9.4130 C.2     1  UNL1        0.0850
      2  C         19.5020  -22.3190  -10.5790 C.3     1  UNL1        0.1580
      3  N         20.2770  -22.0040  -11.6120 N.3     1  UNL1       -0.1780
      4  N         21.5500  -22.1430  -11.1540 N.pl3   1  UNL1       -0.2280
      5  C         21.5520  -22.3050   -9.7810 C.2     1  UNL1        0.1590
      6  C         19.6910  -22.9370   -8.1100 C.2     1  UNL1        0.2600
      7  N         19.2560  -21.8530   -7.3700 N.am    1  UNL1       -0.3230
      8  H         19.4450  -20.9290   -7.7370 H       1  UNL1        0.1690
      9  O         19.7040  -24.1040   -7.7410 O.2     1  UNL1       -0.2670
     10  C         18.6350  -21.8760   -6.1010 C.2     1  UNL1        0.0350
     11  C         19.0540  -21.1170   -5.0090 C.2     1  UNL1        0.0290
     12  C         18.3930  -21.2130   -3.7800 C.2     1  UNL1        0.0030
     13  C         17.3000  -22.0670   -3.6320 C.2     1  UNL1        0.0170
     14  C         16.8620  -22.8250   -4.7210 C.2     1  UNL1        0.0340
     15  C         17.5390  -22.7360   -5.9470 C.2     1  UNL1        0.0460
     16  C         15.7050  -23.7550   -4.6300 C.2     1  UNL1        0.2490
     17  N         14.8340  -23.7950   -5.6830 N.am    1  UNL1       -0.3660
     18  H         15.0650  -23.4230   -6.5920 H       1  UNL1        0.1590
     19  H         14.1290  -24.5200   -5.6450 H       1  UNL1        0.1590
     20  O         15.5520  -24.4910   -3.6630 O.2     1  UNL1       -0.2680
     21  C         22.7310  -22.1070   -8.9320 C.3     1  UNL1        0.4350
     22  F         22.3840  -21.6760   -7.6940 F       1  UNL1       -0.1650
     23  F         23.6160  -21.2050   -9.4110 F       1  UNL1       -0.1650
     24  F         23.3890  -23.2810   -8.7550 F       1  UNL1       -0.1650
     25  C         22.6170  -22.1440  -12.1080 C.2     1  UNL1        0.0590
     26  C         22.5360  -21.2780  -13.2140 C.2     1  UNL1        0.0330
     27  C         23.5450  -21.2570  -14.1810 C.2     1  UNL1        0.0260
     28  C         24.6350  -22.1120  -14.0590 C.2     1  UNL1        0.0340
     29 CL         25.8780  -22.0920  -15.2460 Cl      1  UNL1       -0.0840
     30  C         24.7170  -22.9950  -12.9840 C.2     1  UNL1        0.0260
     31  C         23.7070  -23.0190  -12.0120 C.2     1  UNL1        0.0330
@<TRIPOS>BOND
     1    29    28    1
     2    27    28    2
     3    27    26    1
     4    28    30    1
     5    26    25    2
     6    30    31    2
     7    25    31    1
     8    25     4    1
     9     3     4    1
    10     3     2    1
    11     4     5    1
    12     2     1    1
    13     5     1    2
    14     5    21    1
    15     1     6    1
    16    23    21    1
    17    21    24    1
    18    21    22    1
    19     6     9    2
    20     6     7   am
    21     8     7    1
    22     7    10    1
    23    18    17    1
    24    10    15    2
    25    10    11    1
    26    15    14    1
    27    17    19    1
    28    17    16   am
    29    11    12    2
    30    14    16    1
    31    14    13    2
    32    16    20    2
    33    12    13    1
