@<TRIPOS>MOLECULE
65792_out_ligand_01.pdbqt
 33 37 0 0 0
SMALL
GASTEIGER

@<TRIPOS>ATOM
      1  C         20.9910  -23.2370   -9.8360 C.2     1  UNL1        0.0320
      2  C         21.1080  -22.4040  -10.9630 C.2     1  UNL1        0.0180
      3  C         22.3630  -21.9690  -11.3950 C.2     1  UNL1        0.0260
      4  C         23.5150  -22.4060  -10.7260 C.2     1  UNL1        0.0790
      5  C         23.4100  -23.2310   -9.5930 C.2     1  UNL1        0.0260
      6  C         22.1500  -23.6500   -9.1510 C.2     1  UNL1        0.0180
      7  C         19.6260  -23.6770   -9.4260 C.2     1  UNL1        0.2510
      8  O         18.7210  -23.7070  -10.2570 O.2     1  UNL1       -0.2680
      9  N         19.4630  -24.0150   -8.0930 N.am    1  UNL1       -0.3560
     10  H         20.1340  -23.6420   -7.4390 H       1  UNL1        0.1620
     11  C         18.1440  -24.3160   -7.5690 C.3     1  UNL1        0.1370
     12  C         17.3490  -23.0860   -7.1400 C.3     1  UNL1        0.0030
     13  C         15.8760  -22.9130   -7.5090 C.3     1  UNL1        0.0170
     14  C         16.9150  -22.0910   -8.2110 C.3     1  UNL1        0.0170
     15  C         17.7900  -22.5330   -5.7840 C.2     1  UNL1       -0.0480
     16  C         18.5490  -21.3510   -5.6910 C.2     1  UNL1        0.0080
     17  C         18.9360  -20.8300   -4.4520 C.2     1  UNL1        0.0010
     18  C         18.5640  -21.4780   -3.2760 C.2     1  UNL1        0.0000
     19  C         17.8100  -22.6480   -3.3390 C.2     1  UNL1        0.0010
     20  C         17.4260  -23.1650   -4.5800 C.2     1  UNL1        0.0080
     21  S         25.1320  -21.8710  -11.2670 S.O2    1  UNL1        0.2610
     22  O         25.4550  -20.6660  -10.5280 O.2     1  UNL1       -0.2000
     23  O         25.9970  -23.0350  -11.2160 O.2     1  UNL1       -0.2000
     24  N         24.9110  -21.4670  -12.8990 N.3     1  UNL1       -0.3020
     25  C         25.7380  -20.3650  -13.4460 C.3     1  UNL1        0.1400
     26  C         25.1530  -19.8570  -14.7650 C.3     1  UNL1        0.0600
     27  C         25.0350  -20.9820  -15.7650 C.2     1  UNL1       -0.0490
     28  C         25.1350  -20.7320  -17.1440 C.2     1  UNL1        0.0080
     29  C         24.7740  -22.2860  -15.3070 C.2     1  UNL1       -0.0330
     30  C         24.9820  -21.7730  -18.0580 C.2     1  UNL1        0.0010
     31  C         24.7210  -23.0700  -17.6090 C.2     1  UNL1        0.0010
     32  C         24.6140  -23.3250  -16.2420 C.2     1  UNL1        0.0090
     33  C         24.6480  -22.5980  -13.8270 C.3     1  UNL1        0.1740
@<TRIPOS>BOND
     1    30    31    2
     2    30    28    1
     3    31    32    1
     4    28    27    2
     5    32    29    2
     6    27    29    1
     7    27    26    1
     8    29    33    1
     9    26    25    1
    10    33    24    1
    11    25    24    1
    12    24    21    1
    13     3     2    1
    14     3     4    2
    15    21    23    2
    16    21     4    1
    17    21    22    2
    18     2     1    2
    19     4     5    1
    20     8     7    2
    21     1     7    1
    22     1     6    1
    23     5     6    2
    24     7     9   am
    25    14    13    1
    26    14    12    1
    27     9    11    1
    28     9    10    1
    29    11    12    1
    30    13    12    1
    31    12    15    1
    32    15    16    2
    33    15    20    1
    34    16    17    1
    35    20    19    2
    36    17    18    2
    37    19    18    1
