@<TRIPOS>MOLECULE
65797_out_ligand_01.pdbqt
 34 37 0 0 0
SMALL
GASTEIGER

@<TRIPOS>ATOM
      1  C         21.9700  -23.0950   -9.5610 C.2     1  UNL1        0.0220
      2  C         22.4840  -22.2370   -8.5890 C.2     1  UNL1        0.0250
      3  C         21.6780  -21.8220   -7.5240 C.2     1  UNL1        0.0190
      4  C         20.3610  -22.2860   -7.4240 C.2     1  UNL1        0.0320
      5  C         19.8510  -23.1490   -8.4040 C.2     1  UNL1        0.0190
      6  C         20.6590  -23.5650   -9.4660 C.2     1  UNL1        0.0250
      7  N         22.8260  -23.5570  -10.6140 N.pl3   1  UNL1       -0.1810
      8  H         23.1350  -24.5160  -10.4320 H       1  UNL1        0.1460
      9  S         24.2360  -22.6110  -10.8120 S.O2    1  UNL1        0.2450
     10  O         25.3040  -23.3130  -10.1310 O.2     1  UNL1       -0.2060
     11  O         23.9390  -21.2200  -10.5550 O.2     1  UNL1       -0.2060
     12  C         24.4910  -22.7820  -12.5630 C.2     1  UNL1        0.0740
     13  C         25.2600  -23.8350  -13.0610 C.2     1  UNL1        0.0260
     14  C         25.4590  -23.9440  -14.4400 C.2     1  UNL1        0.0160
     15  C         24.9030  -23.0010  -15.3200 C.2     1  UNL1        0.0090
     16  C         24.1410  -21.9430  -14.8050 C.2     1  UNL1        0.0160
     17  C         23.9370  -21.8310  -13.4260 C.2     1  UNL1        0.0260
     18  C         25.1500  -23.1660  -16.7830 C.2     1  UNL1        0.1550
     19  C         23.9790  -23.4090  -17.6990 C.3     1  UNL1        0.0960
     20  O         26.2980  -23.1070  -17.2190 O.2     1  UNL1       -0.2930
     21  C         19.4660  -21.8810   -6.3070 C.2     1  UNL1        0.2510
     22  O         19.5580  -20.7560   -5.8290 O.2     1  UNL1       -0.2680
     23  N         18.5420  -22.8190   -5.9020 N.am    1  UNL1       -0.3560
     24  H         18.4110  -23.6580   -6.4490 H       1  UNL1        0.1620
     25  C         17.5530  -22.5340   -4.8820 C.3     1  UNL1        0.1370
     26  C         16.1210  -22.8750   -5.2900 C.3     1  UNL1        0.0030
     27  C         15.2440  -23.6800   -4.3370 C.3     1  UNL1        0.0170
     28  C         14.9300  -22.2340   -4.5780 C.3     1  UNL1        0.0170
     29  C         15.9780  -23.1680   -6.7840 C.2     1  UNL1       -0.0480
     30  C         16.1380  -22.1570   -7.7480 C.2     1  UNL1        0.0080
     31  C         16.0210  -22.4280   -9.1140 C.2     1  UNL1        0.0010
     32  C         15.7450  -23.7220   -9.5450 C.2     1  UNL1        0.0000
     33  C         15.5890  -24.7430   -8.6120 C.2     1  UNL1        0.0010
     34  C         15.7070  -24.4670   -7.2490 C.2     1  UNL1        0.0080
@<TRIPOS>BOND
     1    19    18    1
     2    20    18    2
     3    18    15    1
     4    15    16    2
     5    15    14    1
     6    16    17    1
     7    14    13    2
     8    17    12    2
     9    13    12    1
    10    12     9    1
    11     9     7    1
    12     9    11    2
    13     9    10    2
    14     7     8    1
    15     7     1    1
    16     1     6    2
    17     1     2    1
    18    32    31    2
    19    32    33    1
    20     6     5    1
    21    31    30    1
    22    33    34    2
    23     2     3    2
    24     5     4    2
    25    30    29    2
    26     3     4    1
    27     4    21    1
    28    34    29    1
    29    29    26    1
    30    24    23    1
    31    21    23   am
    32    21    22    2
    33    23    25    1
    34    26    25    1
    35    26    28    1
    36    26    27    1
    37    28    27    1
