@<TRIPOS>MOLECULE
657_out_ligand_01.pdbqt
 37 41 0 0 0
SMALL
GASTEIGER

@<TRIPOS>ATOM
      1  O         23.3420  -21.4090   -8.9720 O.2     1  UNL1       -0.2670
      2  C         22.7960  -22.4620   -9.2800 C.2     1  UNL1        0.2560
      3  N         23.2640  -23.3940  -10.1920 N.am    1  UNL1       -0.3230
      4  H         22.8240  -24.3060  -10.1890 H       1  UNL1        0.1690
      5  C         21.5320  -22.8410   -8.5830 C.2     1  UNL1        0.0320
      6  C         20.8930  -24.0660   -8.8240 C.2     1  UNL1        0.0180
      7  C         19.7060  -24.3810   -8.1550 C.2     1  UNL1        0.0260
      8  C         19.1600  -23.4660   -7.2490 C.2     1  UNL1        0.0790
      9  C         19.7710  -22.2290   -7.0260 C.2     1  UNL1        0.0260
     10  C         20.9590  -21.9190   -7.6940 C.2     1  UNL1        0.0180
     11  S         17.6300  -23.8520   -6.4350 S.O2    1  UNL1        0.2580
     12  O         17.4090  -22.8500   -5.4160 O.2     1  UNL1       -0.2010
     13  O         17.5940  -25.2650   -6.1380 O.2     1  UNL1       -0.2010
     14  N         16.5040  -23.5340   -7.6410 N.3     1  UNL1       -0.3130
     15  H         16.2890  -24.3740   -8.1770 H       1  UNL1        0.1720
     16  C         16.5980  -22.2510   -8.3540 C.3     1  UNL1        0.1640
     17  C         16.4980  -22.4630   -9.8730 C.3     1  UNL1        0.1400
     18  C         17.7320  -23.1190  -10.4850 C.3     1  UNL1        0.0350
     19  C         18.5640  -21.9350  -10.9080 C.3     1  UNL1        0.0290
     20  C         17.5060  -20.9530  -11.3520 C.3     1  UNL1        0.1680
     21  O         16.3660  -21.1750  -10.5100 O.3     1  UNL1       -0.3840
     22  C         24.3850  -23.2580  -11.0370 C.2     1  UNL1        0.0350
     23  C         25.6460  -23.2080  -10.4310 C.2     1  UNL1        0.0290
     24  C         26.7980  -23.0780  -11.2070 C.2     1  UNL1        0.0030
     25  C         26.6970  -22.9930  -12.5950 C.2     1  UNL1        0.0150
     26  C         25.4470  -23.0370  -13.2230 C.2     1  UNL1        0.0140
     27  C         24.2990  -23.1960  -12.4320 C.2     1  UNL1        0.0440
     28  C         25.3780  -22.9560  -14.6830 C.ar    1  UNL1        0.1640
     29  N         25.3460  -24.0000  -15.4910 N.ar    1  UNL1       -0.1290
     30  N         25.2980  -23.5560  -16.7850 N.ar    1  UNL1       -0.1340
     31  C         25.3300  -22.2430  -16.7640 C.ar    1  UNL1        0.1300
     32  N         25.4000  -21.8120  -15.4630 N.ar    1  UNL1       -0.3160
     33  C         25.3050  -21.3590  -17.9540 C.3     1  UNL1        0.0810
     34  C         25.5830  -20.4580  -14.9840 C.3     1  UNL1        0.1320
     35  C         26.0150  -19.3740  -15.9800 C.3     1  UNL1        0.0200
     36  C         27.1210  -19.8190  -16.9320 C.3     1  UNL1        0.0020
     37  C         26.6160  -20.6010  -18.1520 C.3     1  UNL1        0.0080
@<TRIPOS>BOND
     1    37    33    1
     2    37    36    1
     3    33    31    1
     4    36    35    1
     5    30    31   ar
     6    30    29   ar
     7    31    32   ar
     8    35    34    1
     9    29    28   ar
    10    32    34    1
    11    32    28   ar
    12    28    26    1
    13    26    25    2
    14    26    27    1
    15    25    24    1
    16    27    22    2
    17    20    19    1
    18    20    21    1
    19    24    23    2
    20    22    23    1
    21    22     3    1
    22    19    18    1
    23    21    17    1
    24    18    17    1
    25     3     4    1
    26     3     2   am
    27    17    16    1
    28     2     1    2
    29     2     5    1
    30     6     5    2
    31     6     7    1
    32     5    10    1
    33    16    14    1
    34    15    14    1
    35     7     8    2
    36    10     9    2
    37    14    11    1
    38     8     9    1
    39     8    11    1
    40    11    13    2
    41    11    12    2
