@<TRIPOS>MOLECULE
65809_out_ligand_01.pdbqt
 33 36 0 0 0
SMALL
GASTEIGER

@<TRIPOS>ATOM
      1  C         21.2180  -23.1260  -10.1990 C.2     1  UNL1        0.0330
      2  C         20.4510  -22.4260  -11.1430 C.2     1  UNL1        0.0170
      3  C         21.0760  -21.6290  -12.1080 C.2     1  UNL1        0.0030
      4  C         22.4660  -21.5260  -12.1350 C.2     1  UNL1        0.0250
      5  C         23.2280  -22.2220  -11.1920 C.2     1  UNL1        0.0800
      6  C         22.6130  -23.0080  -10.2130 C.2     1  UNL1        0.0420
      7  C         20.5950  -23.9820   -9.1500 C.2     1  UNL1        0.2510
      8  O         21.1400  -25.0250   -8.8110 O.2     1  UNL1       -0.2680
      9  N         19.3930  -23.5460   -8.6400 N.am    1  UNL1       -0.3560
     10  H         18.8920  -22.8060   -9.1150 H       1  UNL1        0.1620
     11  C         18.6410  -24.3140   -7.6620 C.3     1  UNL1        0.1370
     12  C         17.4500  -23.4540   -7.1850 C.3     1  UNL1        0.0030
     13  C         16.9090  -22.5180   -8.3270 C.3     1  UNL1        0.0160
     14  C         15.9160  -23.6280   -8.7140 C.3     1  UNL1        0.0020
     15  C         16.0570  -24.1760   -7.2840 C.3     1  UNL1        0.0160
     16  C         17.8090  -22.7120   -5.7950 C.2     1  UNL1       -0.0480
     17  C         18.5590  -21.5170   -5.7690 C.2     1  UNL1        0.0080
     18  C         18.8980  -20.8790   -4.5720 C.2     1  UNL1        0.0010
     19  C         18.4930  -21.4190   -3.3570 C.2     1  UNL1        0.0000
     20  C         17.7470  -22.5930   -3.3400 C.2     1  UNL1        0.0010
     21  C         17.4130  -23.2250   -4.5410 C.2     1  UNL1        0.0080
     22  S         24.9940  -22.0650  -11.2210 S.O2    1  UNL1        0.2590
     23  O         25.5870  -23.3200  -10.8200 O.2     1  UNL1       -0.2010
     24  O         25.3390  -20.8110  -10.5920 O.2     1  UNL1       -0.2010
     25  N         25.2870  -21.8620  -12.8610 N.3     1  UNL1       -0.3100
     26  H         25.0940  -20.9200  -13.2120 H       1  UNL1        0.1720
     27  C         26.1160  -22.8230  -13.5980 C.3     1  UNL1        0.1080
     28  C         27.0950  -22.1050  -14.5300 C.3     1  UNL1        0.0410
     29  C         26.2920  -21.5840  -15.7150 C.3     1  UNL1        0.1420
     30  S         25.0170  -22.8020  -15.9900 S.O2    1  UNL1        0.1460
     31  O         25.4020  -23.6460  -17.1030 O.2     1  UNL1       -0.2280
     32  O         23.7320  -22.1360  -15.9280 O.2     1  UNL1       -0.2280
     33  C         25.2480  -23.7150  -14.4780 C.3     1  UNL1        0.1660
@<TRIPOS>BOND
     1    31    30    2
     2    30    32    2
     3    30    29    1
     4    30    33    1
     5    29    28    1
     6    28    27    1
     7    33    27    1
     8    27    25    1
     9    26    25    1
    10    25    22    1
    11     4     3    2
    12     4     5    1
    13     3     2    1
    14    22     5    1
    15    22    23    2
    16    22    24    2
    17     5     6    2
    18     2     1    2
    19     6     1    1
    20     1     7    1
    21     7     8    2
    22     7     9   am
    23    10     9    1
    24    14    13    1
    25    14    15    1
    26     9    11    1
    27    13    12    1
    28    11    12    1
    29    15    12    1
    30    12    16    1
    31    16    17    2
    32    16    21    1
    33    17    18    1
    34    18    19    2
    35    21    20    2
    36    19    20    1
