@<TRIPOS>MOLECULE
65832_out_ligand_01.pdbqt
 28 30 0 0 0
SMALL
GASTEIGER

@<TRIPOS>ATOM
      1  C         20.3980  -24.0420   -9.1860 C.2     1  UNL1        0.2520
      2  O         20.7280  -25.2210   -9.1450 O.2     1  UNL1       -0.2680
      3  N         19.4310  -23.4710   -8.3900 N.am    1  UNL1       -0.3560
      4  H         19.0440  -22.5860   -8.7000 H       1  UNL1        0.1620
      5  C         21.0050  -23.1380  -10.1950 C.2     1  UNL1        0.0390
      6  C         22.4040  -23.0710  -10.2100 C.2     1  UNL1        0.0420
      7  C         23.0440  -22.2560  -11.1440 C.2     1  UNL1        0.0750
      8  C         22.3050  -21.5190  -12.0720 C.2     1  UNL1        0.0250
      9  C         20.9090  -21.5740  -12.0410 C.2     1  UNL1        0.0090
     10  C         20.2380  -22.3660  -11.0910 C.2     1  UNL1       -0.0460
     11  C         18.7360  -22.3560  -11.0740 C.3     1  UNL1        0.0490
     12  S         24.8100  -22.2060  -11.1770 S.O2    1  UNL1        0.2390
     13  O         25.2620  -20.9640  -10.5950 O.2     1  UNL1       -0.2060
     14  O         25.2650  -22.6690  -12.4680 O.2     1  UNL1       -0.2060
     15  N         25.2130  -23.4020  -10.0730 N.3     1  UNL1       -0.2250
     16  H         24.4480  -24.0700   -9.9840 H       1  UNL1        0.1360
     17  H         25.5030  -22.9820   -9.1890 H       1  UNL1        0.1360
     18  C         18.6150  -24.2880   -7.5130 C.3     1  UNL1        0.1370
     19  C         17.4260  -23.4430   -7.0070 C.3     1  UNL1        0.0030
     20  C         16.0340  -24.1670   -7.1050 C.3     1  UNL1        0.0160
     21  C         15.8770  -23.5930   -8.5240 C.3     1  UNL1        0.0020
     22  C         16.8710  -22.4880   -8.1250 C.3     1  UNL1        0.0160
     23  C         17.7960  -22.7210   -5.6100 C.2     1  UNL1       -0.0480
     24  C         17.4700  -23.2830   -4.3590 C.2     1  UNL1        0.0080
     25  C         17.8090  -22.6610   -3.1540 C.2     1  UNL1        0.0010
     26  C         18.4890  -21.4490   -3.1640 C.2     1  UNL1        0.0000
     27  C         18.8260  -20.8610   -4.3780 C.2     1  UNL1        0.0010
     28  C         18.4830  -21.4890   -5.5770 C.2     1  UNL1        0.0080
@<TRIPOS>BOND
     1    14    12    2
     2     8     9    2
     3     8     7    1
     4     9    10    1
     5    12     7    1
     6    12    13    2
     7    12    15    1
     8     7     6    2
     9    10    11    1
    10    10     5    2
    11     6     5    1
    12     5     1    1
    13    15    16    1
    14    15    17    1
    15     1     2    2
    16     1     3   am
    17     4     3    1
    18    21    22    1
    19    21    20    1
    20     3    18    1
    21    22    19    1
    22    18    19    1
    23    20    19    1
    24    19    23    1
    25    23    28    2
    26    23    24    1
    27    28    27    1
    28    27    26    2
    29    24    25    2
    30    26    25    1
