@<TRIPOS>MOLECULE
65858_out_ligand_01.pdbqt
 27 29 0 0 0
SMALL
GASTEIGER

@<TRIPOS>ATOM
      1  N         19.1110  -22.3670   -9.0250 N.am    1  UNL1       -0.3240
      2  C         18.9540  -23.4100   -8.1240 C.2     1  UNL1        0.2350
      3  O         19.7500  -24.3410   -8.0000 O.2     1  UNL1       -0.2720
      4  H         18.3510  -21.6950   -9.0770 H       1  UNL1        0.1690
      5  C         20.1600  -22.1540   -9.9450 C.2     1  UNL1        0.0740
      6  C         21.5210  -22.2360   -9.6380 C.2     1  UNL1        0.0530
      7  C         22.4930  -22.0050  -10.6310 C.2     1  UNL1        0.0720
      8  C         22.0790  -21.6910  -11.9290 C.2     1  UNL1        0.1350
      9  C         20.7300  -21.6010  -12.2490 C.2     1  UNL1        0.0880
     10  F         22.9690  -21.4610  -12.9080 F       1  UNL1       -0.2050
     11  C         19.7870  -21.8320  -11.2570 C.2     1  UNL1        0.1460
     12  F         18.4850  -21.7420  -11.5690 F       1  UNL1       -0.2040
     13  C         23.9280  -22.1020  -10.2510 C.2     1  UNL1        0.2520
     14  N         24.3990  -23.2990   -9.7940 N.am    1  UNL1       -0.3660
     15  H         23.8260  -24.1290   -9.7030 H       1  UNL1        0.1590
     16  H         25.3770  -23.3540   -9.5410 H       1  UNL1        0.1590
     17  O         24.6820  -21.1420  -10.3420 O.2     1  UNL1       -0.2680
     18  C         17.6250  -23.2690   -7.2590 C.3     1  UNL1        0.0680
     19  C         16.7410  -24.5730   -7.1900 C.3     1  UNL1        0.0240
     20  C         15.4980  -23.6800   -7.3250 C.3     1  UNL1        0.0030
     21  C         16.3920  -22.6500   -8.0330 C.3     1  UNL1        0.0240
     22  C         18.0240  -22.5140   -5.8830 C.2     1  UNL1       -0.0400
     23  C         17.6930  -23.0780   -4.6310 C.2     1  UNL1        0.0080
     24  C         18.0090  -22.4510   -3.4220 C.2     1  UNL1        0.0010
     25  C         18.6700  -21.2300   -3.4270 C.2     1  UNL1        0.0000
     26  C         19.0110  -20.6390   -4.6380 C.2     1  UNL1        0.0010
     27  C         18.6910  -21.2730   -5.8430 C.2     1  UNL1        0.0080
@<TRIPOS>BOND
     1    10     8    1
     2     9     8    2
     3     9    11    1
     4     8     7    1
     5    12    11    1
     6    11     5    2
     7     7    13    1
     8     7     6    2
     9    17    13    2
    10    13    14   am
    11     5     6    1
    12     5     1    1
    13    14    15    1
    14    14    16    1
    15     4     1    1
    16     1     2   am
    17     2     3    2
    18     2    18    1
    19    21    20    1
    20    21    18    1
    21    20    19    1
    22    18    19    1
    23    18    22    1
    24    22    27    2
    25    22    23    1
    26    27    26    1
    27    26    25    2
    28    23    24    2
    29    25    24    1
