@<TRIPOS>MOLECULE
65853_out_ligand_01.pdbqt
 30 33 0 0 0
SMALL
GASTEIGER

@<TRIPOS>ATOM
      1  C         22.0850  -21.9670   -9.8260 C.2     1  UNL1        0.2280
      2  O         23.1380  -21.3820   -9.5430 O.2     1  UNL1       -0.2730
      3  N         20.9790  -21.9230   -8.9710 N.am    1  UNL1       -0.3170
      4  C         21.3150  -21.8020   -7.5540 C.3     1  UNL1        0.1320
      5  C         20.1300  -21.7360   -6.6090 C.3     1  UNL1        0.0250
      6  C         19.1120  -22.7980   -6.9840 C.3     1  UNL1        0.0430
      7  C         18.6750  -22.5660   -8.4080 C.2     1  UNL1       -0.0150
      8  C         17.3470  -22.8020   -8.8190 C.2     1  UNL1        0.0400
      9  C         16.9380  -22.5150  -10.1260 C.2     1  UNL1        0.0180
     10  C         17.8490  -21.9840  -11.0310 C.2     1  UNL1        0.0030
     11  C         19.1750  -21.7790  -10.6430 C.2     1  UNL1        0.0300
     12  C         19.6160  -22.1110   -9.3520 C.2     1  UNL1        0.0440
     13  C         22.0380  -22.8990  -11.0390 C.3     1  UNL1        0.1440
     14  C         22.4720  -22.1590  -12.2620 C.2     1  UNL1       -0.0140
     15  C         23.7510  -22.2220  -12.8960 C.2     1  UNL1        0.0060
     16  C         24.9520  -22.9170  -12.6720 C.2     1  UNL1        0.0150
     17  C         23.6890  -21.3430  -13.9690 C.2     1  UNL1        0.0860
     18  C         26.0320  -22.7000  -13.5410 C.2     1  UNL1        0.0070
     19  C         25.9320  -21.8140  -14.6240 C.2     1  UNL1       -0.0590
     20  C         27.1180  -21.5810  -15.5140 C.3     1  UNL1        0.0480
     21  C         24.7440  -21.1010  -14.8470 C.2     1  UNL1        0.0440
     22  O         22.4600  -20.7590  -14.0310 O.2     1  UNL1       -0.3210
     23  C         21.7340  -21.2550  -12.9990 C.2     1  UNL1        0.1510
     24  C         16.3450  -23.3620   -7.8820 C.2     1  UNL1        0.2520
     25  O         16.0790  -24.5570   -7.9040 O.2     1  UNL1       -0.2680
     26  N         15.7970  -22.4490   -7.0070 N.am    1  UNL1       -0.3530
     27  H         16.2190  -21.5310   -6.9580 H       1  UNL1        0.1630
     28  C         14.9610  -22.8710   -5.8920 C.3     1  UNL1        0.0760
     29  C         13.9410  -21.7850   -5.5630 C.3     1  UNL1        0.0320
     30  C         15.8160  -23.1910   -4.6680 C.3     1  UNL1        0.0320
@<TRIPOS>BOND
     1    20    19    1
     2    21    19    2
     3    21    17    1
     4    19    18    1
     5    22    17    1
     6    22    23    1
     7    17    15    2
     8    18    16    2
     9    23    14    2
    10    15    16    1
    11    15    14    1
    12    14    13    1
    13    13     1    1
    14    10    11    2
    15    10     9    1
    16    11    12    1
    17     9     8    2
    18     1     2    2
    19     1     3   am
    20    12     3    1
    21    12     7    2
    22     3     4    1
    23     8     7    1
    24     8    24    1
    25     7     6    1
    26    25    24    2
    27    24    26   am
    28     4     5    1
    29    26    27    1
    30    26    28    1
    31     6     5    1
    32    28    29    1
    33    28    30    1
