@<TRIPOS>MOLECULE
65863_out_ligand_01.pdbqt
 37 40 0 0 0
SMALL
GASTEIGER

@<TRIPOS>ATOM
      1  C         21.4820  -22.1060  -11.3830 C.2     1  UNL1        0.0350
      2  C         21.1230  -21.1350  -12.3200 C.2     1  UNL1        0.0290
      3  C         19.8190  -20.6300  -12.3580 C.2     1  UNL1        0.0030
      4  C         18.8540  -21.1010  -11.4660 C.2     1  UNL1        0.0170
      5  C         19.1960  -22.0920  -10.5400 C.2     1  UNL1        0.0340
      6  C         20.5120  -22.5770  -10.4910 C.2     1  UNL1        0.0460
      7  N         22.7780  -22.6410  -11.2560 N.am    1  UNL1       -0.3270
      8  C         23.8050  -22.2100  -10.4320 C.2     1  UNL1        0.2310
      9  O         23.7900  -21.1920   -9.7430 O.2     1  UNL1       -0.2720
     10  H         22.9740  -23.4750  -11.8000 H       1  UNL1        0.1690
     11  C         25.0750  -23.0510  -10.5300 C.3     1  UNL1        0.1850
     12  S         26.4810  -22.1670  -11.2780 S.3     1  UNL1       -0.0810
     13  C         25.7840  -21.6750  -12.7700 C.3     1  UNL1        0.1850
     14  N         25.2350  -22.4270  -13.6860 N.2     1  UNL1       -0.2030
     15  C         24.8380  -21.5120  -14.6370 C.2     1  UNL1        0.1770
     16  N         25.1660  -20.2370  -14.3550 N.pl3   1  UNL1       -0.1540
     17  N         25.7410  -20.3710  -13.1460 N.3     1  UNL1       -0.2540
     18  H         26.0700  -19.5550  -12.6470 H       1  UNL1        0.1910
     19  C         24.1390  -21.9330  -15.8960 C.3     1  UNL1        0.1940
     20  C         24.5880  -23.3050  -16.3910 C.3     1  UNL1        0.0420
     21  C         24.4450  -23.1790  -17.8860 C.3     1  UNL1        0.0290
     22  C         24.8520  -21.7430  -18.1100 C.3     1  UNL1        0.1680
     23  O         24.3340  -21.0080  -16.9970 O.3     1  UNL1       -0.3780
     24  C         18.2140  -22.6360   -9.5590 C.2     1  UNL1        0.2560
     25  O         17.2330  -23.2290   -9.9920 O.2     1  UNL1       -0.2670
     26  N         18.4960  -22.3670   -8.2310 N.am    1  UNL1       -0.3230
     27  H         19.2640  -21.7380   -8.0440 H       1  UNL1        0.1690
     28  C         17.7550  -22.7780   -7.1020 C.2     1  UNL1        0.0350
     29  C         18.3780  -23.6700   -6.2190 C.2     1  UNL1        0.0290
     30  C         17.7140  -24.1250   -5.0780 C.2     1  UNL1        0.0030
     31  C         16.4160  -23.6970   -4.8110 C.2     1  UNL1        0.0160
     32  C         15.7720  -22.8060   -5.6800 C.2     1  UNL1        0.0500
     33  C         16.4520  -22.3580   -6.8290 C.2     1  UNL1        0.0450
     34  C         14.3550  -22.3540   -5.4200 C.3     1  UNL1        0.4170
     35  F         13.9060  -21.4450   -6.3330 F       1  UNL1       -0.1660
     36  F         13.4560  -23.3750   -5.4450 F       1  UNL1       -0.1660
     37  F         14.2150  -21.7540   -4.2050 F       1  UNL1       -0.1660
@<TRIPOS>BOND
     1    22    21    1
     2    22    23    1
     3    21    20    1
     4    23    19    1
     5    20    19    1
     6    19    15    1
     7    15    16    1
     8    15    14    2
     9    16    17    1
    10    14    13    1
    11    17    13    1
    12    17    18    1
    13    13    12    1
    14     3     2    1
    15     3     4    2
    16     2     1    2
    17    10     7    1
    18     4     5    1
    19     1     7    1
    20     1     6    1
    21    12    11    1
    22     7     8   am
    23     5     6    2
    24     5    24    1
    25    11     8    1
    26     8     9    2
    27    25    24    2
    28    24    26   am
    29    26    27    1
    30    26    28    1
    31    28    33    2
    32    28    29    1
    33    33    32    1
    34    35    34    1
    35    29    30    2
    36    32    34    1
    37    32    31    2
    38    36    34    1
    39    34    37    1
    40    30    31    1
