@<TRIPOS>MOLECULE
65868_out_ligand_01.pdbqt
 34 38 0 0 0
SMALL
GASTEIGER

@<TRIPOS>ATOM
      1  C         21.2060  -22.8220   -9.0660 C.2     1  UNL1        0.0330
      2  C         20.7070  -24.1400   -9.2260 C.2     1  UNL1        0.0180
      3  C         19.6960  -24.6270   -8.3900 C.2     1  UNL1        0.0190
      4  C         19.2210  -23.7780   -7.4080 C.2     1  UNL1        0.0480
      5  C         19.7120  -22.4950   -7.2460 C.2     1  UNL1        0.0490
      6  C         20.7090  -21.9850   -8.0550 C.2     1  UNL1        0.0350
      7  C         19.0010  -21.8910   -6.1210 C.2     1  UNL1        0.2620
      8  O         19.1730  -20.7510   -5.7340 O.2     1  UNL1       -0.2670
      9  N         18.1420  -22.8450   -5.6500 N.am    1  UNL1       -0.2740
     10  C         18.2010  -23.9960   -6.3830 C.2     1  UNL1        0.2620
     11  O         17.5550  -25.0190   -6.2820 O.2     1  UNL1       -0.2670
     12  C         22.3140  -22.3090   -9.9200 C.2     1  UNL1        0.2560
     13  O         23.1810  -21.6340   -9.3810 O.2     1  UNL1       -0.2670
     14  N         22.2250  -22.6430  -11.2590 N.am    1  UNL1       -0.3230
     15  H         21.3790  -23.1010  -11.5680 H       1  UNL1        0.1690
     16  C         23.1610  -22.3540  -12.2730 C.2     1  UNL1        0.0350
     17  C         22.8040  -21.3830  -13.2170 C.2     1  UNL1        0.0320
     18  C         23.6710  -21.0550  -14.2650 C.2     1  UNL1        0.0320
     19  C         24.8950  -21.7090  -14.3980 C.2     1  UNL1        0.0440
     20  C         25.2740  -22.6470  -13.4390 C.2     1  UNL1        0.0320
     21  C         24.4050  -22.9760  -12.3900 C.2     1  UNL1        0.0320
     22  N         25.7640  -21.2990  -15.4580 N.pl3   1  UNL1       -0.2760
     23  C         25.9560  -19.8640  -15.7450 C.3     1  UNL1        0.1420
     24  C         26.8610  -19.8460  -16.9760 C.3     1  UNL1        0.0380
     25  C         26.2640  -20.8520  -17.9500 C.3     1  UNL1        0.1650
     26  S         25.6120  -22.1710  -16.9320 S.O2    1  UNL1        0.2330
     27  O         26.5400  -23.2780  -16.9030 O.2     1  UNL1       -0.2050
     28  O         24.2120  -22.3300  -17.2570 O.2     1  UNL1       -0.2050
     29  C         17.2930  -22.6620   -4.4960 C.3     1  UNL1        0.2000
     30  C         15.9110  -22.3520   -4.9540 C.2     1  UNL1        0.0700
     31  C         15.3170  -22.3040   -6.1970 C.2     1  UNL1        0.0360
     32  C         13.9700  -21.9270   -5.9820 C.2     1  UNL1        0.0270
     33  C         13.8300  -21.7600   -4.6240 C.2     1  UNL1        0.1420
     34  O         15.0040  -22.0170   -3.9900 O.2     1  UNL1       -0.3250
@<TRIPOS>BOND
     1    25    24    1
     2    25    26    1
     3    28    26    2
     4    24    23    1
     5    26    27    2
     6    26    22    1
     7    23    22    1
     8    22    19    1
     9    19    18    2
    10    19    20    1
    11    18    17    1
    12    20    21    2
    13    17    16    2
    14    21    16    1
    15    16    14    1
    16    15    14    1
    17    14    12   am
    18    12    13    2
    19    12     1    1
    20     2     1    2
    21     2     3    1
    22     1     6    1
    23     3     4    2
    24     6     5    2
    25     4     5    1
    26     4    10    1
    27     5     7    1
    28    10    11    2
    29    10     9   am
    30    31    32    1
    31    31    30    2
    32     7     8    2
    33     7     9   am
    34    32    33    2
    35     9    29    1
    36    30    29    1
    37    30    34    1
    38    33    34    1
