@<TRIPOS>MOLECULE
65870_out_ligand_01.pdbqt
 29 31 0 0 0
SMALL
GASTEIGER

@<TRIPOS>ATOM
      1  C         22.4900  -22.3530   -8.7620 C.ar    1  UNL1        0.1510
      2  N         22.8420  -21.1150   -9.0550 N.ar    1  UNL1       -0.1300
      3  N         23.9490  -21.1600   -9.8750 N.ar    1  UNL1       -0.1220
      4  C         24.2090  -22.4230  -10.1020 C.ar    1  UNL1        0.1900
      5  N         23.3440  -23.2100   -9.4110 N.ar    1  UNL1       -0.3170
      6  H         23.3020  -24.2150   -9.4420 H       1  UNL1        0.1690
      7  S         25.4040  -23.1070  -11.1280 S.3     1  UNL1       -0.0810
      8  C         24.4680  -23.2970  -12.6720 C.3     1  UNL1        0.1850
      9  C         23.6030  -22.0770  -12.9360 C.2     1  UNL1        0.2270
     10  O         24.0140  -21.1030  -13.5650 O.2     1  UNL1       -0.2730
     11  N         22.3320  -22.1550  -12.4110 N.am    1  UNL1       -0.3560
     12  H         21.9970  -23.0530  -12.0700 H       1  UNL1        0.1620
     13  C         21.3800  -21.0780  -12.5160 C.3     1  UNL1        0.1610
     14  C         20.0870  -21.4390  -11.8270 C.2     1  UNL1       -0.0400
     15  C         19.0100  -20.5370  -11.8010 C.2     1  UNL1        0.0120
     16  C         17.8040  -20.8950  -11.1940 C.2     1  UNL1        0.0430
     17  C         17.6720  -22.1540  -10.6170 C.2     1  UNL1        0.1160
     18  F         16.5100  -22.5040  -10.0460 F       1  UNL1       -0.2060
     19  C         18.7280  -23.0600  -10.6300 C.2     1  UNL1        0.0430
     20  C         19.9330  -22.7060  -11.2390 C.2     1  UNL1        0.0120
     21  C         21.4040  -22.8480   -8.0040 C.2     1  UNL1        0.0530
     22  C         20.3400  -22.0970   -7.6910 C.2     1  UNL1        0.0160
     23  C         19.2250  -22.6050   -6.8770 C.2     1  UNL1       -0.0300
     24  C         18.7000  -23.8580   -7.2380 C.2     1  UNL1        0.0120
     25  C         17.6440  -24.4250   -6.5240 C.2     1  UNL1        0.0010
     26  C         17.0970  -23.7440   -5.4420 C.2     1  UNL1        0.0010
     27  C         17.6140  -22.5020   -5.0650 C.2     1  UNL1        0.0070
     28  C         18.6930  -21.9280   -5.7620 C.2     1  UNL1       -0.0520
     29  C         19.2290  -20.6060   -5.2860 C.3     1  UNL1        0.0490
@<TRIPOS>BOND
     1    10     9    2
     2     9     8    1
     3     9    11   am
     4     8     7    1
     5    13    11    1
     6    13    14    1
     7    11    12    1
     8    14    15    2
     9    14    20    1
    10    15    16    1
    11    20    19    2
    12    16    17    2
    13     7     4    1
    14    19    17    1
    15    17    18    1
    16     4     3   ar
    17     4     5   ar
    18     3     2   ar
    19     6     5    1
    20     5     1   ar
    21     2     1   ar
    22     1    21    1
    23    21    22    2
    24    22    23    1
    25    24    23    2
    26    24    25    1
    27    23    28    1
    28    25    26    2
    29    28    29    1
    30    28    27    2
    31    26    27    1
