@<TRIPOS>MOLECULE
65886_out_ligand_01.pdbqt
 35 37 0 0 0
SMALL
GASTEIGER

@<TRIPOS>ATOM
      1  N         19.6730  -22.3010  -10.8770 N.am    1  UNL1       -0.3250
      2  C         18.6450  -21.4640  -11.2790 C.2     1  UNL1        0.2460
      3  O         18.7490  -20.4950  -12.0270 O.2     1  UNL1       -0.2710
      4  H         19.4110  -23.0550  -10.2470 H       1  UNL1        0.1690
      5  C         21.0220  -22.2650  -11.2850 C.2     1  UNL1        0.0360
      6  C         21.4630  -21.6910  -12.4800 C.2     1  UNL1        0.0460
      7  C         22.8200  -21.7310  -12.8290 C.2     1  UNL1        0.0350
      8  C         23.7500  -22.3210  -11.9620 C.2     1  UNL1        0.0340
      9  C         23.3240  -22.8700  -10.7510 C.2     1  UNL1        0.0350
     10  C         21.9600  -22.8470  -10.4280 C.2     1  UNL1        0.0460
     11  C         23.3350  -21.1500  -14.0990 C.2     1  UNL1        0.2490
     12  N         22.6420  -20.1170  -14.6630 N.am    1  UNL1       -0.3660
     13  H         21.7230  -19.8220  -14.3620 H       1  UNL1        0.1590
     14  H         22.9630  -19.7890  -15.5640 H       1  UNL1        0.1590
     15  O         24.3380  -21.6010  -14.6390 O.2     1  UNL1       -0.2680
     16  C         24.2610  -23.5010   -9.7830 C.2     1  UNL1        0.2490
     17  N         25.5890  -23.5340  -10.1080 N.am    1  UNL1       -0.3660
     18  H         26.2200  -23.8730   -9.3930 H       1  UNL1        0.1590
     19  H         25.9910  -22.9900  -10.8570 H       1  UNL1        0.1590
     20  O         23.8690  -23.9510   -8.7120 O.2     1  UNL1       -0.2680
     21  C         17.3070  -21.7970  -10.6070 C.3     1  UNL1        0.2810
     22  O         17.2580  -23.0480   -9.9210 O.3     1  UNL1       -0.3120
     23  C         16.1320  -23.2310   -9.1720 C.2     1  UNL1        0.2630
     24  O         15.0670  -22.6620   -9.3780 O.2     1  UNL1       -0.2650
     25  C         16.4010  -24.1780   -8.0260 C.3     1  UNL1        0.1520
     26  C         16.2700  -23.5000   -6.6820 C.2     1  UNL1       -0.0190
     27  C         15.1180  -23.7260   -5.9060 C.2     1  UNL1        0.0100
     28  C         14.9840  -23.1400   -4.6550 C.2     1  UNL1        0.0020
     29  C         16.0010  -22.3260   -4.1680 C.2     1  UNL1        0.0140
     30  C         17.1570  -22.0990   -4.9310 C.2     1  UNL1       -0.0070
     31  C         18.1840  -21.2770   -4.4500 C.2     1  UNL1        0.0150
     32  C         17.3100  -22.6940   -6.2050 C.2     1  UNL1        0.0730
     33  C         19.3100  -21.0530   -5.2280 C.2     1  UNL1        0.0200
     34  C         19.3730  -21.6670   -6.4620 C.2     1  UNL1        0.1170
     35  N         18.4170  -22.4910   -6.9530 N.2     1  UNL1       -0.2600
@<TRIPOS>BOND
     1    14    12    1
     2    12    13    1
     3    12    11   am
     4    15    11    2
     5    11     7    1
     6     7     6    1
     7     7     8    2
     8     6     5    2
     9     3     2    2
    10     8     9    1
    11     5     1    1
    12     5    10    1
    13     2     1   am
    14     2    21    1
    15     1     4    1
    16    19    17    1
    17     9    10    2
    18     9    16    1
    19    21    22    1
    20    17    16   am
    21    17    18    1
    22    22    23    1
    23    16    20    2
    24    24    23    2
    25    23    25    1
    26    25    26    1
    27    35    34    2
    28    35    32    1
    29    26    32    2
    30    26    27    1
    31    34    33    1
    32    32    30    1
    33    27    28    2
    34    33    31    2
    35    30    31    1
    36    30    29    2
    37    28    29    1
