@<TRIPOS>MOLECULE
65883_out_ligand_01.pdbqt
 27 29 0 0 0
SMALL
GASTEIGER

@<TRIPOS>ATOM
      1  N         19.6200  -22.1650  -10.5320 N.pl3   1  UNL1       -0.3650
      2  C         19.1660  -21.3180  -11.6470 C.3     1  UNL1        0.1240
      3  C         17.6360  -21.2550  -11.7240 C.3     1  UNL1        0.0210
      4  C         16.9970  -21.3630  -10.3450 C.3     1  UNL1        0.0120
      5  C         17.3640  -22.7020   -9.6700 C.3     1  UNL1        0.0370
      6  C         18.7180  -23.2660  -10.1740 C.3     1  UNL1        0.1330
      7  C         20.9950  -22.4080  -10.5050 C.2     1  UNL1        0.1250
      8  C         21.6460  -22.7350   -9.3120 C.2     1  UNL1        0.0510
      9  C         23.0270  -22.9530   -9.2940 C.2     1  UNL1        0.0220
     10  C         23.7520  -22.8370  -10.4740 C.2     1  UNL1        0.0490
     11  C         23.0540  -22.4680  -11.6080 C.2     1  UNL1        0.1360
     12  N         21.7130  -22.2590  -11.6430 N.2     1  UNL1       -0.2420
     13  C         25.2130  -23.0620  -10.4650 C.2     1  UNL1        0.2500
     14  N         25.7060  -24.0550   -9.6640 N.am    1  UNL1       -0.3660
     15  H         25.1810  -24.4560   -8.9000 H       1  UNL1        0.1590
     16  H         26.7160  -24.0970   -9.5940 H       1  UNL1        0.1590
     17  O         25.9700  -22.3610  -11.1270 O.2     1  UNL1       -0.2680
     18  C         17.2960  -22.5800   -8.1540 C.2     1  UNL1       -0.0520
     19  C         18.4590  -22.4590   -7.3780 C.2     1  UNL1        0.0070
     20  C         18.3830  -22.3460   -5.9900 C.2     1  UNL1        0.0010
     21  C         17.1420  -22.3510   -5.3560 C.2     1  UNL1        0.0160
     22  C         15.9630  -22.4720   -6.1040 C.2     1  UNL1        0.0480
     23  C         16.0520  -22.5770   -7.5030 C.2     1  UNL1        0.0230
     24  C         14.6160  -22.4500   -5.4240 C.3     1  UNL1        0.4170
     25  F         13.7130  -21.6420   -6.0470 F       1  UNL1       -0.1660
     26  F         14.0420  -23.6840   -5.3720 F       1  UNL1       -0.1660
     27  F         14.6770  -22.0120   -4.1350 F       1  UNL1       -0.1660
@<TRIPOS>BOND
     1     3     2    1
     2     3     4    1
     3     2     1    1
     4    12    11    1
     5    12     7    2
     6    11    10    2
     7    17    13    2
     8     1     7    1
     9     1     6    1
    10     7     8    1
    11    10    13    1
    12    10     9    1
    13    13    14   am
    14     4     5    1
    15     6     5    1
    16     5    18    1
    17    14    16    1
    18    14    15    1
    19     8     9    2
    20    18    23    2
    21    18    19    1
    22    23    22    1
    23    19    20    2
    24    22    24    1
    25    22    21    2
    26    25    24    1
    27    20    21    1
    28    24    26    1
    29    24    27    1
