@<TRIPOS>MOLECULE
65887_out_ligand_01.pdbqt
 29 32 0 0 0
SMALL
GASTEIGER

@<TRIPOS>ATOM
      1  N         16.6400  -23.1150   -5.0560 N.ar    1  UNL1       -0.2830
      2  C         16.7370  -22.1260   -4.0990 C.ar    1  UNL1        0.3310
      3  O         15.9620  -22.0050   -3.1530 O.2     1  UNL1       -0.2460
      4  N         17.7730  -21.2450   -4.2340 N.ar    1  UNL1       -0.2740
      5  C         18.7670  -21.2920   -5.1710 C.ar    1  UNL1        0.2630
      6  O         19.7050  -20.5060   -5.1730 O.2     1  UNL1       -0.2670
      7  C         18.6600  -22.3590   -6.1670 C.ar    1  UNL1        0.0790
      8  C         19.6130  -22.4930   -7.1800 C.2     1  UNL1        0.0390
      9  C         19.4790  -23.5430   -8.0810 C.2     1  UNL1        0.0510
     10  C         18.3830  -24.3840   -7.9610 C.2     1  UNL1        0.1360
     11  N         17.4570  -24.2700   -6.9770 N.2     1  UNL1       -0.2410
     12  C         17.5980  -23.2540   -6.0870 C.ar    1  UNL1        0.1490
     13  H         17.8430  -20.5300   -3.5240 H       1  UNL1        0.1730
     14  C         20.4360  -23.7090   -9.1910 C.2     1  UNL1        0.2590
     15  O         21.1140  -24.7310   -9.1360 O.2     1  UNL1       -0.2670
     16  N         20.4820  -22.7150  -10.1840 N.am    1  UNL1       -0.3130
     17  C         19.3440  -21.8060  -10.3940 C.3     1  UNL1        0.1330
     18  C         21.6180  -22.5460  -11.0600 C.2     1  UNL1        0.0430
     19  C         19.0830  -21.5220  -11.8610 C.3     1  UNL1        0.0250
     20  C         20.3060  -20.8620  -12.4610 C.3     1  UNL1        0.0420
     21  C         21.5500  -21.6520  -12.1510 C.2     1  UNL1       -0.0310
     22  C         22.6730  -21.4480  -12.9780 C.2     1  UNL1        0.0160
     23  C         23.8720  -22.1230  -12.7480 C.2     1  UNL1       -0.0610
     24  C         25.0470  -21.9320  -13.6600 C.3     1  UNL1        0.0480
     25  C         23.9360  -23.0210  -11.6850 C.2     1  UNL1        0.0090
     26  C         22.8300  -23.2190  -10.8500 C.2     1  UNL1        0.0310
     27  C         15.5570  -24.0920   -4.9660 C.3     1  UNL1        0.1350
     28  C         14.3320  -23.6640   -5.7770 C.3     1  UNL1        0.0160
     29  C         14.1880  -22.1530   -5.8110 C.3     1  UNL1        0.0060
@<TRIPOS>BOND
     1    24    23    1
     2    22    23    2
     3    22    21    1
     4    23    25    1
     5    20    21    1
     6    20    19    1
     7    21    18    2
     8    19    17    1
     9    25    26    2
    10    18    26    1
    11    18    16    1
    12    17    16    1
    13    16    14   am
    14    14    15    2
    15    14     9    1
    16     9    10    2
    17     9     8    1
    18    10    11    1
    19     8     7    2
    20    11    12    2
    21     7    12   ar
    22     7     5   ar
    23    12     1   ar
    24    29    28    1
    25    28    27    1
    26     6     5    2
    27     5     4   ar
    28     1    27    1
    29     1     2   ar
    30     4     2   ar
    31     4    13    1
    32     2     3    2
