@<TRIPOS>MOLECULE
65882_out_ligand_01.pdbqt
 31 34 0 0 0
SMALL
GASTEIGER

@<TRIPOS>ATOM
      1  S         25.9890  -21.7370  -12.5640 S.3     1  UNL1       -0.0760
      2  C         25.6320  -22.9560  -11.2580 C.3     1  UNL1        0.1430
      3  C         26.8740  -23.5030  -10.5720 C.3     1  UNL1        0.0310
      4  C         24.5260  -22.4800  -10.3020 C.2     1  UNL1        0.2360
      5  O         24.4510  -21.2880  -10.0180 O.2     1  UNL1       -0.2720
      6  N         23.6760  -23.4710   -9.8560 N.am    1  UNL1       -0.3260
      7  H         23.9420  -24.4330  -10.0750 H       1  UNL1        0.1690
      8  C         22.5170  -23.3390   -9.0660 C.2     1  UNL1        0.0370
      9  C         21.6020  -24.4150   -9.1160 C.2     1  UNL1        0.0320
     10  C         20.3910  -24.3770   -8.4140 C.2     1  UNL1        0.0420
     11  C         20.1370  -23.2580   -7.6530 C.2     1  UNL1        0.1050
     12  C         21.0340  -22.2200   -7.5760 C.2     1  UNL1        0.1070
     13  O         19.0190  -23.0430   -6.9110 O.2     1  UNL1       -0.3230
     14  C         22.2260  -22.2240   -8.2770 C.2     1  UNL1        0.0690
     15  O         20.5970  -21.2260   -6.7540 O.2     1  UNL1       -0.3230
     16  C         19.3280  -21.7630   -6.3230 C.3     1  UNL1        0.3520
     17  C         24.4490  -21.4140  -13.2460 C.ar    1  UNL1        0.1900
     18  N         24.1520  -20.8370  -14.3800 N.ar    1  UNL1       -0.1220
     19  N         22.7810  -20.7040  -14.4180 N.ar    1  UNL1       -0.1300
     20  C         22.2740  -21.2480  -13.3240 C.ar    1  UNL1        0.1510
     21  N         23.3140  -21.7310  -12.5710 N.ar    1  UNL1       -0.3170
     22  H         23.2750  -22.1820  -11.6700 H       1  UNL1        0.1690
     23  C         20.9230  -21.3440  -12.9120 C.2     1  UNL1        0.0530
     24  C         20.5220  -21.5140  -11.6430 C.2     1  UNL1        0.0150
     25  C         19.1060  -21.6370  -11.2510 C.2     1  UNL1       -0.0360
     26  C         18.1710  -20.6180  -11.4760 C.2     1  UNL1        0.0140
     27  C         16.8440  -20.7710  -11.0750 C.2     1  UNL1        0.0430
     28  C         16.4530  -21.9360  -10.4330 C.2     1  UNL1        0.1160
     29  F         15.1790  -22.0830  -10.0480 F       1  UNL1       -0.2060
     30  C         17.3640  -22.9520  -10.1840 C.2     1  UNL1        0.0430
     31  C         18.6920  -22.8010  -10.5860 C.2     1  UNL1        0.0140
@<TRIPOS>BOND
     1    19    18   ar
     2    19    20   ar
     3    18    17   ar
     4    20    23    1
     5    20    21   ar
     6    17    21   ar
     7    17     1    1
     8    23    24    2
     9    21    22    1
    10     1     2    1
    11    24    25    1
    12    26    25    2
    13    26    27    1
    14     2     3    1
    15     2     4    1
    16    25    31    1
    17    27    28    2
    18    31    30    2
    19    28    30    1
    20    28    29    1
    21     4     5    2
    22     4     6   am
    23     7     6    1
    24     6     8    1
    25     9     8    2
    26     9    10    1
    27     8    14    1
    28    10    11    2
    29    14    12    2
    30    11    12    1
    31    11    13    1
    32    12    15    1
    33    13    16    1
    34    15    16    1
