@<TRIPOS>MOLECULE
65896_out_ligand_01.pdbqt
 35 37 0 0 0
SMALL
GASTEIGER

@<TRIPOS>ATOM
      1  C         17.4010  -22.6090   -9.3750 C.2     1  UNL1        0.0750
      2  C         16.8880  -21.6540  -10.2570 C.2     1  UNL1        0.0250
      3  C         17.7050  -21.1360  -11.2610 C.2     1  UNL1        0.0030
      4  C         19.0280  -21.5720  -11.3830 C.2     1  UNL1        0.0170
      5  C         19.5400  -22.5360  -10.5020 C.2     1  UNL1        0.0330
      6  C         18.7240  -23.0480   -9.4850 C.2     1  UNL1        0.0410
      7  C         20.9500  -23.0100  -10.5800 C.2     1  UNL1        0.2520
      8  O         21.3400  -23.8920   -9.8260 O.2     1  UNL1       -0.2680
      9  N         21.7470  -22.4300  -11.5490 N.am    1  UNL1       -0.3520
     10  H         21.2960  -21.9290  -12.3030 H       1  UNL1        0.1630
     11  C         23.1160  -22.8920  -11.7670 C.3     1  UNL1        0.0880
     12  C         23.7200  -22.2340  -13.0150 C.3     1  UNL1        0.0550
     13  C         25.2440  -22.2950  -12.9590 C.3     1  UNL1        0.2750
     14  N         25.8020  -21.5240  -11.8260 N.3     1  UNL1        0.0970
     15  C         24.8850  -21.4460  -10.6760 C.3     1  UNL1        0.2750
     16  C         23.9840  -22.6700  -10.5220 C.3     1  UNL1        0.0550
     17  C         27.1210  -22.0770  -11.4170 C.3     1  UNL1        0.3740
     18  C         27.0280  -23.5780  -11.1310 C.2     1  UNL1        0.2430
     19  N         27.1180  -23.9160   -9.8090 N.am    1  UNL1       -0.3690
     20  H         27.5880  -23.2550   -9.2000 H       1  UNL1        0.1590
     21  H         27.1980  -24.9020   -9.6000 H       1  UNL1        0.1590
     22  O         26.8440  -24.4260  -11.9990 O.2     1  UNL1       -0.2720
     23  S         16.3610  -23.2360   -8.0760 S.O2    1  UNL1        0.2460
     24  O         15.6100  -24.3450   -8.6260 O.2     1  UNL1       -0.2060
     25  O         15.7080  -22.1070   -7.4470 O.2     1  UNL1       -0.2060
     26  N         17.5430  -23.8230   -6.9980 N.pl3   1  UNL1       -0.1790
     27  H         18.4030  -23.9810   -7.5330 H       1  UNL1        0.1460
     28  C         17.8490  -22.9080   -5.9280 C.2     1  UNL1        0.0560
     29  C         18.7080  -21.8310   -6.1320 C.2     1  UNL1        0.0270
     30  C         19.0170  -20.9830   -5.0680 C.2     1  UNL1        0.0020
     31  C         18.4650  -21.2110   -3.8050 C.2     1  UNL1        0.0030
     32  C         17.6120  -22.2960   -3.5960 C.2     1  UNL1        0.0380
     33  C         17.3230  -23.1570   -4.6530 C.2     1  UNL1        0.0900
     34  O         16.4800  -24.2330   -4.5160 O.2     1  UNL1       -0.3540
     35  C         15.1130  -23.8300   -4.4020 C.3     1  UNL1        0.2100
@<TRIPOS>BOND
     1    12    13    1
     2    12    11    1
     3    13    14    1
     4    10     9    1
     5    22    18    2
     6    14    17    1
     7    14    15    1
     8    11     9    1
     9    11    16    1
    10     9     7   am
    11    17    18    1
    12     4     3    2
    13     4     5    1
    14     3     2    1
    15    18    19   am
    16    15    16    1
    17     7     5    1
    18     7     8    2
    19     5     6    2
    20     2     1    2
    21    19    21    1
    22    19    20    1
    23     6     1    1
    24     1    23    1
    25    24    23    2
    26    23    25    2
    27    23    26    1
    28    27    26    1
    29    26    28    1
    30    29    28    2
    31    29    30    1
    32    28    33    1
    33    30    31    2
    34    33    34    1
    35    33    32    2
    36    34    35    1
    37    31    32    1
