@<TRIPOS>MOLECULE
65891_out_ligand_01.pdbqt
 28 31 0 0 0
SMALL
GASTEIGER

@<TRIPOS>ATOM
      1  C         22.2700  -22.3100   -9.7760 C.2     1  UNL1        0.0320
      2  C         21.1240  -22.5560  -10.5360 C.2     1  UNL1        0.0190
      3  C         19.8780  -22.7130   -9.9140 C.2     1  UNL1        0.0240
      4  C         19.7440  -22.6290   -8.5210 C.2     1  UNL1        0.0110
      5  C         20.9130  -22.4040   -7.7730 C.2     1  UNL1        0.0240
      6  C         22.1630  -22.2480   -8.3850 C.2     1  UNL1        0.0190
      7  C         23.5720  -22.1530  -10.4840 C.2     1  UNL1        0.2510
      8  O         24.2560  -21.1520  -10.2990 O.2     1  UNL1       -0.2680
      9  N         23.9540  -23.1940  -11.3040 N.am    1  UNL1       -0.3530
     10  H         23.4670  -24.0770  -11.2370 H       1  UNL1        0.1630
     11  C         25.2490  -23.2150  -11.9470 C.3     1  UNL1        0.1640
     12  C         25.1120  -23.2690  -13.4430 C.2     1  UNL1       -0.0020
     13  C         25.3620  -24.4580  -14.1440 C.2     1  UNL1        0.0120
     14  C         25.2170  -24.5060  -15.5320 C.2     1  UNL1        0.0010
     15  C         24.8160  -23.3690  -16.2350 C.2     1  UNL1        0.0030
     16  C         24.5560  -22.1850  -15.5470 C.2     1  UNL1        0.0430
     17  C         24.7010  -22.1460  -14.1630 C.2     1  UNL1        0.1240
     18  F         24.4320  -21.0010  -13.5190 F       1  UNL1       -0.2050
     19  N         18.5190  -22.7820   -7.8480 N.pl3   1  UNL1       -0.2790
     20  C         17.2960  -22.3760   -8.5530 C.3     1  UNL1        0.1000
     21  C         16.0840  -23.0250   -7.8800 C.3     1  UNL1        0.0540
     22  C         16.0580  -22.7490   -6.3990 C.2     1  UNL1       -0.0500
     23  C         14.8540  -22.8520   -5.6870 C.2     1  UNL1        0.0070
     24  C         17.2510  -22.4460   -5.7200 C.2     1  UNL1       -0.0380
     25  C         14.8290  -22.6270   -4.3110 C.2     1  UNL1        0.0010
     26  C         16.0030  -22.3050   -3.6360 C.2     1  UNL1        0.0010
     27  C         17.2070  -22.2150   -4.3350 C.2     1  UNL1        0.0090
     28  C         18.5810  -22.3250   -6.4440 C.3     1  UNL1        0.1340
@<TRIPOS>BOND
     1    15    16    2
     2    15    14    1
     3    16    17    1
     4    14    13    2
     5    17    18    1
     6    17    12    2
     7    13    12    1
     8    12    11    1
     9    11     9    1
    10     9    10    1
    11     9     7   am
    12     2     3    1
    13     2     1    2
    14     7     8    2
    15     7     1    1
    16     3     4    2
    17     1     6    1
    18    20    21    1
    19    20    19    1
    20     4    19    1
    21     4     5    1
    22     6     5    2
    23    21    22    1
    24    19    28    1
    25    28    24    1
    26    22    24    2
    27    22    23    1
    28    24    27    1
    29    23    25    2
    30    27    26    2
    31    25    26    1
