@<TRIPOS>MOLECULE
65902_out_ligand_01.pdbqt
 36 39 0 0 0
SMALL
GASTEIGER

@<TRIPOS>ATOM
      1  C         17.4050  -22.3730   -9.3650 C.2     1  UNL1        0.0770
      2  C         16.6460  -21.7830  -10.3790 C.2     1  UNL1        0.0250
      3  C         17.2960  -21.1700  -11.4460 C.2     1  UNL1        0.0040
      4  C         18.6920  -21.1500  -11.4930 C.2     1  UNL1        0.0290
      5  C         19.4590  -21.7360  -10.4740 C.2     1  UNL1        0.0360
      6  C         18.8060  -22.3340   -9.3970 C.2     1  UNL1        0.0540
      7  N         20.8610  -21.6790  -10.6170 N.am    1  UNL1       -0.3270
      8  C         21.7760  -22.7020  -10.4210 C.2     1  UNL1        0.2310
      9  O         21.5100  -23.8530  -10.0840 O.2     1  UNL1       -0.2720
     10  H         21.2370  -20.7740  -10.8740 H       1  UNL1        0.1690
     11  C         23.2270  -22.3100  -10.7080 C.3     1  UNL1        0.1220
     12  C         24.1340  -23.4150  -10.1710 C.3     1  UNL1        0.1220
     13  C         25.5670  -23.2570  -10.5990 C.2     1  UNL1        0.2230
     14  O         26.5040  -23.6500   -9.9080 O.2     1  UNL1       -0.2730
     15  N         25.7820  -22.7670  -11.8560 N.am    1  UNL1       -0.3270
     16  C         24.7950  -22.2130  -12.6740 C.2     1  UNL1        0.0440
     17  H         26.7470  -22.7840  -12.1670 H       1  UNL1        0.1690
     18  C         25.1240  -21.8490  -13.9780 C.2     1  UNL1        0.0720
     19  C         23.5090  -21.9880  -12.1650 C.2     1  UNL1       -0.0180
     20  C         24.1570  -21.2570  -14.7810 C.2     1  UNL1        0.1180
     21  F         24.4650  -20.9120  -16.0370 F       1  UNL1       -0.2060
     22  C         22.8800  -21.0050  -14.2970 C.2     1  UNL1        0.0430
     23  C         22.5580  -21.3550  -12.9850 C.2     1  UNL1        0.0130
     24  S         16.5770  -23.1430   -7.9890 S.O2    1  UNL1        0.2460
     25  O         16.0440  -24.4040   -8.4630 O.2     1  UNL1       -0.2060
     26  O         15.7130  -22.1580   -7.3770 O.2     1  UNL1       -0.2060
     27  N         17.8390  -23.5340   -6.9310 N.pl3   1  UNL1       -0.1790
     28  H         18.6990  -23.6970   -7.4550 H       1  UNL1        0.1460
     29  C         18.0320  -22.7000   -5.7820 C.2     1  UNL1        0.0560
     30  C         18.8450  -21.5700   -5.8590 C.2     1  UNL1        0.0270
     31  C         19.0690  -20.8010   -4.7190 C.2     1  UNL1        0.0020
     32  C         18.4750  -21.1590   -3.5090 C.2     1  UNL1        0.0030
     33  C         17.6560  -22.2900   -3.4300 C.2     1  UNL1        0.0380
     34  C         17.4320  -23.0720   -4.5640 C.2     1  UNL1        0.0900
     35  O         16.6630  -24.2100   -4.6090 O.2     1  UNL1       -0.3540
     36  C         15.2630  -24.0450   -4.4160 C.3     1  UNL1        0.2100
@<TRIPOS>BOND
     1    21    20    1
     2    20    22    2
     3    20    18    1
     4    22    23    1
     5    18    16    2
     6    23    19    2
     7    16    19    1
     8    16    15    1
     9    17    15    1
    10    19    11    1
    11    15    13   am
    12     4     3    2
    13     4     5    1
    14     3     2    1
    15    10     7    1
    16    11     8    1
    17    11    12    1
    18     7     5    1
    19     7     8   am
    20    13    12    1
    21    13    14    2
    22     5     6    2
    23     8     9    2
    24     2     1    2
    25     6     1    1
    26     1    24    1
    27    25    24    2
    28    24    26    2
    29    24    27    1
    30    28    27    1
    31    27    29    1
    32    30    29    2
    33    30    31    1
    34    29    34    1
    35    31    32    2
    36    35    34    1
    37    35    36    1
    38    34    33    2
    39    32    33    1
