@<TRIPOS>MOLECULE
65936_out_ligand_01.pdbqt
 39 42 0 0 0
SMALL
GASTEIGER

@<TRIPOS>ATOM
      1  C         21.4380  -22.1010  -12.0010 C.3     1  UNL1        0.0510
      2  C         22.6230  -22.5850  -11.2130 C.ar    1  UNL1       -0.0180
      3  C         23.9410  -22.8100  -11.7390 C.ar    1  UNL1        0.0020
      4  C         24.5230  -22.6810  -13.0160 C.2     1  UNL1        0.0560
      5  C         24.7470  -23.2430  -10.6870 C.ar    1  UNL1        0.0430
      6  C         25.8720  -22.9930  -13.1780 C.2     1  UNL1        0.1170
      7  C         26.6550  -23.4250  -12.1160 C.2     1  UNL1        0.0440
      8  F         26.4290  -22.8720  -14.3920 F       1  UNL1       -0.2060
      9  C         26.1030  -23.5590  -10.8400 C.2     1  UNL1        0.0330
     10  N         23.9540  -23.2800   -9.5670 N.ar    1  UNL1       -0.3540
     11  C         22.6690  -22.8810   -9.8550 C.ar    1  UNL1        0.0500
     12  H         24.2690  -23.5690   -8.6510 H       1  UNL1        0.1660
     13  C         21.6460  -22.8130   -8.8170 C.2     1  UNL1       -0.0090
     14  C         21.6610  -21.7720   -7.8840 C.2     1  UNL1        0.0160
     15  C         20.6700  -21.6920   -6.9030 C.2     1  UNL1        0.0370
     16  C         19.6500  -22.6440   -6.8410 C.2     1  UNL1        0.0680
     17  C         19.6400  -23.6920   -7.7610 C.2     1  UNL1        0.0370
     18  C         20.6330  -23.7750   -8.7450 C.2     1  UNL1        0.0160
     19  O         18.7430  -22.4420   -5.8400 O.2     1  UNL1       -0.3560
     20  C         18.7850  -21.1810   -5.1810 C.3     1  UNL1        0.2100
     21  C         20.7010  -20.9500  -11.3200 C.3     1  UNL1        0.1070
     22  C         19.2090  -21.0300  -11.5550 C.2     1  UNL1        0.2170
     23  O         18.6560  -20.6190  -12.5690 O.2     1  UNL1       -0.2740
     24  N         18.5220  -21.5790  -10.4940 N.am    1  UNL1       -0.3610
     25  H         19.0410  -22.0260   -9.7480 H       1  UNL1        0.1620
     26  C         17.0780  -21.7040  -10.4970 C.3     1  UNL1        0.1270
     27  C         16.5690  -23.0970  -10.1120 C.3     1  UNL1        0.0580
     28  C         16.2420  -23.2390   -8.6430 C.2     1  UNL1       -0.0570
     29  C         16.3980  -24.4760   -7.9970 C.2     1  UNL1        0.0090
     30  C         16.1200  -24.6020   -6.6370 C.2     1  UNL1        0.0250
     31  C         15.6900  -23.4850   -5.9160 C.2     1  UNL1        0.0740
     32  C         15.5020  -22.2550   -6.5500 C.2     1  UNL1        0.0250
     33  C         15.7810  -22.1350   -7.9110 C.2     1  UNL1        0.0090
     34  S         15.3700  -23.6310   -4.1790 S.O2    1  UNL1        0.2390
     35  O         14.5860  -24.8240   -3.9550 O.2     1  UNL1       -0.2060
     36  O         14.9830  -22.3370   -3.6700 O.2     1  UNL1       -0.2060
     37  N         16.9080  -23.9780   -3.5860 N.3     1  UNL1       -0.2250
     38  H         17.1240  -23.4880   -2.7160 H       1  UNL1        0.1360
     39  H         17.5950  -23.7820   -4.3160 H       1  UNL1        0.1360
@<TRIPOS>BOND
     1     8     6    1
     2     6     4    1
     3     6     7    2
     4     4     3    2
     5    23    22    2
     6     7     9    1
     7     1    21    1
     8     1     2    1
     9     3     2   ar
    10     3     5   ar
    11    22    21    1
    12    22    24   am
    13     2    11   ar
    14     9     5    2
    15     5    10   ar
    16    26    24    1
    17    26    27    1
    18    24    25    1
    19    27    28    1
    20    11    10   ar
    21    11    13    1
    22    10    12    1
    23    13    18    2
    24    13    14    1
    25    18    17    1
    26    28    29    2
    27    28    33    1
    28    29    30    1
    29    33    32    2
    30    14    15    2
    31    17    16    2
    32    15    16    1
    33    16    19    1
    34    30    31    2
    35    32    31    1
    36    31    34    1
    37    19    20    1
    38    39    37    1
    39    34    35    2
    40    34    36    2
    41    34    37    1
    42    37    38    1
