@<TRIPOS>MOLECULE
65947_out_ligand_01.pdbqt
 28 31 0 0 0
SMALL
GASTEIGER

@<TRIPOS>ATOM
      1  O         23.5700  -21.7050  -13.4590 O.2     1  UNL1       -0.2670
      2  C         23.6220  -22.0910  -12.2980 C.2     1  UNL1        0.2590
      3  N         24.8010  -22.4500  -11.6970 N.am    1  UNL1       -0.3170
      4  C         24.8590  -22.9600  -10.4320 C.2     1  UNL1        0.2100
      5  N         23.8320  -23.1150   -9.6680 N.2     1  UNL1       -0.2430
      6  C         22.5800  -22.7150  -10.1680 C.2     1  UNL1        0.0750
      7  C         21.4570  -22.8210   -9.3350 C.2     1  UNL1        0.0580
      8  C         20.1650  -22.4460   -9.7560 C.2     1  UNL1        0.0440
      9  C         20.0610  -21.9060  -11.0640 C.2     1  UNL1        0.1250
     10  C         21.1710  -21.7930  -11.9180 C.2     1  UNL1        0.0570
     11  C         22.4190  -22.2040  -11.4550 C.2     1  UNL1        0.0630
     12  H         25.6350  -22.3710  -12.2620 H       1  UNL1        0.1690
     13  N         19.0750  -22.4690   -8.8700 N.pl3   1  UNL1       -0.2900
     14  H         18.1990  -22.2430   -9.3610 H       1  UNL1        0.1270
     15  C         18.8960  -23.5850   -7.9350 C.3     1  UNL1        0.1060
     16  C         17.6060  -23.4390   -7.0810 C.3     1  UNL1       -0.0010
     17  C         16.4230  -22.8050   -7.8970 C.3     1  UNL1        0.0150
     18  C         15.9660  -24.2250   -8.2660 C.3     1  UNL1        0.0020
     19  C         16.7200  -24.7330   -7.0270 C.3     1  UNL1        0.0150
     20  C         17.9530  -22.7160   -5.6840 C.2     1  UNL1       -0.0480
     21  C         17.5970  -23.2900   -4.4440 C.2     1  UNL1        0.0080
     22  C         17.8630  -22.6550   -3.2290 C.2     1  UNL1        0.0010
     23  C         18.5020  -21.4220   -3.2170 C.2     1  UNL1        0.0000
     24  C         18.8760  -20.8300   -4.4150 C.2     1  UNL1        0.0010
     25  C         18.6050  -21.4700   -5.6260 C.2     1  UNL1        0.0080
     26  N         18.7740  -21.4410  -11.5860 N.pl3   1  UNL1       -0.1140
     27  O         18.7460  -20.3200  -12.1160 O.2     1  UNL1       -0.5320
     28  O         17.7970  -22.1990  -11.4950 O.2     1  UNL1       -0.5320
@<TRIPOS>BOND
     1     1     2    2
     2     2     3   am
     3     2    11    1
     4    12     3    1
     5    27    26    2
     6    10    11    1
     7    10     9    2
     8     3     4    1
     9    26    28    2
    10    26     9    1
    11    11     6    2
    12     9     8    1
    13     4     5    2
    14     6     5    1
    15     6     7    1
    16     8     7    2
    17     8    13    1
    18    14    13    1
    19    13    15    1
    20    18    17    1
    21    18    19    1
    22    15    16    1
    23    17    16    1
    24    16    19    1
    25    16    20    1
    26    20    25    2
    27    20    21    1
    28    25    24    1
    29    21    22    2
    30    24    23    2
    31    22    23    1
