@<TRIPOS>MOLECULE
65955_out_ligand_01.pdbqt
 33 35 0 0 0
SMALL
GASTEIGER

@<TRIPOS>ATOM
      1  N         20.4060  -22.4800   -8.1160 N.am    1  UNL1       -0.3570
      2  C         19.6700  -23.6190   -8.3450 C.2     1  UNL1        0.2520
      3  O         20.1190  -24.7540   -8.3780 O.2     1  UNL1       -0.2680
      4  H         19.9730  -21.5730   -8.3000 H       1  UNL1        0.1620
      5  C         18.2290  -23.3950   -8.5710 C.2     1  UNL1        0.0400
      6  C         17.8630  -22.8290   -9.8010 C.2     1  UNL1        0.0170
      7  C         16.5200  -22.5810  -10.0800 C.2     1  UNL1        0.0010
      8  C         15.5470  -22.8830   -9.1280 C.2     1  UNL1        0.0010
      9  C         15.9140  -23.4300   -7.8950 C.2     1  UNL1        0.0100
     10  C         17.2620  -23.7010   -7.5960 C.2     1  UNL1       -0.0240
     11  C         17.6230  -24.2690   -6.2410 C.3     1  UNL1        0.1760
     12  N         17.2890  -23.3650   -5.1610 N.am    1  UNL1       -0.2640
     13  C         16.2790  -23.5570   -4.2640 C.2     1  UNL1        0.2450
     14  O         15.5070  -24.5040   -4.2150 O.2     1  UNL1       -0.2710
     15  C         16.2580  -22.3790   -3.2990 C.3     1  UNL1        0.2270
     16  N         17.3440  -21.5970   -3.8140 N.am    1  UNL1       -0.3340
     17  C         17.9440  -22.1980   -4.8980 C.2     1  UNL1        0.3250
     18  H         17.6810  -20.7230   -3.4340 H       1  UNL1        0.1640
     19  O         18.9020  -21.7390   -5.4970 O.2     1  UNL1       -0.2470
     20  C         21.8500  -22.5290   -8.0240 C.3     1  UNL1        0.1270
     21  C         22.4770  -23.5350   -8.9950 C.3     1  UNL1        0.0580
     22  C         22.8310  -22.9270  -10.3340 C.2     1  UNL1       -0.0570
     23  C         21.8290  -22.4030  -11.1650 C.2     1  UNL1        0.0090
     24  C         22.1560  -21.8300  -12.3950 C.2     1  UNL1        0.0250
     25  C         23.4910  -21.7780  -12.7940 C.2     1  UNL1        0.0740
     26  C         24.5020  -22.2800  -11.9720 C.2     1  UNL1        0.0250
     27  C         24.1690  -22.8580  -10.7470 C.2     1  UNL1        0.0090
     28  S         23.9210  -21.0450  -14.3510 S.O2    1  UNL1        0.2390
     29  O         25.0730  -20.1950  -14.1620 O.2     1  UNL1       -0.2060
     30  O         23.8650  -22.0700  -15.3670 O.2     1  UNL1       -0.2060
     31  N         22.5920  -20.0470  -14.6320 N.3     1  UNL1       -0.2250
     32  H         21.8130  -20.6210  -14.9660 H       1  UNL1        0.1360
     33  H         22.3390  -19.4800  -13.8230 H       1  UNL1        0.1360
@<TRIPOS>BOND
     1    30    28    2
     2    32    31    1
     3    31    28    1
     4    31    33    1
     5    28    29    2
     6    28    25    1
     7    25    24    2
     8    25    26    1
     9    24    23    1
    10    26    27    2
    11    23    22    2
    12    27    22    1
    13    22    21    1
    14     7     6    1
    15     7     8    2
    16     6     5    2
    17     8     9    1
    18    21    20    1
    19     5     2    1
    20     5    10    1
    21     3     2    2
    22     2     1   am
    23     4     1    1
    24     1    20    1
    25     9    10    2
    26    10    11    1
    27    11    12    1
    28    19    17    2
    29    12    17   am
    30    12    13   am
    31    17    16   am
    32    13    14    2
    33    13    15    1
    34    16    18    1
    35    16    15    1
