@<TRIPOS>MOLECULE
65960_out_ligand_01.pdbqt
 33 37 0 0 0
SMALL
GASTEIGER

@<TRIPOS>ATOM
      1  C         17.6600  -22.1600   -5.3560 C.2     1  UNL1        0.1000
      2  C         17.5160  -21.8210   -6.6510 C.2     1  UNL1        0.0340
      3  C         16.7720  -22.6470   -7.5920 C.2     1  UNL1       -0.0120
      4  C         16.2020  -23.7860   -7.1550 C.2     1  UNL1        0.0200
      5  N         16.3370  -24.1510   -5.8350 N.am    1  UNL1       -0.3260
      6  C         17.0250  -23.4270   -4.8890 C.2     1  UNL1        0.2610
      7  O         17.1030  -23.8170   -3.7260 O.2     1  UNL1       -0.2670
      8  C         15.4090  -24.7090   -8.0410 C.3     1  UNL1        0.0580
      9  C         15.5830  -24.4090   -9.5300 C.3     1  UNL1        0.0080
     10  C         15.5500  -22.9070   -9.8020 C.3     1  UNL1        0.0300
     11  C         16.6480  -22.1600   -9.0210 C.3     1  UNL1        0.1200
     12  H         15.9100  -25.0070   -5.4990 H       1  UNL1        0.1690
     13  N         17.9480  -22.3190   -9.6520 N.am    1  UNL1       -0.3480
     14  C         18.3240  -21.5490  -10.7300 C.2     1  UNL1        0.2530
     15  O         17.6040  -20.7080  -11.2550 O.2     1  UNL1       -0.2680
     16  H         18.6380  -22.9180   -9.2140 H       1  UNL1        0.1630
     17  C         19.7170  -21.7360  -11.1950 C.2     1  UNL1        0.0430
     18  C         20.0650  -21.1260  -12.4230 C.2     1  UNL1        0.0180
     19  C         21.3710  -21.2030  -12.9230 C.2     1  UNL1        0.0090
     20  C         22.3190  -21.8970  -12.1910 C.2     1  UNL1       -0.0460
     21  C         21.9600  -22.5010  -11.0110 C.2     1  UNL1       -0.0120
     22  C         23.7680  -22.1260  -12.5080 C.2     1  UNL1        0.0440
     23  C         23.0420  -23.1460  -10.4660 C.2     1  UNL1       -0.0460
     24  C         20.6780  -22.4760  -10.4540 C.2     1  UNL1       -0.0090
     25  C         22.8960  -23.8440   -9.2800 C.2     1  UNL1        0.0080
     26  C         24.2690  -22.9740  -11.3110 C.2     1  UNL1        0.0440
     27  C         21.6330  -23.8800   -8.6740 C.2     1  UNL1        0.0010
     28  C         20.5340  -23.2130   -9.2510 C.2     1  UNL1        0.0130
     29  C         18.4440  -21.2520   -4.4760 C.2     1  UNL1        0.2540
     30  N         18.1350  -21.2730   -3.1530 N.am    1  UNL1       -0.3660
     31  H         18.6490  -20.6750   -2.5220 H       1  UNL1        0.1590
     32  H         17.4140  -21.8870   -2.7800 H       1  UNL1        0.1590
     33  O         19.3300  -20.5150   -4.8970 O.2     1  UNL1       -0.2680
@<TRIPOS>BOND
     1    19    18    1
     2    19    20    2
     3    22    20    1
     4    22    26    2
     5    18    17    2
     6    20    21    1
     7    26    23    1
     8    15    14    2
     9    17    14    1
    10    17    24    1
    11    21    23    2
    12    21    24    1
    13    14    13   am
    14    23    25    1
    15    24    28    2
    16    10     9    1
    17    10    11    1
    18    13    16    1
    19    13    11    1
    20     9     8    1
    21    25    27    2
    22    28    27    1
    23    11     3    1
    24     8     4    1
    25     3     4    2
    26     3     2    1
    27     4     5    1
    28     2     1    2
    29     5    12    1
    30     5     6   am
    31     1     6    1
    32     1    29    1
    33    33    29    2
    34     6     7    2
    35    29    30   am
    36    30    32    1
    37    30    31    1
