@<TRIPOS>MOLECULE
65968_out_ligand_01.pdbqt
 29 31 0 0 0
SMALL
GASTEIGER

@<TRIPOS>ATOM
      1  N         20.7620  -22.8270  -10.0990 N.am    1  UNL1       -0.3240
      2  C         19.5260  -22.2010  -10.1420 C.2     1  UNL1        0.2310
      3  O         19.2830  -21.1510  -10.7270 O.2     1  UNL1       -0.2720
      4  H         20.8390  -23.6770   -9.5450 H       1  UNL1        0.1690
      5  C         21.9620  -22.4190  -10.7210 C.2     1  UNL1        0.0740
      6  C         22.0960  -22.1130  -12.0770 C.2     1  UNL1        0.0530
      7  C         23.3420  -21.7150  -12.6020 C.2     1  UNL1        0.0720
      8  C         24.4460  -21.6300  -11.7470 C.2     1  UNL1        0.1350
      9  C         24.3290  -21.9320  -10.3950 C.2     1  UNL1        0.0880
     10  F         25.6520  -21.2560  -12.2010 F       1  UNL1       -0.2050
     11  C         23.0930  -22.3210   -9.8980 C.2     1  UNL1        0.1460
     12  F         22.9830  -22.6100   -8.5910 F       1  UNL1       -0.2040
     13  C         23.4290  -21.4000  -14.0540 C.2     1  UNL1        0.2520
     14  N         22.7260  -20.3300  -14.5290 N.am    1  UNL1       -0.3660
     15  H         22.7960  -20.1240  -15.5160 H       1  UNL1        0.1590
     16  H         22.1510  -19.7350  -13.9480 H       1  UNL1        0.1590
     17  O         24.1100  -22.0750  -14.8150 O.2     1  UNL1       -0.2680
     18  C         18.4600  -22.9470   -9.3390 C.3     1  UNL1        0.1220
     19  C         17.1160  -22.8070  -10.0510 C.3     1  UNL1        0.1220
     20  C         16.0250  -23.5060   -9.2790 C.2     1  UNL1        0.2230
     21  O         15.0960  -24.0910   -9.8290 O.2     1  UNL1       -0.2730
     22  N         16.0740  -23.3790   -7.9180 N.am    1  UNL1       -0.3270
     23  C         17.1320  -22.7860   -7.2220 C.2     1  UNL1        0.0420
     24  H         15.2630  -23.7190   -7.4170 H       1  UNL1        0.1690
     25  C         16.9840  -22.5170   -5.8630 C.2     1  UNL1        0.0300
     26  C         18.3300  -22.4940   -7.8940 C.2     1  UNL1       -0.0180
     27  C         18.0280  -21.9200   -5.1590 C.2     1  UNL1        0.0020
     28  C         19.2170  -21.6080   -5.8130 C.2     1  UNL1        0.0010
     29  C         19.3740  -21.9000   -7.1700 C.2     1  UNL1        0.0100
@<TRIPOS>BOND
     1    15    14    1
     2    17    13    2
     3    14    13   am
     4    14    16    1
     5    13     7    1
     6     7     6    1
     7     7     8    2
     8    10     8    1
     9     6     5    2
    10     8     9    1
    11     3     2    2
    12     5     1    1
    13     5    11    1
    14     9    11    2
    15     2     1   am
    16     2    18    1
    17     1     4    1
    18    19    18    1
    19    19    20    1
    20    11    12    1
    21    21    20    2
    22    18    26    1
    23    20    22   am
    24    22    24    1
    25    22    23    1
    26    26    23    2
    27    26    29    1
    28    23    25    1
    29    29    28    2
    30    25    27    2
    31    28    27    1
