@<TRIPOS>MOLECULE
65969_out_ligand_01.pdbqt
 34 38 0 0 0
SMALL
GASTEIGER

@<TRIPOS>ATOM
      1  N         22.1740  -22.7310  -10.6170 N.3     1  UNL1        0.1050
      2  C         22.3840  -22.6530   -9.1590 C.3     1  UNL1        0.3120
      3  C         21.1150  -22.9080   -8.3690 C.2     1  UNL1       -0.0300
      4  C         20.6360  -21.9490   -7.4630 C.2     1  UNL1        0.0100
      5  C         19.4650  -22.1770   -6.7350 C.2     1  UNL1        0.0170
      6  C         18.7510  -23.3680   -6.9150 C.2     1  UNL1        0.0320
      7  C         19.2300  -24.3340   -7.8090 C.2     1  UNL1        0.0170
      8  C         20.4000  -24.1030   -8.5360 C.2     1  UNL1        0.0100
      9  C         17.5010  -23.6600   -6.1610 C.2     1  UNL1        0.2520
     10  O         17.4360  -24.6530   -5.4440 O.2     1  UNL1       -0.2680
     11  N         16.4550  -22.7780   -6.3560 N.am    1  UNL1       -0.3520
     12  H         16.5190  -22.0970   -7.1010 H       1  UNL1        0.1630
     13  C         15.1840  -22.9630   -5.7290 C.3     1  UNL1        0.0840
     14  C         14.2020  -21.8290   -5.6340 C.3     1  UNL1        0.0270
     15  C         14.8940  -22.3240   -4.3990 C.3     1  UNL1        0.0270
     16  C         23.3730  -23.2710  -11.2980 C.3     1  UNL1        0.3510
     17  C         24.2050  -22.2060  -12.0050 C.ar    1  UNL1        0.1360
     18  N         24.1900  -22.1010  -13.2970 N.ar    1  UNL1       -0.2330
     19  C         24.9750  -21.0940  -13.8840 C.ar    1  UNL1        0.0740
     20  C         24.9650  -20.9560  -15.2730 C.2     1  UNL1        0.0320
     21  C         25.7710  -20.2250  -13.1330 C.ar    1  UNL1        0.0610
     22  C         25.7350  -19.9700  -15.8970 C.2     1  UNL1        0.0020
     23  C         26.5260  -19.1100  -15.1320 C.2     1  UNL1        0.0010
     24  C         26.5470  -19.2340  -13.7440 C.2     1  UNL1        0.0190
     25  C         25.7670  -20.3950  -11.6720 C.ar    1  UNL1        0.2590
     26  O         26.4590  -19.7040  -10.9330 O.2     1  UNL1       -0.2670
     27  N         24.9470  -21.3850  -11.1970 N.ar    1  UNL1       -0.3090
     28  H         24.9860  -21.5510  -10.1950 H       1  UNL1        0.1700
     29  C         21.7070  -21.4420  -11.1580 C.3     1  UNL1        0.3380
     30  C         20.2200  -21.3770  -11.2780 C.2     1  UNL1        0.0800
     31  C         19.3340  -20.3450  -11.5060 C.2     1  UNL1        0.0360
     32  C         18.0420  -20.9230  -11.5170 C.2     1  UNL1        0.0270
     33  C         18.2210  -22.2680  -11.2930 C.2     1  UNL1        0.1420
     34  O         19.5400  -22.5540  -11.1370 O.2     1  UNL1       -0.3250
@<TRIPOS>BOND
     1    22    20    1
     2    22    23    2
     3    20    19    2
     4    23    24    1
     5    19    18   ar
     6    19    21   ar
     7    24    21    2
     8    18    17   ar
     9    21    25   ar
    10    17    16    1
    11    17    27   ar
    12    25    27   ar
    13    25    26    2
    14    32    31    1
    15    32    33    2
    16    31    30    2
    17    16     1    1
    18    33    34    1
    19    30    29    1
    20    30    34    1
    21    27    28    1
    22    29     1    1
    23     1     2    1
    24     2     3    1
    25     8     3    2
    26     8     7    1
    27     3     4    1
    28     7     6    2
    29     4     5    2
    30    12    11    1
    31     6     5    1
    32     6     9    1
    33    11     9   am
    34    11    13    1
    35     9    10    2
    36    13    14    1
    37    13    15    1
    38    14    15    1
