@<TRIPOS>MOLECULE
6596_out_ligand_01.pdbqt
 32 36 0 0 0
SMALL
GASTEIGER

@<TRIPOS>ATOM
      1  O         22.0200  -24.1660   -9.0900 O.2     1  UNL1       -0.2670
      2  C         21.7590  -23.3770   -9.9930 C.2     1  UNL1        0.2560
      3  N         22.7330  -22.9520  -10.8670 N.am    1  UNL1       -0.3310
      4  C         22.6080  -21.7140  -11.5890 C.3     1  UNL1        0.2210
      5  N         21.2580  -21.5910  -12.1140 N.pl3   1  UNL1       -0.3580
      6  C         20.2520  -21.9730  -11.2930 C.ar    1  UNL1        0.0880
      7  S         18.6460  -21.4380  -11.4410 S.2     1  UNL1       -0.0740
      8  C         18.1670  -22.3540  -10.0880 C.ar    1  UNL1        0.0200
      9  C         19.2120  -23.0710   -9.5340 C.ar    1  UNL1       -0.0230
     10  C         20.4340  -22.8400  -10.2380 C.ar    1  UNL1        0.0730
     11  C         18.9920  -23.9300   -8.3250 C.3     1  UNL1        0.0710
     12  C         17.4810  -24.1100   -8.0370 C.3     1  UNL1        0.2780
     13  N         16.6490  -22.8930   -8.2010 N.3     1  UNL1        0.0970
     14  C         16.7480  -22.3870   -9.5930 C.3     1  UNL1        0.3190
     15  H         23.6570  -23.2120  -10.5530 H       1  UNL1        0.1650
     16  H         21.0970  -20.7690  -12.6890 H       1  UNL1        0.1620
     17  C         23.6190  -21.6600  -12.7210 C.2     1  UNL1        0.0170
     18  C         23.1930  -21.7540  -14.0620 C.2     1  UNL1        0.0130
     19  C         24.1030  -21.6900  -15.1230 C.2     1  UNL1        0.0010
     20  C         25.4660  -21.5450  -14.8730 C.2     1  UNL1        0.0020
     21  C         25.9270  -21.4800  -13.5610 C.2     1  UNL1        0.0370
     22  C         25.0060  -21.5530  -12.5040 C.2     1  UNL1        0.1130
     23  N         25.5490  -21.5550  -11.1530 N.pl3   1  UNL1       -0.1150
     24  O         25.7380  -20.4520  -10.6230 O.2     1  UNL1       -0.5320
     25  O         25.7860  -22.6550  -10.6390 O.2     1  UNL1       -0.5320
     26  C         16.9980  -21.8650   -7.2070 C.3     1  UNL1        0.3110
     27  C         16.6990  -22.2890   -5.7830 C.2     1  UNL1       -0.0300
     28  C         15.3950  -22.6460   -5.4060 C.2     1  UNL1        0.0090
     29  C         15.1190  -23.0450   -4.0970 C.2     1  UNL1        0.0010
     30  C         16.1440  -23.0950   -3.1530 C.2     1  UNL1        0.0000
     31  C         17.4430  -22.7450   -3.5170 C.2     1  UNL1        0.0010
     32  C         17.7210  -22.3450   -4.8250 C.2     1  UNL1        0.0090
@<TRIPOS>BOND
     1    19    20    2
     2    19    18    1
     3    20    21    1
     4    18    17    2
     5    21    22    2
     6    17    22    1
     7    17     4    1
     8    16     5    1
     9    22    23    1
    10     5     4    1
    11     5     6    1
    12     4     3    1
    13     7     6   ar
    14     7     8   ar
    15     6    10   ar
    16    23    25    2
    17    23    24    2
    18     3    15    1
    19     3     2   am
    20    10     2    1
    21    10     9   ar
    22     8    14    1
    23     8     9   ar
    24     2     1    2
    25    14    13    1
    26     9    11    1
    27    11    12    1
    28    13    12    1
    29    13    26    1
    30    26    27    1
    31    27    28    2
    32    27    32    1
    33    28    29    1
    34    32    31    2
    35    29    30    2
    36    31    30    1
