@<TRIPOS>MOLECULE
65965_out_ligand_01.pdbqt
 31 34 0 0 0
SMALL
GASTEIGER

@<TRIPOS>ATOM
      1  N         22.5670  -22.6220  -11.0170 N.3     1  UNL1       -0.2980
      2  C         23.6340  -23.0920  -11.9310 C.3     1  UNL1        0.1740
      3  C         24.3750  -21.9660  -12.6160 C.2     1  UNL1       -0.0400
      4  C         25.3950  -21.2720  -11.9480 C.2     1  UNL1        0.0100
      5  C         26.0760  -20.2260  -12.5780 C.2     1  UNL1        0.0170
      6  C         25.7440  -19.8610  -13.8880 C.2     1  UNL1        0.0310
      7  C         24.7150  -20.5350  -14.5530 C.2     1  UNL1        0.0170
      8  C         24.0400  -21.5840  -13.9230 C.2     1  UNL1        0.0100
      9  C         26.4420  -18.7590  -14.5980 C.2     1  UNL1        0.2490
     10  N         27.1200  -17.8510  -13.8320 N.am    1  UNL1       -0.3660
     11  H         27.7120  -17.2100  -14.3440 H       1  UNL1        0.1590
     12  H         27.4020  -18.0770  -12.8870 H       1  UNL1        0.1590
     13  O         26.4500  -18.6800  -15.8200 O.2     1  UNL1       -0.2680
     14  C         21.7990  -21.4760  -11.5440 C.3     1  UNL1        0.0960
     15  C         20.4000  -21.1870  -11.0750 C.3     1  UNL1        0.0280
     16  C         20.6280  -21.6910  -12.4670 C.3     1  UNL1        0.0280
     17  S         22.9600  -22.5550   -9.3510 S.O2    1  UNL1        0.2610
     18  O         23.2890  -21.1890   -9.0000 O.2     1  UNL1       -0.2000
     19  O         23.8750  -23.6370   -9.0440 O.2     1  UNL1       -0.2000
     20  C         21.4170  -22.9390   -8.5380 C.2     1  UNL1        0.0790
     21  C         20.8930  -22.0480   -7.5990 C.2     1  UNL1        0.0260
     22  C         19.6710  -22.3330   -6.9850 C.2     1  UNL1        0.0090
     23  C         18.9530  -23.4940   -7.3170 C.2     1  UNL1       -0.0540
     24  C         19.4830  -24.3610   -8.2860 C.2     1  UNL1        0.0090
     25  C         20.7040  -24.0820   -8.9040 C.2     1  UNL1        0.0260
     26  C         17.6210  -23.7760   -6.6370 C.3     1  UNL1        0.0180
     27  C         17.7380  -23.8550   -5.0980 C.3     1  UNL1        0.0090
     28  C         17.1050  -22.6610   -4.3890 C.3     1  UNL1        0.0010
     29  C         15.6320  -22.4870   -4.7580 C.3     1  UNL1        0.0000
     30  C         15.3100  -22.8560   -6.2070 C.3     1  UNL1        0.0010
     31  C         16.5380  -22.7850   -7.1060 C.3     1  UNL1        0.0090
@<TRIPOS>BOND
     1    13     9    2
     2     9     6    1
     3     9    10   am
     4     7     8    1
     5     7     6    2
     6    11    10    1
     7     8     3    2
     8     6     5    1
     9    10    12    1
    10     3     4    1
    11     3     2    1
    12     5     4    2
    13    16    14    1
    14    16    15    1
    15     2     1    1
    16    14    15    1
    17    14     1    1
    18     1    17    1
    19    17    19    2
    20    17    18    2
    21    17    20    1
    22    25    20    2
    23    25    24    1
    24    20    21    1
    25    24    23    2
    26    21    22    2
    27    23    22    1
    28    23    26    1
    29    31    26    1
    30    31    30    1
    31    26    27    1
    32    30    29    1
    33    27    28    1
    34    29    28    1
