@<TRIPOS>MOLECULE
65970_out_ligand_01.pdbqt
 32 36 0 0 0
SMALL
GASTEIGER

@<TRIPOS>ATOM
      1  N         22.3440  -22.7380  -10.7280 N.3     1  UNL1        0.1040
      2  C         22.4710  -22.4770   -9.2840 C.3     1  UNL1        0.3110
      3  C         21.2120  -22.8410   -8.5210 C.2     1  UNL1       -0.0300
      4  C         20.5900  -24.0830   -8.7110 C.2     1  UNL1        0.0100
      5  C         19.4330  -24.4080   -7.9970 C.2     1  UNL1        0.0170
      6  C         18.8810  -23.4970   -7.0890 C.2     1  UNL1        0.0320
      7  C         19.5110  -22.2660   -6.8760 C.2     1  UNL1        0.0170
      8  C         20.6670  -21.9410   -7.5900 C.2     1  UNL1        0.0100
      9  C         17.6450  -23.8910   -6.3580 C.2     1  UNL1        0.2520
     10  O         17.4400  -25.0710   -6.0950 O.2     1  UNL1       -0.2680
     11  N         16.7700  -22.8670   -6.0430 N.am    1  UNL1       -0.3520
     12  H         16.9300  -21.9460   -6.4300 H       1  UNL1        0.1630
     13  C         15.5170  -23.1130   -5.4020 C.3     1  UNL1        0.0840
     14  C         15.0590  -22.2560   -4.2540 C.3     1  UNL1        0.0270
     15  C         14.3700  -22.1600   -5.5830 C.3     1  UNL1        0.0270
     16  C         23.6310  -23.1940  -11.2890 C.3     1  UNL1        0.3320
     17  C         24.4530  -22.0590  -11.8760 C.2     1  UNL1        0.0710
     18  C         25.1750  -21.2640  -11.0670 C.2     1  UNL1        0.1040
     19  C         25.9830  -20.1750  -11.6500 C.2     1  UNL1        0.2550
     20  O         26.6360  -19.4350  -10.9200 O.2     1  UNL1       -0.2680
     21  N         25.9130  -20.0910  -13.0180 N.am    1  UNL1       -0.2670
     22  C         26.5820  -19.1620  -13.7860 C.2     1  UNL1        0.1100
     23  C         25.1230  -20.9630  -13.7310 C.2     1  UNL1        0.1800
     24  C         26.3450  -19.2740  -15.0990 C.2     1  UNL1        0.0710
     25  S         25.2420  -20.5790  -15.4410 S.3     1  UNL1       -0.0620
     26  N         24.3990  -21.9130  -13.2470 N.2     1  UNL1       -0.2270
     27  C         21.8670  -21.5370  -11.4450 C.3     1  UNL1        0.3370
     28  C         20.3780  -21.4140  -11.4330 C.2     1  UNL1        0.0800
     29  C         19.5170  -20.3360  -11.4800 C.2     1  UNL1        0.0360
     30  C         18.2050  -20.8690  -11.4440 C.2     1  UNL1        0.0270
     31  C         18.3490  -22.2350  -11.3840 C.2     1  UNL1        0.1420
     32  O         19.6630  -22.5760  -11.3810 O.2     1  UNL1       -0.3250
@<TRIPOS>BOND
     1    25    24    1
     2    25    23    1
     3    24    22    2
     4    22    21    1
     5    23    26    2
     6    23    21    1
     7    26    17    1
     8    21    19   am
     9    17    16    1
    10    17    18    2
    11    19    18    1
    12    19    20    2
    13    29    30    1
    14    29    28    2
    15    27    28    1
    16    27     1    1
    17    30    31    2
    18    28    32    1
    19    31    32    1
    20    16     1    1
    21     1     2    1
    22     2     3    1
    23     4     3    2
    24     4     5    1
    25     3     8    1
    26     5     6    2
    27     8     7    2
    28     6     7    1
    29     6     9    1
    30    12    11    1
    31     9    10    2
    32     9    11   am
    33    11    13    1
    34    15    13    1
    35    15    14    1
    36    13    14    1
