@<TRIPOS>MOLECULE
6598_out_ligand_01.pdbqt
 30 34 0 0 0
SMALL
GASTEIGER

@<TRIPOS>ATOM
      1  O         18.8780  -20.6180  -12.1560 O.2     1  UNL1       -0.2670
      2  C         19.7310  -21.3160  -11.6160 C.2     1  UNL1        0.2560
      3  N         21.0550  -21.2220  -11.9720 N.am    1  UNL1       -0.3320
      4  C         21.9710  -22.3040  -11.7340 C.3     1  UNL1        0.2190
      5  N         21.7770  -22.8090  -10.3900 N.pl3   1  UNL1       -0.3580
      6  C         20.4940  -22.9630   -9.9900 C.ar    1  UNL1        0.0880
      7  S         19.9970  -24.0100   -8.7480 S.2     1  UNL1       -0.0740
      8  C         18.3680  -23.5590   -8.9540 C.ar    1  UNL1        0.0200
      9  C         18.1980  -22.6240   -9.9610 C.ar    1  UNL1       -0.0230
     10  C         19.4460  -22.2710  -10.5600 C.ar    1  UNL1        0.0730
     11  C         16.8380  -22.0780  -10.2730 C.3     1  UNL1        0.0710
     12  C         15.7310  -22.9030   -9.5690 C.3     1  UNL1        0.2780
     13  N         16.0260  -23.3130   -8.1750 N.3     1  UNL1        0.0970
     14  C         17.2550  -24.1450   -8.1320 C.3     1  UNL1        0.3190
     15  H         21.2160  -20.6330  -12.7750 H       1  UNL1        0.1650
     16  H         22.4550  -23.5050  -10.0950 H       1  UNL1        0.1620
     17  C         23.4030  -21.8500  -11.9170 C.2     1  UNL1       -0.0150
     18  C         24.2740  -21.7740  -10.8180 C.2     1  UNL1        0.0110
     19  C         25.5980  -21.3610  -10.9870 C.2     1  UNL1        0.0020
     20  C         26.0680  -21.0190  -12.2540 C.2     1  UNL1        0.0190
     21  C         25.2130  -21.0920  -13.3510 C.2     1  UNL1        0.0110
     22 BR         25.8490  -20.6280  -15.0700 Br      1  UNL1       -0.0510
     23  C         23.8910  -21.5040  -13.1900 C.2     1  UNL1        0.0300
     24  C         16.1130  -22.1460   -7.2800 C.3     1  UNL1        0.3110
     25  C         16.3420  -22.5250   -5.8310 C.2     1  UNL1       -0.0300
     26  C         15.3670  -23.2340   -5.1160 C.2     1  UNL1        0.0090
     27  C         15.5840  -23.5900   -3.7830 C.2     1  UNL1        0.0010
     28  C         16.7780  -23.2410   -3.1530 C.2     1  UNL1        0.0000
     29  C         17.7550  -22.5360   -3.8530 C.2     1  UNL1        0.0010
     30  C         17.5400  -22.1810   -5.1860 C.2     1  UNL1        0.0090
@<TRIPOS>BOND
     1    22    21    1
     2    21    23    1
     3    21    20    2
     4    23    17    2
     5    15     3    1
     6    20    19    1
     7     1     2    2
     8     3     4    1
     9     3     2   am
    10    17     4    1
    11    17    18    1
    12     4     5    1
    13     2    10    1
    14    19    18    2
    15    10     6   ar
    16    10     9   ar
    17     5    16    1
    18     5     6    1
    19    11     9    1
    20    11    12    1
    21     6     7   ar
    22     9     8   ar
    23    12    13    1
    24     8     7   ar
    25     8    14    1
    26    13    14    1
    27    13    24    1
    28    24    25    1
    29    25    30    2
    30    25    26    1
    31    30    29    1
    32    26    27    2
    33    29    28    2
    34    27    28    1
