@<TRIPOS>MOLECULE
66003_out_ligand_01.pdbqt
 29 32 0 0 0
SMALL
GASTEIGER

@<TRIPOS>ATOM
      1  C         20.5040  -23.4180   -8.8650 C.2     1  UNL1        0.2570
      2  O         20.9600  -24.5340   -9.0810 O.2     1  UNL1       -0.2670
      3  N         20.9220  -22.2320   -9.4420 N.am    1  UNL1       -0.3230
      4  H         20.5360  -21.3690   -9.0810 H       1  UNL1        0.1690
      5  C         19.4160  -23.3030   -7.8630 C.2     1  UNL1        0.0510
      6  C         19.4360  -22.4030   -6.7990 C.2     1  UNL1        0.0390
      7  C         18.3500  -22.3750   -5.9160 C.ar    1  UNL1        0.0790
      8  C         18.3340  -21.4570   -4.7760 C.ar    1  UNL1        0.2630
      9  C         17.2690  -23.2240   -6.1090 C.ar    1  UNL1        0.1480
     10  N         17.2170  -21.4930   -3.9910 N.ar    1  UNL1       -0.2750
     11  O         19.2820  -20.7150   -4.5510 O.2     1  UNL1       -0.2670
     12  C         16.1400  -22.3240   -4.1420 C.ar    1  UNL1        0.3300
     13  H         17.1870  -20.8700   -3.1960 H       1  UNL1        0.1730
     14  N         16.1780  -23.1880   -5.2140 N.ar    1  UNL1       -0.2870
     15  O         15.2170  -22.2610   -3.3330 O.2     1  UNL1       -0.2460
     16  C         15.0730  -24.1010   -5.4590 C.3     1  UNL1        0.1630
     17  N         17.2330  -24.0940   -7.1480 N.2     1  UNL1       -0.2410
     18  C         18.2930  -24.1090   -8.0000 C.2     1  UNL1        0.1360
     19  C         21.9040  -22.0720  -10.4470 C.2     1  UNL1        0.0370
     20  C         23.2540  -22.1710  -10.0370 C.2     1  UNL1        0.0320
     21  C         24.3040  -22.0250  -10.9520 C.2     1  UNL1        0.0420
     22  C         23.9750  -21.7780  -12.2640 C.2     1  UNL1        0.1110
     23  C         22.6660  -21.6760  -12.6720 C.2     1  UNL1        0.1130
     24  O         24.8560  -21.6080  -13.2840 O.2     1  UNL1       -0.2560
     25  C         21.6110  -21.8160  -11.7910 C.2     1  UNL1        0.0690
     26  O         22.5560  -21.4260  -14.0040 O.2     1  UNL1       -0.2560
     27  C         23.9420  -21.3890  -14.3680 C.3     1  UNL1        0.4980
     28  F         24.1660  -22.3320  -15.3170 F       1  UNL1       -0.1470
     29  F         24.2120  -20.1810  -14.9210 F       1  UNL1       -0.1470
@<TRIPOS>BOND
     1    28    27    1
     2    29    27    1
     3    27    26    1
     4    27    24    1
     5    26    23    1
     6    24    22    1
     7    23    22    2
     8    23    25    1
     9    22    21    1
    10    25    19    2
    11    21    20    2
    12    19    20    1
    13    19     3    1
    14     3     4    1
    15     3     1   am
    16     2     1    2
    17     1     5    1
    18    18     5    2
    19    18    17    1
    20     5     6    1
    21    17     9    2
    22     6     7    2
    23     9     7   ar
    24     9    14   ar
    25     7     8   ar
    26    16    14    1
    27    14    12   ar
    28     8    11    2
    29     8    10   ar
    30    12    10   ar
    31    12    15    2
    32    10    13    1
