@<TRIPOS>MOLECULE
66019_out_ligand_01.pdbqt
 28 31 0 0 0
SMALL
GASTEIGER

@<TRIPOS>ATOM
      1  C         20.3180  -22.3440   -7.3560 C.2     1  UNL1        0.0320
      2  C         20.3010  -23.5650   -8.0430 C.2     1  UNL1        0.0170
      3  C         21.4090  -23.9560   -8.7980 C.2     1  UNL1        0.0100
      4  C         22.5450  -23.1380   -8.8760 C.2     1  UNL1       -0.0400
      5  C         22.5670  -21.9320   -8.1610 C.2     1  UNL1        0.0100
      6  C         21.4610  -21.5370   -7.4050 C.2     1  UNL1        0.0170
      7  C         23.7560  -23.5810   -9.6670 C.3     1  UNL1        0.1740
      8  N         23.9460  -22.7640  -10.8430 N.am    1  UNL1       -0.2760
      9  C         25.1520  -22.2530  -11.2300 C.2     1  UNL1        0.2620
     10  O         26.2360  -22.3380  -10.6840 O.2     1  UNL1       -0.2670
     11  C         24.9140  -21.5350  -12.4810 C.2     1  UNL1        0.0480
     12  C         25.7860  -20.8380  -13.2940 C.2     1  UNL1        0.0180
     13  C         23.5690  -21.6540  -12.7820 C.2     1  UNL1        0.0480
     14  C         25.2530  -20.2490  -14.4450 C.2     1  UNL1        0.0010
     15  C         23.8810  -20.3710  -14.7510 C.2     1  UNL1        0.0010
     16  C         23.0180  -21.0830  -13.9120 C.2     1  UNL1        0.0180
     17  C         22.9480  -22.4480  -11.7230 C.2     1  UNL1        0.2620
     18  O         21.7680  -22.7380  -11.6840 O.2     1  UNL1       -0.2670
     19  C         19.1590  -21.8890   -6.5370 C.2     1  UNL1        0.2560
     20  O         19.2700  -20.8490   -5.8990 O.2     1  UNL1       -0.2670
     21  N         18.0380  -22.6940   -6.6180 N.am    1  UNL1       -0.3220
     22  H         18.0610  -23.4480   -7.2920 H       1  UNL1        0.1690
     23  C         16.8180  -22.5240   -5.9270 C.2     1  UNL1        0.0520
     24  C         15.5790  -22.3590   -6.5400 C.2     1  UNL1        0.0320
     25  C         14.4340  -22.1930   -5.7580 C.2     1  UNL1        0.0210
     26  C         14.5660  -22.1920   -4.3800 C.2     1  UNL1        0.1160
     27  N         15.7460  -22.3450   -3.7430 N.2     1  UNL1       -0.2710
     28  C         16.8360  -22.5050   -4.5320 C.2     1  UNL1        0.1450
@<TRIPOS>BOND
     1    15    14    2
     2    15    16    1
     3    14    12    1
     4    16    13    2
     5    12    11    2
     6    13    11    1
     7    13    17    1
     8    11     9    1
     9    17    18    2
    10    17     8   am
    11     9     8   am
    12     9    10    2
    13     8     7    1
    14     7     4    1
    15     4     3    2
    16     4     5    1
    17     3     2    1
    18     5     6    2
    19     2     1    2
    20     6     1    1
    21     1    19    1
    22    22    21    1
    23    21    19   am
    24    21    23    1
    25    24    23    2
    26    24    25    1
    27    19    20    2
    28    23    28    1
    29    25    26    2
    30    28    27    2
    31    26    27    1
