@<TRIPOS>MOLECULE
66020_out_ligand_01.pdbqt
 33 35 0 0 0
SMALL
GASTEIGER

@<TRIPOS>ATOM
      1  C         17.6670  -23.5760   -8.5480 C.2     1  UNL1        0.0860
      2  C         19.0450  -23.8190   -8.4040 C.2     1  UNL1        0.0420
      3  C         19.9640  -23.2380   -9.2810 C.2     1  UNL1        0.0340
      4  C         19.5070  -22.4170  -10.3130 C.2     1  UNL1        0.0170
      5  C         18.1360  -22.1920  -10.4690 C.2     1  UNL1        0.0090
      6  C         17.1930  -22.7670   -9.5970 C.2     1  UNL1       -0.0390
      7  C         15.7400  -22.4720   -9.8400 C.3     1  UNL1        0.0500
      8  C         21.4110  -23.4890   -9.0520 C.2     1  UNL1        0.2660
      9  O         21.8230  -24.6350   -8.8870 O.2     1  UNL1       -0.2660
     10  N         22.2330  -22.3760   -9.0660 N.am    1  UNL1       -0.2800
     11  H         21.9500  -21.5430   -9.5830 H       1  UNL1        0.1840
     12  N         23.6240  -22.6390   -9.1690 N.pl3   1  UNL1       -0.1690
     13  H         23.8830  -23.5630   -8.8130 H       1  UNL1        0.1560
     14  C         24.0730  -22.5980  -10.5030 C.cat   1  UNL1        0.2200
     15  N         23.3130  -21.9730  -11.4270 N.2     1  UNL1       -0.2220
     16  C         23.7660  -21.9690  -12.6960 C.2     1  UNL1        0.0360
     17  C         22.9280  -21.2710  -13.7250 C.3     1  UNL1        0.0700
     18  C         24.9480  -22.5780  -13.0600 C.2     1  UNL1        0.0530
     19  C         25.6570  -23.1990  -12.0530 C.2     1  UNL1        0.0360
     20  C         26.9520  -23.8910  -12.3540 C.3     1  UNL1        0.0700
     21  N         25.2290  -23.2170  -10.7750 N.2     1  UNL1       -0.2220
     22  S         16.6140  -24.3580   -7.3280 S.O2    1  UNL1        0.2630
     23  O         15.4970  -25.0090   -7.9730 O.2     1  UNL1       -0.2000
     24  O         17.4870  -25.1000   -6.4410 O.2     1  UNL1       -0.2000
     25  N         16.0360  -23.0460   -6.4320 N.pl3   1  UNL1       -0.2810
     26  H         15.0480  -23.1450   -6.2000 H       1  UNL1        0.1790
     27  C         16.8850  -22.4320   -5.4690 C.2     1  UNL1        0.0430
     28  C         16.6350  -22.6480   -4.1130 C.2     1  UNL1        0.0300
     29  C         17.4710  -22.0780   -3.1530 C.2     1  UNL1        0.0030
     30  C         18.5560  -21.2950   -3.5470 C.2     1  UNL1        0.0070
     31  C         18.8180  -21.0780   -4.9040 C.2     1  UNL1       -0.0600
     32  C         19.9600  -20.2040   -5.3310 C.3     1  UNL1        0.0480
     33  C         17.9660  -21.6420   -5.8630 C.2     1  UNL1        0.0370
@<TRIPOS>BOND
     1    17    16    1
     2    18    16    2
     3    18    19    1
     4    16    15    1
     5    20    19    1
     6    19    21    2
     7    15    14    2
     8    21    14    1
     9    14    12    1
    10     5     4    2
    11     5     6    1
    12     4     3    1
    13     7     6    1
    14     6     1    2
    15    11    10    1
    16     3     8    1
    17     3     2    2
    18    12    10    1
    19    12    13    1
    20    10     8   am
    21     8     9    2
    22     1     2    1
    23     1    22    1
    24    23    22    2
    25    22    24    2
    26    22    25    1
    27    25    26    1
    28    25    27    1
    29    33    27    2
    30    33    31    1
    31    27    28    1
    32    32    31    1
    33    31    30    2
    34    28    29    2
    35    30    29    1
