@<TRIPOS>MOLECULE
66023_out_ligand_01.pdbqt
 33 36 0 0 0
SMALL
GASTEIGER

@<TRIPOS>ATOM
      1  C         19.7030  -23.1180   -8.3100 C.2     1  UNL1        0.0320
      2  C         19.7250  -23.3440   -9.6900 C.2     1  UNL1        0.0190
      3  C         20.8200  -22.9190  -10.4450 C.2     1  UNL1        0.0300
      4  C         21.9100  -22.2860   -9.8320 C.2     1  UNL1        0.0350
      5  C         21.9110  -22.1250   -8.4440 C.2     1  UNL1        0.0300
      6  C         20.8140  -22.5440   -7.6810 C.2     1  UNL1        0.0190
      7  N         22.9410  -21.8440  -10.6730 N.am    1  UNL1       -0.3230
      8  C         24.2560  -22.2690  -10.7390 C.2     1  UNL1        0.2590
      9  O         24.7540  -23.2200  -10.1590 O.2     1  UNL1       -0.2670
     10  H         22.7170  -21.0520  -11.2600 H       1  UNL1        0.1690
     11  C         25.1410  -21.4280  -11.6310 C.2     1  UNL1        0.0660
     12  C         26.0860  -20.5870  -11.0100 C.2     1  UNL1        0.0200
     13  C         26.8010  -19.6160  -11.7580 C.2     1  UNL1        0.0020
     14  C         26.5610  -19.4340  -13.1180 C.2     1  UNL1        0.0100
     15  C         25.6190  -20.2500  -13.7220 C.2     1  UNL1       -0.0170
     16  C         24.9620  -21.2490  -12.9870 C.2     1  UNL1        0.0910
     17  C         25.0770  -20.2470  -15.1110 C.3     1  UNL1        0.0460
     18  O         24.1410  -22.0270  -13.7870 O.2     1  UNL1       -0.3440
     19  C         24.5550  -21.6930  -15.1440 C.3     1  UNL1        0.1330
     20  C         25.5580  -22.7530  -15.6110 C.3     1  UNL1        0.0400
     21  C         26.0200  -19.8200  -16.2210 C.3     1  UNL1        0.0170
     22  C         18.5190  -23.4810   -7.4870 C.2     1  UNL1        0.2560
     23  N         17.8450  -22.3920   -6.9710 N.am    1  UNL1       -0.3210
     24  H         18.2220  -21.4690   -7.1420 H       1  UNL1        0.1690
     25  O         18.2600  -24.6670   -7.3240 O.2     1  UNL1       -0.2670
     26  C         16.7080  -22.3690   -6.1340 C.2     1  UNL1        0.0680
     27  C         15.4050  -22.5180   -6.6100 C.2     1  UNL1        0.0320
     28  C         14.3300  -22.5150   -5.7170 C.2     1  UNL1        0.0020
     29  C         14.5550  -22.3490   -4.3500 C.2     1  UNL1        0.0030
     30  C         15.8530  -22.1970   -3.8620 C.2     1  UNL1        0.0390
     31  C         16.9360  -22.2110   -4.7480 C.2     1  UNL1        0.0950
     32  O         18.2590  -22.0820   -4.3860 O.2     1  UNL1       -0.3540
     33  C         18.5360  -21.4310   -3.1530 C.3     1  UNL1        0.2100
@<TRIPOS>BOND
     1    21    17    1
     2    20    19    1
     3    19    17    1
     4    19    18    1
     5    17    15    1
     6    18    16    1
     7    15    14    2
     8    15    16    1
     9    14    13    1
    10    16    11    2
    11    13    12    2
    12    11    12    1
    13    11     8    1
    14    10     7    1
    15     8     7   am
    16     8     9    2
    17     7     4    1
    18     3     4    2
    19     3     2    1
    20     4     5    1
    21     2     1    2
    22     5     6    2
    23     1     6    1
    24     1    22    1
    25    22    25    2
    26    22    23   am
    27    24    23    1
    28    23    26    1
    29    27    26    2
    30    27    28    1
    31    26    31    1
    32    28    29    2
    33    31    32    1
    34    31    30    2
    35    32    33    1
    36    29    30    1
