@<TRIPOS>MOLECULE
66031_out_ligand_01.pdbqt
 36 40 0 0 0
SMALL
GASTEIGER

@<TRIPOS>ATOM
      1  C         21.0370  -23.3110   -9.4120 C.2     1  UNL1        0.0750
      2  C         22.3540  -23.5420   -9.5300 C.2     1  UNL1        0.0170
      3  C         20.2970  -22.2520  -10.1330 C.2     1  UNL1        0.2440
      4  O         20.9290  -21.3490  -10.6780 O.2     1  UNL1       -0.2680
      5  N         18.9260  -22.3070  -10.1060 N.am    1  UNL1       -0.3400
      6  C         18.1450  -21.3390  -10.8550 C.3     1  UNL1        0.1270
      7  C         18.0730  -23.3270   -9.4940 C.3     1  UNL1        0.1200
      8  C         16.7080  -21.5760  -10.4210 C.3     1  UNL1        0.0220
      9  C         16.6940  -23.0690  -10.1210 C.3     1  UNL1        0.0320
     10  C         18.0210  -23.2640   -7.9760 C.2     1  UNL1       -0.0330
     11  C         17.6580  -24.4180   -7.2590 C.2     1  UNL1        0.0120
     12  C         17.5700  -24.3990   -5.8650 C.2     1  UNL1        0.0400
     13  C         17.8380  -23.2250   -5.1700 C.2     1  UNL1        0.1020
     14  C         18.2330  -22.0790   -5.8630 C.2     1  UNL1        0.1020
     15  O         17.7090  -23.2720   -3.8040 O.2     1  UNL1       -0.3460
     16  C         18.3040  -22.0910   -7.2560 C.2     1  UNL1        0.0490
     17  O         18.5630  -20.9010   -5.2410 O.2     1  UNL1       -0.3460
     18  C         18.8020  -21.1030   -3.8440 C.3     1  UNL1        0.2020
     19  C         17.7000  -21.9580   -3.2350 C.3     1  UNL1        0.2020
     20  C         23.2910  -22.8290  -10.4060 C.2     1  UNL1       -0.0360
     21  C         23.4100  -23.2460  -11.7400 C.2     1  UNL1        0.0130
     22  C         24.2740  -22.5870  -12.6140 C.2     1  UNL1        0.0260
     23  C         25.0330  -21.5090  -12.1470 C.2     1  UNL1        0.0790
     24  C         24.9580  -21.1070  -10.8130 C.2     1  UNL1        0.0260
     25  C         24.0880  -21.7720   -9.9450 C.2     1  UNL1        0.0130
     26  S         26.0860  -20.6470  -13.2860 S.O2    1  UNL1        0.2590
     27  O         26.4150  -19.3560  -12.7230 O.2     1  UNL1       -0.2010
     28  O         27.1000  -21.5770  -13.7280 O.2     1  UNL1       -0.2010
     29  N         25.0790  -20.3750  -14.5860 N.3     1  UNL1       -0.3090
     30  H         24.2230  -19.8600  -14.3880 H       1  UNL1        0.1720
     31  C         25.6430  -20.3220  -15.9270 C.3     1  UNL1        0.1970
     32  C         25.1180  -21.4790  -16.6980 C.2     1  UNL1        0.0700
     33  C         24.9700  -21.7310  -18.0460 C.2     1  UNL1        0.0360
     34  C         24.4330  -23.0360  -18.1530 C.2     1  UNL1        0.0270
     35  C         24.2820  -23.4960  -16.8650 C.2     1  UNL1        0.1420
     36  O         24.6940  -22.5580  -15.9730 O.2     1  UNL1       -0.3250
@<TRIPOS>BOND
     1    34    33    1
     2    34    35    2
     3    33    32    2
     4    35    36    1
     5    32    36    1
     6    32    31    1
     7    31    29    1
     8    29    30    1
     9    29    26    1
    10    28    26    2
    11    26    27    2
    12    26    23    1
    13    22    23    2
    14    22    21    1
    15    23    24    1
    16    21    20    2
    17     6     8    1
    18     6     5    1
    19    24    25    2
    20     4     3    2
    21     8     9    1
    22    20    25    1
    23    20     2    1
    24     3     5   am
    25     3     1    1
    26     9     7    1
    27     5     7    1
    28     2     1    2
    29     7    10    1
    30    10    11    2
    31    10    16    1
    32    11    12    1
    33    16    14    2
    34    12    13    2
    35    14    17    1
    36    14    13    1
    37    17    18    1
    38    13    15    1
    39    18    19    1
    40    15    19    1
