@<TRIPOS>MOLECULE
66045_out_ligand_01.pdbqt
 31 34 0 0 0
SMALL
GASTEIGER

@<TRIPOS>ATOM
      1  C         20.2400  -22.1840  -10.3140 C.2     1  UNL1        0.0360
      2  C         19.8020  -21.4050  -11.3950 C.2     1  UNL1        0.0290
      3  C         18.4390  -21.2160  -11.6360 C.2     1  UNL1        0.0040
      4  C         17.4940  -21.7980  -10.7940 C.2     1  UNL1        0.0250
      5  C         17.9280  -22.5700   -9.7110 C.2     1  UNL1        0.0820
      6  C         19.2930  -22.7570   -9.4610 C.2     1  UNL1        0.0540
      7  N         21.6300  -22.3320  -10.1540 N.am    1  UNL1       -0.3270
      8  C         22.3150  -23.4010   -9.5930 C.2     1  UNL1        0.2270
      9  O         21.8170  -24.4450   -9.1780 O.2     1  UNL1       -0.2730
     10  H         22.2090  -21.5410  -10.4320 H       1  UNL1        0.1690
     11  C         23.8270  -23.2230   -9.5970 C.3     1  UNL1        0.1630
     12  C         24.2980  -22.4880  -10.8040 C.2     1  UNL1        0.0620
     13  C         25.2100  -21.4420  -10.8890 C.2     1  UNL1        0.1260
     14  N         25.2640  -21.1460  -12.2170 N.pl3   1  UNL1       -0.3090
     15  C         25.9330  -20.2470  -13.0160 C.2     1  UNL1        0.1060
     16  C         24.4140  -21.9970  -12.8600 C.2     1  UNL1        0.1770
     17  C         25.5970  -20.3970  -14.3100 C.2     1  UNL1        0.0710
     18  S         24.4110  -21.6950  -14.5710 S.3     1  UNL1       -0.0620
     19  N         23.8020  -22.8280  -12.0630 N.2     1  UNL1       -0.2270
     20  S         16.7270  -23.2580   -8.5890 S.O2    1  UNL1        0.2630
     21  O         15.5210  -23.5620   -9.3310 O.2     1  UNL1       -0.2000
     22  O         17.3970  -24.2860   -7.8200 O.2     1  UNL1       -0.2000
     23  N         16.4200  -21.9920   -7.5120 N.pl3   1  UNL1       -0.2790
     24  H         15.6850  -21.3830   -7.8740 H       1  UNL1        0.1790
     25  C         16.3600  -22.2680   -6.1060 C.2     1  UNL1        0.0640
     26  C         15.1670  -22.6920   -5.5130 C.2     1  UNL1        0.0320
     27  C         15.1170  -22.9340   -4.1380 C.2     1  UNL1        0.0020
     28  C         16.2590  -22.7690   -3.3510 C.2     1  UNL1        0.0020
     29  C         17.4570  -22.3620   -3.9370 C.2     1  UNL1        0.0260
     30  C         17.5070  -22.1140   -5.3100 C.2     1  UNL1        0.0610
     31 CL         19.0120  -21.6160   -6.0030 Cl      1  UNL1       -0.0820
@<TRIPOS>BOND
     1    18    17    1
     2    18    16    1
     3    17    15    2
     4    15    14    1
     5    16    14    1
     6    16    19    2
     7    14    13    1
     8    19    12    1
     9     3     2    1
    10     3     4    2
    11     2     1    2
    12    13    12    2
    13    12    11    1
    14     4     5    1
    15    10     7    1
    16     1     7    1
    17     1     6    1
    18     7     8   am
    19     5     6    2
    20     5    20    1
    21    11     8    1
    22     8     9    2
    23    21    20    2
    24    20    22    2
    25    20    23    1
    26    24    23    1
    27    23    25    1
    28    25    26    2
    29    25    30    1
    30    31    30    1
    31    26    27    1
    32    30    29    2
    33    27    28    2
    34    29    28    1
