@<TRIPOS>MOLECULE
66044_out_ligand_01.pdbqt
 32 35 0 0 0
SMALL
GASTEIGER

@<TRIPOS>ATOM
      1  C         16.9720  -22.7420   -9.0730 C.2     1  UNL1        0.0800
      2  C         16.2310  -21.8680   -9.8740 C.2     1  UNL1        0.0250
      3  C         16.8510  -21.2170  -10.9420 C.2     1  UNL1        0.0030
      4  C         18.2080  -21.4300  -11.1980 C.2     1  UNL1        0.0170
      5  C         18.9510  -22.2890  -10.3750 C.2     1  UNL1        0.0330
      6  C         18.3340  -22.9490   -9.3080 C.2     1  UNL1        0.0420
      7  C         20.3890  -22.5540  -10.6410 C.2     1  UNL1        0.2560
      8  O         20.9080  -23.5140  -10.0870 O.2     1  UNL1       -0.2670
      9  N         20.9950  -21.6430  -11.4860 N.am    1  UNL1       -0.3230
     10  H         20.4450  -20.8370  -11.7560 H       1  UNL1        0.1690
     11  C         22.3300  -21.6610  -11.9450 C.2     1  UNL1        0.0370
     12  C         23.3360  -21.6950  -10.9580 C.2     1  UNL1        0.0320
     13  C         24.7000  -21.7100  -11.2820 C.2     1  UNL1        0.0420
     14  C         24.9910  -21.6850  -12.6380 C.ar    1  UNL1        0.1060
     15  O         26.2250  -21.6920  -13.2180 O.2     1  UNL1       -0.2940
     16  C         24.0440  -21.6480  -13.6460 C.ar    1  UNL1        0.0950
     17  C         25.9530  -21.6570  -14.5620 C.ar    1  UNL1        0.1420
     18  C         27.1190  -21.6580  -15.4650 C.3     1  UNL1        0.1000
     19  N         24.6700  -21.6270  -14.8680 N.ar    1  UNL1       -0.2260
     20  C         22.6830  -21.6350  -13.3040 C.2     1  UNL1        0.0640
     21  S         16.1900  -23.5530   -7.7000 S.O2    1  UNL1        0.2630
     22  O         15.3330  -22.6020   -7.0280 O.2     1  UNL1       -0.2000
     23  O         15.6560  -24.8070   -8.1910 O.2     1  UNL1       -0.2000
     24  N         17.4970  -23.9650   -6.7120 N.pl3   1  UNL1       -0.2810
     25  H         17.4930  -24.9650   -6.5140 H       1  UNL1        0.1790
     26  C         17.8120  -23.0960   -5.6300 C.2     1  UNL1        0.0430
     27  C         17.4620  -23.4620   -4.3340 C.2     1  UNL1        0.0300
     28  C         17.8040  -22.6340   -3.2660 C.2     1  UNL1        0.0030
     29  C         18.4970  -21.4440   -3.4980 C.2     1  UNL1        0.0070
     30  C         18.8660  -21.0790   -4.7980 C.2     1  UNL1       -0.0600
     31  C         19.5970  -19.7930   -5.0470 C.3     1  UNL1        0.0480
     32  C         18.5080  -21.9110   -5.8670 C.2     1  UNL1        0.0370
@<TRIPOS>BOND
     1    18    17    1
     2    19    17   ar
     3    19    16   ar
     4    17    15   ar
     5    16    20    1
     6    16    14   ar
     7    20    11    2
     8    15    14   ar
     9    14    13    1
    10    11     9    1
    11    11    12    1
    12    10     9    1
    13     9     7   am
    14    13    12    2
    15     4     3    2
    16     4     5    1
    17     3     2    1
    18     7     5    1
    19     7     8    2
    20     5     6    2
    21     2     1    2
    22     6     1    1
    23     1    21    1
    24    23    21    2
    25    21    22    2
    26    21    24    1
    27    24    25    1
    28    24    26    1
    29    32    26    2
    30    32    30    1
    31    26    27    1
    32    31    30    1
    33    30    29    2
    34    27    28    2
    35    29    28    1
