@<TRIPOS>MOLECULE
66043_out_ligand_01.pdbqt
 27 30 0 0 0
SMALL
GASTEIGER

@<TRIPOS>ATOM
      1  C         18.0010  -22.2830  -10.1080 C.2     1  UNL1        0.0340
      2  C         17.8770  -21.4400  -11.2230 C.2     1  UNL1        0.0170
      3  C         19.0150  -20.8730  -11.8070 C.2     1  UNL1        0.0040
      4  C         20.2760  -21.1290  -11.2710 C.2     1  UNL1        0.0370
      5  C         20.3800  -21.9410  -10.1440 C.2     1  UNL1        0.0790
      6  C         19.2640  -22.5370   -9.5630 C.2     1  UNL1        0.0540
      7  C         16.8180  -22.8960   -9.4500 C.2     1  UNL1        0.2520
      8  O         15.6970  -22.6570   -9.8830 O.2     1  UNL1       -0.2680
      9  N         17.0740  -23.6900   -8.3550 N.am    1  UNL1       -0.3530
     10  H         17.9850  -23.6370   -7.9210 H       1  UNL1        0.1630
     11  C         16.0010  -24.2070   -7.5340 C.3     1  UNL1        0.1610
     12  C         16.0650  -23.6280   -6.1460 C.2     1  UNL1       -0.0410
     13  C         17.2260  -23.7520   -5.3680 C.2     1  UNL1        0.0090
     14  C         17.2850  -23.1910   -4.0910 C.2     1  UNL1        0.0010
     15  C         16.1890  -22.4960   -3.5820 C.2     1  UNL1        0.0000
     16  C         15.0340  -22.3590   -4.3480 C.2     1  UNL1        0.0010
     17  C         14.9730  -22.9190   -5.6250 C.2     1  UNL1        0.0090
     18  O         21.6680  -22.2030   -9.6330 O.2     1  UNL1       -0.2910
     19  C         22.8410  -22.1480  -10.3760 C.2     1  UNL1        0.1900
     20  C         22.9840  -23.1510  -11.4670 C.2     1  UNL1        0.0640
     21  C         24.1110  -23.1100  -12.1930 C.2     1  UNL1        0.0590
     22  C         25.0840  -22.1420  -11.8770 C.ar    1  UNL1        0.1840
     23  N         26.2650  -21.8400  -12.3680 N.ar    1  UNL1       -0.1410
     24  N         24.8140  -21.2920  -10.8240 N.ar    1  UNL1       -0.1370
     25  N         26.7250  -20.7900  -11.6040 N.ar    1  UNL1        0.0200
     26  N         25.8480  -20.4540  -10.6630 N.ar    1  UNL1        0.0200
     27  N         23.7140  -21.2540  -10.0390 N.2     1  UNL1       -0.1260
@<TRIPOS>BOND
     1    23    22   ar
     2    23    25   ar
     3    21    22    1
     4    21    20    2
     5    22    24   ar
     6     3     4    2
     7     3     2    1
     8    25    26   ar
     9    20    19    1
    10     4     5    1
    11     2     1    2
    12    24    26   ar
    13    24    27    1
    14    19    27    2
    15    19    18    1
    16     5    18    1
    17     5     6    2
    18     1     6    1
    19     1     7    1
    20     8     7    2
    21     7     9   am
    22     9    10    1
    23     9    11    1
    24    11    12    1
    25    12    17    2
    26    12    13    1
    27    17    16    1
    28    13    14    2
    29    16    15    2
    30    14    15    1
