@<TRIPOS>MOLECULE
66052_out_ligand_01.pdbqt
 36 39 0 0 0
SMALL
GASTEIGER

@<TRIPOS>ATOM
      1  C         19.7130  -22.5030  -10.0870 C.2     1  UNL1        0.0540
      2  C         18.6580  -21.6540  -10.4560 C.2     1  UNL1        0.0190
      3  C         18.8120  -20.7720  -11.5280 C.2     1  UNL1        0.0010
      4  C         20.0170  -20.7250  -12.2290 C.2     1  UNL1        0.0020
      5  C         21.0750  -21.5560  -11.8600 C.2     1  UNL1        0.0250
      6  C         20.9350  -22.4370  -10.7850 C.2     1  UNL1        0.0380
      7  N         22.0210  -23.3280  -10.4820 N.pl3   1  UNL1       -0.1800
      8  H         22.3550  -23.8480  -11.3110 H       1  UNL1        0.1460
      9  S         23.3790  -22.6260   -9.7410 S.O2    1  UNL1        0.2460
     10  O         23.9900  -23.5830   -8.8430 O.2     1  UNL1       -0.2060
     11  O         22.9880  -21.3090   -9.2890 O.2     1  UNL1       -0.2060
     12  C         24.4650  -22.3800  -11.1290 C.2     1  UNL1        0.0770
     13  C         25.3970  -21.3120  -11.1070 C.2     1  UNL1        0.0270
     14  C         26.2660  -21.1050  -12.1840 C.2     1  UNL1        0.0330
     15  C         26.1570  -21.9800  -13.2410 C.ar    1  UNL1        0.0630
     16  N         26.8760  -22.0280  -14.4290 N.ar    1  UNL1       -0.3070
     17  C         25.2300  -23.0250  -13.2580 C.ar    1  UNL1        0.0640
     18  C         26.4040  -23.1030  -15.1980 C.ar    1  UNL1        0.3250
     19  H         27.6140  -21.4110  -14.7250 H       1  UNL1        0.1700
     20  O         26.8080  -23.4430  -16.2950 O.2     1  UNL1       -0.2470
     21  N         25.3820  -23.7120  -14.4560 N.ar    1  UNL1       -0.3060
     22  H         24.8610  -24.5120  -14.7750 H       1  UNL1        0.1700
     23  C         24.3620  -23.2540  -12.2200 C.2     1  UNL1        0.0560
     24  C         19.5710  -23.4370   -8.9370 C.2     1  UNL1        0.2530
     25  N         18.9280  -22.9500   -7.8220 N.am    1  UNL1       -0.3520
     26  H         18.4060  -22.0870   -7.8920 H       1  UNL1        0.1630
     27  O         19.9990  -24.5840   -9.0370 O.2     1  UNL1       -0.2680
     28  C         18.5460  -23.8160   -6.7250 C.3     1  UNL1        0.1640
     29  C         17.3190  -23.2770   -6.0310 C.2     1  UNL1       -0.0070
     30  C         17.4480  -22.7760   -4.7210 C.2     1  UNL1        0.0110
     31  C         16.3370  -22.2920   -4.0320 C.2     1  UNL1        0.0010
     32  C         15.0850  -22.3070   -4.6420 C.2     1  UNL1        0.0030
     33  C         14.9370  -22.8190   -5.9360 C.2     1  UNL1        0.0370
     34  C         16.0460  -23.3100   -6.6360 C.2     1  UNL1        0.0760
     35  O         15.9880  -23.8650   -7.8890 O.2     1  UNL1       -0.3550
     36  C         15.6650  -23.0010   -8.9730 C.3     1  UNL1        0.2100
@<TRIPOS>BOND
     1    20    18    2
     2    18    21   ar
     3    18    16   ar
     4    22    21    1
     5    19    16    1
     6    21    17   ar
     7    16    15   ar
     8    17    15   ar
     9    17    23    1
    10    15    14    1
    11     4     5    2
    12     4     3    1
    13    23    12    2
    14    14    13    2
    15     5     6    1
    16     3     2    2
    17     8     7    1
    18    12    13    1
    19    12     9    1
    20     6     7    1
    21     6     1    2
    22     7     9    1
    23     2     1    1
    24     1    24    1
    25     9    11    2
    26     9    10    2
    27    27    24    2
    28    36    35    1
    29    24    25   am
    30    26    25    1
    31    35    34    1
    32    25    28    1
    33    28    29    1
    34    34    29    2
    35    34    33    1
    36    29    30    1
    37    33    32    2
    38    30    31    2
    39    32    31    1
