@<TRIPOS>MOLECULE
66065_out_ligand_01.pdbqt
 35 38 0 0 0
SMALL
GASTEIGER

@<TRIPOS>ATOM
      1  N         25.2570  -20.4330  -13.7670 N.1     1  UNL1       -0.1910
      2  C         25.1190  -21.0220  -14.7580 C.1     1  UNL1        0.1050
      3  C         24.9470  -21.7540  -15.9680 C.ar    1  UNL1        0.1150
      4  C         24.9660  -23.1610  -16.1460 C.ar    1  UNL1        0.0790
      5  N         24.7820  -23.4940  -17.4330 N.ar    1  UNL1       -0.1760
      6  N         24.6460  -22.3100  -18.0580 N.ar    1  UNL1       -0.2610
      7  C         24.7250  -21.2270  -17.2210 C.ar    1  UNL1        0.1380
      8  N         24.6060  -19.9650  -17.6840 N.pl3   1  UNL1       -0.3830
      9  H         24.5090  -22.3080  -19.0610 H       1  UNL1        0.1910
     10  H         24.2420  -19.7460  -18.6100 H       1  UNL1        0.1570
     11  H         24.5270  -19.1790  -17.0390 H       1  UNL1        0.1570
     12  C         25.1760  -24.2240  -15.1130 C.3     1  UNL1        0.0640
     13  C         26.4310  -24.0370  -14.2590 C.3     1  UNL1        0.0260
     14  C         26.1230  -23.9510  -12.7680 C.3     1  UNL1        0.1230
     15  N         24.7150  -23.6850  -12.5420 N.am    1  UNL1       -0.3570
     16  C         24.3130  -22.9190  -11.4660 C.2     1  UNL1        0.2510
     17  O         25.0780  -22.5100  -10.6000 O.2     1  UNL1       -0.2680
     18  H         24.1130  -23.7060  -13.3550 H       1  UNL1        0.1620
     19  C         22.8660  -22.5600  -11.4100 C.2     1  UNL1        0.0320
     20  C         22.2830  -21.6750  -12.3270 C.2     1  UNL1        0.0180
     21  C         20.9190  -21.3760  -12.2410 C.2     1  UNL1        0.0190
     22  C         20.1320  -21.9590  -11.2410 C.2     1  UNL1        0.0450
     23  C         20.7060  -22.8500  -10.3260 C.2     1  UNL1       -0.0380
     24  C         18.6760  -21.6570  -11.1880 C.2     1  UNL1        0.2940
     25  C         22.0700  -23.1590  -10.4220 C.2     1  UNL1        0.0250
     26  C         19.8270  -23.4960   -9.2940 C.3     1  UNL1        0.0770
     27  C         18.7250  -22.5050   -8.9180 C.3     1  UNL1        0.1690
     28  O         17.9990  -22.1170  -10.1070 O.3     1  UNL1       -0.3070
     29  O         18.1240  -21.0430  -12.0910 O.2     1  UNL1       -0.2590
     30  C         17.7050  -22.9900   -7.9020 C.2     1  UNL1       -0.0290
     31  C         16.5610  -22.2040   -7.6730 C.2     1  UNL1        0.0100
     32  C         15.5930  -22.5890   -6.7450 C.2     1  UNL1        0.0010
     33  C         15.7500  -23.7690   -6.0250 C.2     1  UNL1        0.0000
     34  C         16.8740  -24.5630   -6.2370 C.2     1  UNL1        0.0010
     35  C         17.8460  -24.1780   -7.1670 C.2     1  UNL1        0.0100
@<TRIPOS>BOND
     1     9     6    1
     2    10     8    1
     3     6     5   ar
     4     6     7   ar
     5     8     7    1
     6     8    11    1
     7     5     4   ar
     8     7     3   ar
     9     4     3   ar
    10     4    12    1
    11     3     2    1
    12    12    13    1
    13     2     1    3
    14    13    14    1
    15    18    15    1
    16    14    15    1
    17    15    16   am
    18    20    21    1
    19    20    19    2
    20    21    22    2
    21    29    24    2
    22    16    19    1
    23    16    17    2
    24    19    25    1
    25    22    24    1
    26    22    23    1
    27    24    28    1
    28    25    23    2
    29    23    26    1
    30    28    27    1
    31    26    27    1
    32    27    30    1
    33    30    31    2
    34    30    35    1
    35    31    32    1
    36    35    34    2
    37    32    33    2
    38    34    33    1
