@<TRIPOS>MOLECULE
66068_out_ligand_01.pdbqt
 28 30 0 0 0
SMALL
GASTEIGER

@<TRIPOS>ATOM
      1  N         21.7980  -22.4740  -10.2180 N.am    1  UNL1       -0.3230
      2  C         21.6510  -22.1340   -8.8870 C.2     1  UNL1        0.2590
      3  O         22.5480  -21.7390   -8.1500 O.2     1  UNL1       -0.2670
      4  H         20.9710  -22.8540  -10.6710 H       1  UNL1        0.1690
      5  C         22.9570  -22.3930  -11.0120 C.2     1  UNL1        0.0360
      6  C         24.1030  -23.0310  -10.5290 C.2     1  UNL1        0.0300
      7  C         25.3030  -22.9870  -11.2430 C.2     1  UNL1        0.0100
      8  C         25.3920  -22.3020  -12.4650 C.2     1  UNL1       -0.0390
      9  C         26.7130  -22.2980  -13.1820 C.3     1  UNL1        0.0500
     10  C         24.2280  -21.6870  -12.9630 C.2     1  UNL1        0.0820
     11  C         23.0220  -21.7320  -12.2380 C.2     1  UNL1        0.0540
     12  S         24.2110  -20.8310  -14.5280 S.O2    1  UNL1        0.2390
     13  O         25.1940  -19.7750  -14.5120 O.2     1  UNL1       -0.2060
     14  O         24.1570  -21.7990  -15.5990 O.2     1  UNL1       -0.2060
     15  N         22.6790  -20.1240  -14.5050 N.3     1  UNL1       -0.2250
     16  H         22.5260  -19.5450  -13.6800 H       1  UNL1        0.1360
     17  H         21.9870  -20.8770  -14.5560 H       1  UNL1        0.1360
     18  C         20.2760  -22.2910   -8.3160 C.2     1  UNL1        0.0660
     19  C         20.0980  -22.1050   -6.9340 C.2     1  UNL1        0.0200
     20  C         18.8320  -22.2390   -6.3400 C.2     1  UNL1        0.0020
     21  C         17.7170  -22.5630   -7.1130 C.2     1  UNL1        0.0100
     22  C         17.8890  -22.7340   -8.4770 C.2     1  UNL1       -0.0170
     23  C         19.1450  -22.6000   -9.0630 C.2     1  UNL1        0.0910
     24  C         16.8990  -23.1420   -9.5130 C.3     1  UNL1        0.0460
     25  O         19.1220  -22.8200  -10.4240 O.2     1  UNL1       -0.3440
     26  C         17.7100  -22.7890  -10.7770 C.3     1  UNL1        0.1330
     27  C         17.4180  -21.4310  -11.4140 C.3     1  UNL1        0.0400
     28  C         15.5230  -22.5060   -9.4010 C.3     1  UNL1        0.0170
@<TRIPOS>BOND
     1    14    12    2
     2    17    15    1
     3    12    13    2
     4    12    15    1
     5    12    10    1
     6    15    16    1
     7     9     8    1
     8    10     8    2
     9    10    11    1
    10     8     7    1
    11    11     5    2
    12    27    26    1
    13     7     6    2
    14     5     6    1
    15     5     1    1
    16    26    25    1
    17    26    24    1
    18     4     1    1
    19    25    23    1
    20     1     2   am
    21    24    28    1
    22    24    22    1
    23    23    22    1
    24    23    18    2
    25     2    18    1
    26     2     3    2
    27    22    21    2
    28    18    19    1
    29    21    20    1
    30    19    20    2
