@<TRIPOS>MOLECULE
66067_out_ligand_01.pdbqt
 37 41 0 0 0
SMALL
GASTEIGER

@<TRIPOS>ATOM
      1  O         23.9610  -20.9680  -10.1730 O.2     1  UNL1       -0.2730
      2  C         23.7150  -22.1640  -10.0520 C.2     1  UNL1        0.2280
      3  N         23.7850  -23.1110  -11.0580 N.am    1  UNL1       -0.3270
      4  H         23.5780  -24.0720  -10.8100 H       1  UNL1        0.1690
      5  C         24.0860  -22.8990  -12.4200 C.2     1  UNL1        0.0340
      6  C         23.4130  -21.8510  -13.0660 C.2     1  UNL1        0.0310
      7  C         23.6510  -21.5730  -14.4150 C.2     1  UNL1        0.0270
      8  C         24.5730  -22.3430  -15.1260 C.2     1  UNL1        0.0790
      9  C         25.2690  -23.3700  -14.4900 C.2     1  UNL1        0.0270
     10  C         25.0160  -23.6510  -13.1420 C.2     1  UNL1        0.0310
     11  S         24.9050  -21.9750  -16.8320 S.O2    1  UNL1        0.2590
     12  O         23.8900  -22.6040  -17.6480 O.2     1  UNL1       -0.2010
     13  O         26.3170  -22.1930  -17.0630 O.2     1  UNL1       -0.2010
     14  N         24.6700  -20.3250  -16.8740 N.3     1  UNL1       -0.3090
     15  H         24.3430  -19.9330  -15.9930 H       1  UNL1        0.1720
     16  C         25.6030  -19.5220  -17.6540 C.3     1  UNL1        0.1970
     17  C         26.1850  -18.4940  -16.7530 C.2     1  UNL1        0.0700
     18  C         26.5330  -18.4930  -15.4180 C.2     1  UNL1        0.0360
     19  C         27.0180  -17.1940  -15.1330 C.2     1  UNL1        0.0270
     20  C         26.9560  -16.4930  -16.3160 C.2     1  UNL1        0.1420
     21  O         26.4480  -17.2730  -17.3050 O.2     1  UNL1       -0.3250
     22  C         23.3240  -22.7040   -8.6800 C.3     1  UNL1        0.1050
     23  C         23.0640  -24.2020   -8.6900 C.3     1  UNL1        0.1190
     24  C         21.5580  -24.3180   -8.7790 C.2     1  UNL1        0.2250
     25  O         20.9860  -25.3830   -8.9420 O.2     1  UNL1       -0.2730
     26  N         21.0120  -23.0340   -8.6260 N.am    1  UNL1       -0.3160
     27  C         22.0330  -22.1120   -8.1610 C.3     1  UNL1        0.1470
     28  C         19.6200  -22.7150   -8.5560 C.2     1  UNL1        0.0480
     29  C         18.9640  -22.9320   -7.3260 C.2     1  UNL1        0.0300
     30  C         17.6000  -22.7180   -7.1770 C.2     1  UNL1        0.0030
     31  C         16.8550  -22.2720   -8.2560 C.2     1  UNL1        0.0120
     32  C         17.4660  -21.9870   -9.4830 C.2     1  UNL1       -0.0240
     33  C         16.6710  -21.4940  -10.5350 C.2     1  UNL1        0.0120
     34  C         18.8680  -22.1750   -9.6520 C.2     1  UNL1        0.0010
     35  C         17.2340  -21.1410  -11.7590 C.2     1  UNL1        0.0010
     36  C         18.6030  -21.2490  -11.9350 C.2     1  UNL1        0.0010
     37  C         19.4020  -21.7410  -10.8960 C.2     1  UNL1        0.0140
@<TRIPOS>BOND
     1    16    14    1
     2    16    17    1
     3    12    11    2
     4    21    17    1
     5    21    20    1
     6    13    11    2
     7    14    11    1
     8    14    15    1
     9    11     8    1
    10    17    18    2
    11    20    19    2
    12    18    19    1
    13     8     9    2
    14     8     7    1
    15     9    10    1
    16     7     6    2
    17    10     5    2
    18     6     5    1
    19     5     3    1
    20    36    35    1
    21    36    37    2
    22    35    33    2
    23     3     4    1
    24     3     2   am
    25    37    34    1
    26    33    32    1
    27     1     2    2
    28     2    22    1
    29    34    32    1
    30    34    28    2
    31    32    31    2
    32    25    24    2
    33    24    23    1
    34    24    26   am
    35    23    22    1
    36    22    27    1
    37    26    28    1
    38    26    27    1
    39    28    29    1
    40    31    30    1
    41    29    30    2
