@<TRIPOS>MOLECULE
66076_out_ligand_01.pdbqt
 36 40 0 0 0
SMALL
GASTEIGER

@<TRIPOS>ATOM
      1  C         21.4110  -22.7410   -9.9050 C.2     1  UNL1        0.0330
      2  C         21.6530  -23.9010   -9.1550 C.2     1  UNL1        0.0170
      3  C         20.5860  -24.6140   -8.6030 C.2     1  UNL1        0.0030
      4  C         19.2750  -24.1830   -8.8110 C.2     1  UNL1        0.0250
      5  C         19.0380  -23.0430   -9.5860 C.2     1  UNL1        0.0800
      6  C         20.0990  -22.3100  -10.1250 C.2     1  UNL1        0.0420
      7  C         22.5250  -21.9670  -10.5190 C.2     1  UNL1        0.2560
      8  O         23.0150  -21.0530   -9.8700 O.2     1  UNL1       -0.2670
      9  N         22.9070  -22.4030  -11.7750 N.am    1  UNL1       -0.3230
     10  H         22.4800  -23.2560  -12.1110 H       1  UNL1        0.1690
     11  C         23.9000  -21.8450  -12.6090 C.2     1  UNL1        0.0370
     12  C         25.2390  -21.6390  -12.1980 C.2     1  UNL1        0.0320
     13  C         26.1970  -21.0750  -13.0550 C.2     1  UNL1        0.0340
     14  C         25.7720  -20.7300  -14.3130 C.ar    1  UNL1        0.0630
     15  N         26.4760  -20.1610  -15.3670 N.ar    1  UNL1       -0.3070
     16  C         24.4580  -20.9250  -14.7270 C.ar    1  UNL1        0.0650
     17  C         25.6050  -19.9960  -16.4530 C.ar    1  UNL1        0.3250
     18  H         27.4490  -19.9010  -15.3830 H       1  UNL1        0.1700
     19  O         25.8790  -19.5270  -17.5430 O.2     1  UNL1       -0.2470
     20  N         24.3530  -20.4750  -16.0390 N.ar    1  UNL1       -0.3060
     21  H         23.5370  -20.4800  -16.6280 H       1  UNL1        0.1700
     22  C         23.5020  -21.4760  -13.9060 C.2     1  UNL1        0.0610
     23  S         17.3650  -22.4930   -9.8500 S.O2    1  UNL1        0.2630
     24  O         16.5130  -23.6620   -9.8790 O.2     1  UNL1       -0.2000
     25  O         17.3900  -21.5580  -10.9540 O.2     1  UNL1       -0.2000
     26  N         17.0400  -21.5780   -8.4690 N.pl3   1  UNL1       -0.2810
     27  H         17.6200  -20.7430   -8.4160 H       1  UNL1        0.1790
     28  C         16.7110  -22.2400   -7.2530 C.2     1  UNL1        0.0450
     29  C         15.4730  -22.8910   -7.1080 C.2     1  UNL1        0.0330
     30  C         15.1680  -23.5860   -5.9330 C.2     1  UNL1        0.0420
     31  C         16.1210  -23.6080   -4.9390 C.2     1  UNL1        0.1050
     32  C         17.3310  -22.9710   -5.0820 C.2     1  UNL1        0.1070
     33  O         16.0040  -24.2340   -3.7380 O.2     1  UNL1       -0.3230
     34  C         17.6580  -22.2730   -6.2260 C.2     1  UNL1        0.0690
     35  O         18.1290  -23.1210   -3.9900 O.2     1  UNL1       -0.3230
     36  C         17.2920  -23.9510   -3.1550 C.3     1  UNL1        0.3520
@<TRIPOS>BOND
     1    19    17    2
     2    21    20    1
     3    17    20   ar
     4    17    15   ar
     5    20    16   ar
     6    18    15    1
     7    15    14   ar
     8    16    14   ar
     9    16    22    1
    10    14    13    1
    11    22    11    2
    12    13    12    2
    13    11    12    1
    14    11     9    1
    15    10     9    1
    16     9     7   am
    17    25    23    2
    18     7     1    1
    19     7     8    2
    20     6     1    2
    21     6     5    1
    22     1     2    1
    23    24    23    2
    24    23     5    1
    25    23    26    1
    26     5     4    2
    27     2     3    2
    28     4     3    1
    29    26    27    1
    30    26    28    1
    31    28    29    2
    32    28    34    1
    33    29    30    1
    34    34    32    2
    35    30    31    2
    36    32    31    1
    37    32    35    1
    38    31    33    1
    39    35    36    1
    40    33    36    1
