@<TRIPOS>MOLECULE
66099_out_ligand_01.pdbqt
 30 32 0 0 0
SMALL
GASTEIGER

@<TRIPOS>ATOM
      1  C         24.2260  -21.7690  -11.0640 C.2     1  UNL1        0.2510
      2  O         25.0070  -20.9920  -10.5280 O.2     1  UNL1       -0.2680
      3  N         23.1650  -22.3590  -10.4120 N.am    1  UNL1       -0.3530
      4  H         22.7160  -23.1600  -10.8320 H       1  UNL1        0.1630
      5  C         22.9580  -22.1740   -8.9920 C.3     1  UNL1        0.1610
      6  C         21.6540  -22.7920   -8.5580 C.2     1  UNL1       -0.0400
      7  C         20.8230  -22.1200   -7.6490 C.2     1  UNL1        0.0110
      8  C         19.6250  -22.6950   -7.2200 C.2     1  UNL1        0.0380
      9  C         19.2440  -23.9450   -7.7110 C.2     1  UNL1        0.0760
     10  C         20.0740  -24.6370   -8.5910 C.2     1  UNL1        0.0380
     11  C         21.2730  -24.0620   -9.0170 C.2     1  UNL1        0.0110
     12  O         18.0940  -24.5820   -7.3030 O.2     1  UNL1       -0.3110
     13  C         17.1960  -23.8520   -6.5580 C.2     1  UNL1        0.0760
     14  C         16.1400  -23.1360   -7.1320 C.2     1  UNL1        0.0400
     15  C         15.2440  -22.4500   -6.3110 C.2     1  UNL1        0.0450
     16  C         15.4020  -22.5000   -4.9290 C.2     1  UNL1        0.1160
     17  F         14.5400  -21.8420   -4.1430 F       1  UNL1       -0.2060
     18  C         16.4360  -23.2290   -4.3500 C.2     1  UNL1        0.0450
     19  C         17.3330  -23.9160   -5.1680 C.2     1  UNL1        0.0400
     20  C         24.4240  -22.1550  -12.4910 C.2     1  UNL1        0.0320
     21  C         23.8430  -21.3540  -13.4820 C.2     1  UNL1        0.0180
     22  C         23.9970  -21.6740  -14.8360 C.2     1  UNL1        0.0180
     23  C         24.7380  -22.8020  -15.2080 C.2     1  UNL1        0.0310
     24  C         25.2960  -23.6190  -14.2150 C.2     1  UNL1        0.0180
     25  C         25.1410  -23.3000  -12.8610 C.2     1  UNL1        0.0180
     26  C         24.9350  -23.1930  -16.6300 C.2     1  UNL1        0.2490
     27  N         23.8230  -23.3020  -17.4190 N.am    1  UNL1       -0.3660
     28  H         22.9320  -22.9040  -17.1630 H       1  UNL1        0.1590
     29  H         23.9960  -23.4530  -18.4050 H       1  UNL1        0.1590
     30  O         26.0520  -23.3790  -17.0960 O.2     1  UNL1       -0.2680
@<TRIPOS>BOND
     1    29    27    1
     2    27    28    1
     3    27    26   am
     4    30    26    2
     5    26    23    1
     6    23    22    2
     7    23    24    1
     8    22    21    1
     9    24    25    2
    10    21    20    2
    11    25    20    1
    12    20     1    1
    13     1     2    2
    14     1     3   am
    15     4     3    1
    16     3     5    1
    17    11    10    1
    18    11     6    2
    19     5     6    1
    20    10     9    2
    21     6     7    1
    22     9    12    1
    23     9     8    1
    24     7     8    2
    25    12    13    1
    26    14    13    2
    27    14    15    1
    28    13    19    1
    29    15    16    2
    30    19    18    2
    31    16    18    1
    32    16    17    1
