@<TRIPOS>MOLECULE
66102_out_ligand_01.pdbqt
 29 31 0 0 0
SMALL
GASTEIGER

@<TRIPOS>ATOM
      1  N         20.5070  -25.3680   -9.0490 N.1     1  UNL1       -0.1910
      2  C         20.0560  -24.4250   -9.5510 C.1     1  UNL1        0.1000
      3  C         19.4640  -23.2570  -10.1440 C.2     1  UNL1        0.0550
      4  C         18.0640  -23.1930  -10.2270 C.2     1  UNL1        0.0230
      5  C         17.4390  -22.0690  -10.7650 C.2     1  UNL1        0.0020
      6  C         18.2040  -20.9960  -11.2100 C.2     1  UNL1        0.0010
      7  C         19.5970  -21.0480  -11.1250 C.2     1  UNL1        0.0140
      8  C         20.2520  -22.1840  -10.6120 C.2     1  UNL1       -0.0040
      9  C         21.7280  -22.2120  -10.5910 C.2     1  UNL1       -0.0090
     10  C         22.4130  -22.4950  -11.7880 C.2     1  UNL1        0.0130
     11  C         23.8090  -22.4870  -11.8430 C.2     1  UNL1        0.0010
     12  C         24.5510  -22.1860  -10.7050 C.2     1  UNL1        0.0010
     13  C         23.8980  -21.9070   -9.5050 C.2     1  UNL1        0.0180
     14  C         22.4960  -21.9360   -9.4370 C.2     1  UNL1        0.0430
     15  C         21.8960  -21.6390   -8.1050 C.2     1  UNL1        0.2580
     16  O         22.5560  -21.0050   -7.2920 O.2     1  UNL1       -0.2670
     17  N         20.6460  -22.1690   -7.9060 N.am    1  UNL1       -0.3070
     18  H         20.2320  -22.7600   -8.6150 H       1  UNL1        0.1700
     19  C         19.7950  -21.9990   -6.8170 C.2     1  UNL1        0.1310
     20  C         19.8730  -20.9450   -5.9180 C.2     1  UNL1        0.0500
     21  C         18.9420  -20.8700   -4.8840 C.2     1  UNL1        0.0060
     22  C         17.9600  -21.8480   -4.7770 C.2     1  UNL1        0.0370
     23  C         17.9560  -22.8730   -5.7170 C.2     1  UNL1        0.1260
     24  N         18.8550  -22.9600   -6.7290 N.2     1  UNL1       -0.2260
     25  C         16.9230  -23.9600   -5.6740 C.2     1  UNL1        0.2680
     26  N         16.5250  -24.5020   -6.8720 N.am    1  UNL1       -0.3650
     27  H         15.7250  -25.1210   -6.8130 H       1  UNL1        0.1590
     28  H         16.6570  -24.0110   -7.7450 H       1  UNL1        0.1590
     29  O         16.4170  -24.3500   -4.6290 O.2     1  UNL1       -0.2660
@<TRIPOS>BOND
     1    11    10    1
     2    11    12    2
     3    10     9    2
     4     6     7    2
     5     6     5    1
     6     7     8    1
     7     5     4    2
     8    12    13    1
     9     8     9    1
    10     8     3    2
    11     9    14    1
    12     4     3    1
    13     3     2    1
    14     2     1    3
    15    13    14    2
    16    14    15    1
    17    18    17    1
    18    15    17   am
    19    15    16    2
    20    17    19    1
    21    28    26    1
    22    26    27    1
    23    26    25   am
    24    19    24    2
    25    19    20    1
    26    24    23    1
    27    20    21    2
    28    23    25    1
    29    23    22    2
    30    25    29    2
    31    21    22    1
