@<TRIPOS>MOLECULE
66110_out_ligand_01.pdbqt
 35 38 0 0 0
SMALL
GASTEIGER

@<TRIPOS>ATOM
      1  C         17.3840  -22.8650   -9.1810 C.2     1  UNL1        0.0820
      2  C         16.9320  -22.0010  -10.1770 C.2     1  UNL1        0.0260
      3  C         17.8410  -21.4870  -11.0980 C.2     1  UNL1        0.0100
      4  C         19.2040  -21.8300  -11.0370 C.2     1  UNL1       -0.0350
      5  C         20.1330  -21.2280  -12.0590 C.3     1  UNL1        0.0500
      6  C         19.6590  -22.7090  -10.0260 C.2     1  UNL1        0.0420
      7  C         18.7370  -23.2220   -9.1070 C.2     1  UNL1        0.0550
      8  N         21.0290  -23.0480   -9.9930 N.am    1  UNL1       -0.3260
      9  C         21.9700  -22.7600   -9.0160 C.2     1  UNL1        0.2270
     10  O         21.7760  -22.1280   -7.9790 O.2     1  UNL1       -0.2730
     11  H         21.4030  -23.5160  -10.8160 H       1  UNL1        0.1690
     12  C         23.3370  -23.3680   -9.3000 C.3     1  UNL1        0.1630
     13  C         24.0350  -22.6720  -10.4230 C.2     1  UNL1        0.0510
     14  C         24.8030  -21.5290  -10.3460 C.2     1  UNL1        0.0790
     15  S         25.3710  -21.1010  -11.9010 S.3     1  UNL1       -0.0790
     16  C         24.5640  -22.4630  -12.5830 C.2     1  UNL1        0.1090
     17  N         23.8990  -23.1940  -11.7050 N.2     1  UNL1       -0.2440
     18  C         24.6250  -22.7690  -14.0210 C.2     1  UNL1        0.0170
     19  C         25.1940  -23.9300  -14.5590 C.2     1  UNL1        0.0170
     20  C         25.2180  -24.1240  -15.9420 C.2     1  UNL1        0.0200
     21  C         24.6770  -23.1450  -16.7550 C.2     1  UNL1        0.1160
     22  N         24.1240  -22.0080  -16.2850 N.2     1  UNL1       -0.2720
     23  C         24.1090  -21.8520  -14.9370 C.2     1  UNL1        0.1300
     24  S         16.2610  -23.5880   -8.0040 S.O2    1  UNL1        0.2630
     25  O         15.6210  -24.7110   -8.6470 O.2     1  UNL1       -0.2000
     26  O         15.4990  -22.4970   -7.4320 O.2     1  UNL1       -0.2000
     27  N         17.2700  -24.0880   -6.7420 N.pl3   1  UNL1       -0.2810
     28  H         18.0830  -24.5560   -7.1510 H       1  UNL1        0.1790
     29  C         17.5470  -23.2380   -5.6220 C.2     1  UNL1        0.0430
     30  C         17.2500  -23.5830   -4.3040 C.2     1  UNL1        0.0300
     31  C         17.6390  -22.7520   -3.2500 C.2     1  UNL1        0.0030
     32  C         18.3550  -21.5840   -3.5050 C.2     1  UNL1        0.0070
     33  C         18.6870  -21.2340   -4.8170 C.2     1  UNL1       -0.0600
     34  C         19.4950  -20.0010   -5.0900 C.3     1  UNL1        0.0480
     35  C         18.3010  -22.0820   -5.8660 C.2     1  UNL1        0.0370
@<TRIPOS>BOND
     1    21    22    2
     2    21    20    1
     3    22    23    1
     4    20    19    2
     5    23    18    2
     6    19    18    1
     7    18    16    1
     8    16    15    1
     9    16    17    2
    10     5     4    1
    11    15    14    1
    12    17    13    1
    13     3     4    2
    14     3     2    1
    15     4     6    1
    16    11     8    1
    17    13    14    2
    18    13    12    1
    19     2     1    2
    20     6     8    1
    21     6     7    2
    22     8     9   am
    23    12     9    1
    24     1     7    1
    25     1    24    1
    26     9    10    2
    27    25    24    2
    28    24    26    2
    29    24    27    1
    30    28    27    1
    31    27    29    1
    32    35    29    2
    33    35    33    1
    34    29    30    1
    35    34    33    1
    36    33    32    2
    37    30    31    2
    38    32    31    1
