@<TRIPOS>MOLECULE
66127_out_ligand_01.pdbqt
 37 41 0 0 0
SMALL
GASTEIGER

@<TRIPOS>ATOM
      1  C         21.7410  -21.7260  -10.5980 C.2     1  UNL1        0.2570
      2  O         21.7670  -21.1270   -9.5290 O.2     1  UNL1       -0.2670
      3  N         20.6280  -22.2480  -11.2310 N.am    1  UNL1       -0.3230
      4  H         20.7900  -22.8890  -11.9980 H       1  UNL1        0.1690
      5  C         19.2800  -22.0930  -10.8420 C.2     1  UNL1        0.0360
      6  C         18.4730  -21.2650  -11.6340 C.2     1  UNL1        0.0290
      7  C         17.1250  -21.0630  -11.3190 C.2     1  UNL1        0.0040
      8  C         16.5690  -21.6880  -10.2070 C.2     1  UNL1        0.0250
      9  C         17.3750  -22.5070   -9.4120 C.2     1  UNL1        0.0770
     10  C         18.7280  -22.6970   -9.7140 C.2     1  UNL1        0.0540
     11  S         16.6980  -23.2990   -7.9730 S.O2    1  UNL1        0.2460
     12  O         15.8550  -22.3350   -7.3010 O.2     1  UNL1       -0.2060
     13  O         16.2000  -24.5960   -8.3810 O.2     1  UNL1       -0.2060
     14  N         18.1160  -23.6150   -7.0800 N.pl3   1  UNL1       -0.1780
     15  H         18.0370  -24.5900   -6.7760 H       1  UNL1        0.1460
     16  C         18.3270  -22.7410   -5.9590 C.2     1  UNL1        0.0610
     17  C         19.0140  -21.5400   -6.1280 C.2     1  UNL1        0.0270
     18  C         19.1610  -20.6680   -5.0440 C.2     1  UNL1        0.0020
     19  C         18.6130  -20.9890   -3.8000 C.2     1  UNL1        0.0030
     20  C         17.9120  -22.1850   -3.6330 C.2     1  UNL1        0.0440
     21  C         17.7690  -23.0480   -4.7140 C.2     1  UNL1        0.1380
     22  F         17.0960  -24.1980   -4.5530 F       1  UNL1       -0.2040
     23  C         23.0280  -22.0030  -11.2690 C.2     1  UNL1        0.0490
     24  C         23.2370  -21.7680  -12.6330 C.2     1  UNL1        0.0460
     25  C         22.5400  -21.2370  -13.7400 C.2     1  UNL1        0.1550
     26  C         24.4830  -22.1000  -13.1420 C.2     1  UNL1        0.1590
     27  N         23.2490  -21.2800  -14.8710 N.2     1  UNL1       -0.1820
     28  N         24.4390  -21.8020  -14.4790 N.pl3   1  UNL1       -0.2480
     29  N         25.5280  -22.6080  -12.4620 N.2     1  UNL1       -0.2330
     30  C         25.3180  -22.7940  -11.1360 C.2     1  UNL1        0.0420
     31  C         24.1000  -22.5000  -10.5180 C.2     1  UNL1        0.0450
     32  C         25.5150  -21.9960  -15.4450 C.3     1  UNL1        0.1040
     33  C         25.8700  -20.6870  -16.1510 C.3     1  UNL1        0.0340
     34  C         25.1730  -23.0960  -16.4500 C.3     1  UNL1        0.0340
     35  C         26.4650  -23.3300  -10.3060 C.3     1  UNL1        0.0380
     36  C         26.2630  -24.5580   -9.4470 C.3     1  UNL1        0.0110
     37  C         27.1210  -24.6420  -10.6730 C.3     1  UNL1        0.0110
@<TRIPOS>BOND
     1    34    32    1
     2    33    32    1
     3    32    28    1
     4    27    28    1
     5    27    25    2
     6    28    26    1
     7    25    24    1
     8    26    24    1
     9    26    29    2
    10    24    23    2
    11    29    30    1
    12     4     3    1
    13     6     7    1
    14     6     5    2
    15     7     8    2
    16    23     1    1
    17    23    31    1
    18     3     5    1
    19     3     1   am
    20    30    31    2
    21    30    35    1
    22     5    10    1
    23    37    35    1
    24    37    36    1
    25     1     2    2
    26    35    36    1
    27     8     9    1
    28    10     9    2
    29     9    11    1
    30    13    11    2
    31    11    12    2
    32    11    14    1
    33    14    15    1
    34    14    16    1
    35    17    16    2
    36    17    18    1
    37    16    21    1
    38    18    19    2
    39    21    22    1
    40    21    20    2
    41    19    20    1
