@<TRIPOS>MOLECULE
66123_out_ligand_01.pdbqt
 37 40 0 0 0
SMALL
GASTEIGER

@<TRIPOS>ATOM
      1  C         18.6580  -21.9180   -5.6060 C.2     1  UNL1        0.0910
      2  C         19.7510  -21.1080   -5.9310 C.2     1  UNL1        0.0390
      3  C         20.6290  -21.4860   -6.9500 C.2     1  UNL1        0.0200
      4  C         20.4100  -22.6760   -7.6550 C.2     1  UNL1        0.0340
      5  C         19.2960  -23.4700   -7.3590 C.2     1  UNL1        0.0450
      6  C         18.4190  -23.0870   -6.3340 C.2     1  UNL1        0.1130
      7  C         21.3140  -23.1020   -8.7570 C.2     1  UNL1        0.2560
      8  O         21.4770  -24.3010   -8.9340 O.2     1  UNL1       -0.2670
      9  N         21.9090  -22.0660   -9.4520 N.am    1  UNL1       -0.3230
     10  H         21.7600  -21.1310   -9.0950 H       1  UNL1        0.1690
     11  C         22.7880  -22.1650  -10.5540 C.2     1  UNL1        0.0370
     12  C         24.0900  -22.7130  -10.4660 C.2     1  UNL1        0.0320
     13  C         24.9320  -22.7960  -11.5860 C.2     1  UNL1        0.0340
     14  C         24.4330  -22.3220  -12.7720 C.ar    1  UNL1        0.0630
     15  N         25.0190  -22.2690  -14.0300 N.ar    1  UNL1       -0.3070
     16  C         23.1540  -21.7840  -12.8700 C.ar    1  UNL1        0.0650
     17  C         24.1090  -21.6950  -14.9280 C.ar    1  UNL1        0.3250
     18  H         25.9420  -22.5800  -14.2880 H       1  UNL1        0.1700
     19  O         24.2840  -21.4920  -16.1160 O.2     1  UNL1       -0.2470
     20  N         22.9520  -21.4000  -14.1920 N.ar    1  UNL1       -0.3060
     21  H         22.1320  -20.9740  -14.5920 H       1  UNL1        0.1700
     22  C         22.3090  -21.6920  -11.7870 C.2     1  UNL1        0.0610
     23  S         17.0270  -24.1200   -5.9680 S.O2    1  UNL1        0.2610
     24  O         16.9510  -24.2610   -4.5310 O.2     1  UNL1       -0.2000
     25  O         17.0770  -25.2810   -6.8310 O.2     1  UNL1       -0.2000
     26  N         15.7340  -23.1890   -6.4500 N.3     1  UNL1       -0.3150
     27  H         14.8150  -23.5280   -6.1660 H       1  UNL1        0.1720
     28  C         15.8420  -22.2570   -7.5740 C.3     1  UNL1        0.1380
     29  C         15.7900  -23.0140   -8.9020 C.3     1  UNL1        0.0790
     30  C         16.7530  -22.4520   -9.9140 C.2     1  UNL1        0.0350
     31  C         17.8830  -23.1740  -10.2950 C.2     1  UNL1        0.0270
     32  C         18.7620  -22.6080  -11.2140 C.2     1  UNL1        0.0030
     33  C         18.4940  -21.3450  -11.7250 C.2     1  UNL1        0.0190
     34  C         17.3510  -20.6940  -11.2920 C.2     1  UNL1        0.1170
     35  N         16.4810  -21.2170  -10.4010 N.2     1  UNL1       -0.2660
     36  O         17.7880  -21.4870   -4.6420 O.2     1  UNL1       -0.3540
     37  C         18.4480  -21.3660   -3.3790 C.3     1  UNL1        0.2100
@<TRIPOS>BOND
     1    19    17    2
     2    17    20   ar
     3    17    15   ar
     4    21    20    1
     5    18    15    1
     6    20    16   ar
     7    15    14   ar
     8    16    14   ar
     9    16    22    1
    10    14    13    1
    11    22    11    2
    12    33    34    2
    13    33    32    1
    14    13    12    2
    15    34    35    1
    16    32    31    2
    17    11    12    1
    18    11     9    1
    19    35    30    2
    20    31    30    1
    21    30    29    1
    22     9    10    1
    23     9     7   am
    24     8     7    2
    25    29    28    1
    26     7     4    1
    27     4     5    2
    28     4     3    1
    29    28    26    1
    30     5     6    1
    31     3     2    2
    32    25    23    2
    33    26    27    1
    34    26    23    1
    35     6    23    1
    36     6     1    2
    37    23    24    2
    38     2     1    1
    39     1    36    1
    40    36    37    1
