@<TRIPOS>MOLECULE
66124_out_ligand_01.pdbqt
 33 36 0 0 0
SMALL
GASTEIGER

@<TRIPOS>ATOM
      1  C         19.3790  -22.1840  -10.6090 C.2     1  UNL1        0.0360
      2  C         18.6670  -21.3900  -11.5120 C.2     1  UNL1        0.0290
      3  C         17.2940  -21.1720  -11.3430 C.2     1  UNL1        0.0040
      4  C         16.6170  -21.7510  -10.2730 C.2     1  UNL1        0.0250
      5  C         17.3250  -22.5530   -9.3780 C.2     1  UNL1        0.0770
      6  C         18.7000  -22.7600   -9.5310 C.2     1  UNL1        0.0540
      7  N         20.7590  -22.4490  -10.7050 N.am    1  UNL1       -0.3230
      8  C         21.7100  -22.4100   -9.7030 C.2     1  UNL1        0.2590
      9  O         21.5040  -22.1120   -8.5300 O.2     1  UNL1       -0.2670
     10  H         21.1000  -22.7020  -11.6290 H       1  UNL1        0.1690
     11  C         23.1060  -22.7580  -10.1150 C.2     1  UNL1        0.0660
     12  C         23.6710  -22.4160  -11.3380 C.2     1  UNL1        0.0910
     13  O         23.0460  -21.7050  -12.3380 O.2     1  UNL1       -0.3440
     14  C         24.9820  -22.7520  -11.6650 C.2     1  UNL1       -0.0170
     15  C         23.8980  -21.9070  -13.5000 C.3     1  UNL1        0.1330
     16  C         23.7420  -20.7120  -14.4270 C.3     1  UNL1        0.0400
     17  C         25.3310  -22.1970  -13.0030 C.3     1  UNL1        0.0460
     18  C         26.2450  -20.9830  -12.8710 C.3     1  UNL1        0.0170
     19  C         25.7780  -23.4650  -10.7820 C.2     1  UNL1        0.0100
     20  C         25.2330  -23.8360   -9.5530 C.2     1  UNL1        0.0020
     21  C         23.9120  -23.4840   -9.2210 C.2     1  UNL1        0.0200
     22  S         16.4710  -23.3030   -8.0170 S.O2    1  UNL1        0.2460
     23  O         15.6690  -22.2930   -7.3600 O.2     1  UNL1       -0.2060
     24  O         15.8790  -24.5290   -8.5080 O.2     1  UNL1       -0.2060
     25  N         17.7470  -23.7660   -7.0000 N.pl3   1  UNL1       -0.1780
     26  H         17.6030  -24.7390   -6.7220 H       1  UNL1        0.1460
     27  C         18.0700  -22.8700   -5.9330 C.2     1  UNL1        0.0610
     28  C         18.8800  -21.7600   -6.1670 C.2     1  UNL1        0.0270
     29  C         19.1330  -20.8560   -5.1310 C.2     1  UNL1        0.0020
     30  C         18.5710  -21.0570   -3.8680 C.2     1  UNL1        0.0030
     31  C         17.7540  -22.1640   -3.6350 C.2     1  UNL1        0.0440
     32  C         17.5060  -23.0600   -4.6680 C.2     1  UNL1        0.1380
     33  F         16.7240  -24.1260   -4.4390 F       1  UNL1       -0.2040
@<TRIPOS>BOND
     1    16    15    1
     2    15    17    1
     3    15    13    1
     4    17    18    1
     5    17    14    1
     6    13    12    1
     7    14    12    1
     8    14    19    2
     9    10     7    1
    10     2     3    1
    11     2     1    2
    12     3     4    2
    13    12    11    2
    14    19    20    1
    15     7     1    1
    16     7     8   am
    17     1     6    1
    18     4     5    1
    19    11     8    1
    20    11    21    1
    21     8     9    2
    22    20    21    2
    23     6     5    2
    24     5    22    1
    25    24    22    2
    26    22    23    2
    27    22    25    1
    28    25    26    1
    29    25    27    1
    30    28    27    2
    31    28    29    1
    32    27    32    1
    33    29    30    2
    34    32    33    1
    35    32    31    2
    36    30    31    1
