@<TRIPOS>MOLECULE
66125_out_ligand_01.pdbqt
 32 35 0 0 0
SMALL
GASTEIGER

@<TRIPOS>ATOM
      1  C         18.8720  -22.3530  -10.0400 C.2     1  UNL1        0.0330
      2  C         18.8030  -21.7510  -11.3050 C.2     1  UNL1        0.0170
      3  C         19.9760  -21.3920  -11.9770 C.2     1  UNL1        0.0030
      4  C         21.2190  -21.6160  -11.3840 C.2     1  UNL1        0.0250
      5  C         21.2800  -22.1950  -10.1130 C.2     1  UNL1        0.0800
      6  C         20.1160  -22.5760   -9.4410 C.2     1  UNL1        0.0420
      7  S         22.8520  -22.4570   -9.3260 S.O2    1  UNL1        0.2630
      8  O         22.8800  -21.6240   -8.1430 O.2     1  UNL1       -0.2000
      9  O         23.0840  -23.8830   -9.2470 O.2     1  UNL1       -0.2000
     10  N         23.9410  -21.7730  -10.4210 N.pl3   1  UNL1       -0.2810
     11  H         23.5650  -20.9280  -10.8520 H       1  UNL1        0.1790
     12  C         24.7580  -22.6230  -11.2190 C.2     1  UNL1        0.0450
     13  C         25.9840  -23.0650  -10.6880 C.2     1  UNL1        0.0330
     14  C         26.8360  -23.8760  -11.4460 C.2     1  UNL1        0.0420
     15  C         26.4270  -24.2200  -12.7160 C.2     1  UNL1        0.1050
     16  C         25.2260  -23.7920  -13.2320 C.2     1  UNL1        0.1070
     17  O         27.1210  -24.9950  -13.5910 O.2     1  UNL1       -0.3230
     18  C         24.3670  -22.9910  -12.5080 C.2     1  UNL1        0.0690
     19  O         25.0160  -24.2450  -14.4960 O.2     1  UNL1       -0.3230
     20  C         26.2150  -25.0170  -14.7140 C.3     1  UNL1        0.3520
     21  C         17.6480  -22.7200   -9.2780 C.2     1  UNL1        0.2560
     22  N         17.6920  -22.4390   -7.9290 N.am    1  UNL1       -0.3200
     23  H         18.4950  -21.9310   -7.5710 H       1  UNL1        0.1690
     24  O         16.7120  -23.2090   -9.9000 O.2     1  UNL1       -0.2670
     25  C         16.6980  -22.7010   -6.9610 C.2     1  UNL1        0.0740
     26  C         16.8910  -23.8150   -6.1350 C.2     1  UNL1        0.1430
     27  C         15.9770  -24.1610   -5.1470 C.2     1  UNL1        0.0450
     28  F         17.9900  -24.5720   -6.2960 F       1  UNL1       -0.2040
     29  C         14.8320  -23.3850   -4.9720 C.2     1  UNL1        0.0100
     30  C         14.6020  -22.2750   -5.7960 C.2     1  UNL1       -0.0600
     31  C         13.3870  -21.4180   -5.5910 C.3     1  UNL1        0.0480
     32  C         15.5460  -21.9330   -6.7810 C.2     1  UNL1        0.0390
@<TRIPOS>BOND
     1    20    19    1
     2    20    17    1
     3    19    16    1
     4    17    15    1
     5    16    15    2
     6    16    18    1
     7    15    14    1
     8    18    12    2
     9     3     4    2
    10     3     2    1
    11    14    13    2
    12     4     5    1
    13     2     1    2
    14    12    13    1
    15    12    10    1
    16    11    10    1
    17    10     7    1
    18     5     6    2
    19     5     7    1
    20     1     6    1
    21     1    21    1
    22    24    21    2
    23     7     9    2
    24     7     8    2
    25    21    22   am
    26    22    23    1
    27    22    25    1
    28    25    32    2
    29    25    26    1
    30    32    30    1
    31    28    26    1
    32    26    27    2
    33    30    31    1
    34    30    29    2
    35    27    29    1
