@<TRIPOS>MOLECULE
66136_out_ligand_01.pdbqt
 31 34 0 0 0
SMALL
GASTEIGER

@<TRIPOS>ATOM
      1  C         23.5980  -22.2380  -11.2660 C.2     1  UNL1        0.0360
      2  C         24.5260  -21.4180  -10.6180 C.2     1  UNL1        0.0290
      3  C         25.8900  -21.5080  -10.9170 C.2     1  UNL1        0.0040
      4  C         26.3410  -22.4140  -11.8740 C.2     1  UNL1        0.0250
      5  C         25.4160  -23.2240  -12.5340 C.2     1  UNL1        0.0820
      6  C         24.0540  -23.1520  -12.2230 C.2     1  UNL1        0.0540
      7  N         22.2120  -22.2120  -11.0220 N.am    1  UNL1       -0.3230
      8  C         21.2200  -21.6210  -11.7800 C.2     1  UNL1        0.2590
      9  O         21.3870  -21.0120  -12.8320 O.2     1  UNL1       -0.2670
     10  H         21.9030  -22.6960  -10.1830 H       1  UNL1        0.1690
     11  C         19.8250  -21.7510  -11.2490 C.2     1  UNL1        0.0660
     12  C         19.4990  -22.3560  -10.0410 C.2     1  UNL1        0.0910
     13  O         20.3980  -22.9300   -9.1680 O.2     1  UNL1       -0.3440
     14  C         18.1840  -22.4490   -9.5920 C.2     1  UNL1       -0.0170
     15  C         19.6460  -23.1350   -7.9410 C.3     1  UNL1        0.1330
     16  C         20.0470  -22.0340   -6.9590 C.3     1  UNL1        0.0400
     17  C         18.1500  -23.2110   -8.3130 C.3     1  UNL1        0.0460
     18  C         17.1720  -22.7020   -7.2650 C.3     1  UNL1        0.0170
     19  C         17.1380  -21.9370  -10.3430 C.2     1  UNL1        0.0100
     20  C         17.4370  -21.3130  -11.5550 C.2     1  UNL1        0.0020
     21  C         18.7660  -21.2220  -12.0050 C.2     1  UNL1        0.0200
     22  S         25.9760  -24.4050  -13.7310 S.O2    1  UNL1        0.2640
     23  O         24.8470  -25.1550  -14.2310 O.2     1  UNL1       -0.2000
     24  O         27.1210  -25.0880  -13.1620 O.2     1  UNL1       -0.2000
     25  N         26.6020  -23.4530  -14.9450 N.3     1  UNL1       -0.2680
     26  H         27.6090  -23.3460  -14.8620 H       1  UNL1        0.1800
     27  C         25.8990  -22.8530  -15.9830 C.3     1  UNL1        0.1080
     28  N         25.8560  -23.3050  -17.1910 N.3     1  UNL1       -0.2760
     29  C         24.9750  -22.3710  -17.9200 C.3     1  UNL1        0.1510
     30  C         24.9490  -21.0990  -17.0920 C.3     1  UNL1        0.0290
     31  C         25.1090  -21.6210  -15.6840 C.3     1  UNL1        0.0800
@<TRIPOS>BOND
     1    29    28    1
     2    29    30    1
     3    28    27    1
     4    30    31    1
     5    27    31    1
     6    27    25    1
     7    25    26    1
     8    25    22    1
     9    23    22    2
    10    22    24    2
    11    22     5    1
    12     9     8    2
    13     5     6    1
    14     5     4    2
    15     6     1    2
    16    21    20    1
    17    21    11    2
    18     4     3    1
    19     8    11    1
    20     8     7   am
    21    20    19    2
    22     1     7    1
    23     1     2    1
    24    11    12    1
    25     7    10    1
    26     3     2    2
    27    19    14    1
    28    12    14    2
    29    12    13    1
    30    14    17    1
    31    13    15    1
    32    17    15    1
    33    17    18    1
    34    15    16    1
