@<TRIPOS>MOLECULE
66135_out_ligand_01.pdbqt
 36 39 0 0 0
SMALL
GASTEIGER

@<TRIPOS>ATOM
      1  C         21.4880  -22.0600  -10.7580 C.2     1  UNL1        0.0820
      2  C         21.2510  -21.0800  -11.7220 C.2     1  UNL1        0.0250
      3  C         19.9360  -20.7610  -12.0560 C.2     1  UNL1        0.0040
      4  C         18.8720  -21.4160  -11.4280 C.2     1  UNL1        0.0290
      5  C         19.1070  -22.4090  -10.4710 C.2     1  UNL1        0.0360
      6  C         20.4280  -22.7420  -10.1480 C.2     1  UNL1        0.0540
      7  N         18.0840  -23.1080   -9.7990 N.am    1  UNL1       -0.3270
      8  C         16.7580  -22.7390   -9.6720 C.2     1  UNL1        0.2230
      9  O         16.2420  -21.7080  -10.0950 O.2     1  UNL1       -0.2730
     10  H         18.3560  -23.9850   -9.3640 H       1  UNL1        0.1690
     11  C         15.9300  -23.7360   -8.8920 C.3     1  UNL1        0.1250
     12  C         16.8120  -24.4830   -7.9000 C.3     1  UNL1        0.1600
     13  N         16.6770  -23.9190   -6.5410 N.pl3   1  UNL1       -0.2690
     14  N         15.6010  -24.3830   -5.8360 N.2     1  UNL1       -0.1800
     15  C         15.2720  -23.7990   -4.7300 C.2     1  UNL1        0.1940
     16  C         16.0170  -22.6360   -4.1670 C.2     1  UNL1        0.2030
     17  O         15.5980  -22.0910   -3.1530 O.2     1  UNL1       -0.2860
     18  C         17.2350  -22.2390   -4.8660 C.2     1  UNL1        0.0440
     19  C         18.0400  -21.2170   -4.3470 C.2     1  UNL1        0.0180
     20  C         17.5380  -22.9210   -6.0530 C.2     1  UNL1        0.0670
     21  C         19.2060  -20.8650   -5.0140 C.2     1  UNL1        0.0010
     22  C         19.5560  -21.5370   -6.1820 C.2     1  UNL1        0.0020
     23  C         18.7310  -22.5500   -6.6950 C.2     1  UNL1        0.0320
     24  S         23.1600  -22.4440  -10.3060 S.O2    1  UNL1        0.2630
     25  O         23.9020  -21.2100  -10.1450 O.2     1  UNL1       -0.2000
     26  O         23.0990  -23.4250   -9.2400 O.2     1  UNL1       -0.2000
     27  N         23.7270  -23.2720  -11.6720 N.pl3   1  UNL1       -0.2810
     28  H         23.9540  -24.2350  -11.4290 H       1  UNL1        0.1790
     29  C         24.6050  -22.5800  -12.5540 C.2     1  UNL1        0.0420
     30  C         25.9850  -22.7120  -12.3940 C.2     1  UNL1        0.0330
     31  C         26.8590  -21.9900  -13.2160 C.2     1  UNL1        0.0390
     32  C         26.3540  -21.1250  -14.1890 C.2     1  UNL1        0.0680
     33  C         24.9690  -20.9980  -14.3380 C.2     1  UNL1        0.0390
     34  C         24.0940  -21.7230  -13.5250 C.2     1  UNL1        0.0330
     35  O         27.0960  -20.3430  -15.0340 O.2     1  UNL1       -0.3560
     36  C         26.6670  -18.9970  -15.2120 C.3     1  UNL1        0.2100
@<TRIPOS>BOND
     1    36    35    1
     2    35    32    1
     3    33    32    2
     4    33    34    1
     5    32    31    1
     6    34    29    2
     7    31    30    2
     8    29    30    1
     9    29    27    1
    10     3     2    1
    11     3     4    2
    12     2     1    2
    13    27    28    1
    14    27    24    1
    15     4     5    1
    16     1    24    1
    17     1     6    1
    18     5     6    2
    19     5     7    1
    20    24    25    2
    21    24    26    2
    22     9     8    2
    23     7     8   am
    24     7    10    1
    25     8    11    1
    26    11    12    1
    27    12    13    1
    28    23    22    2
    29    23    20    1
    30    13    20    1
    31    13    14    1
    32    22    21    1
    33    20    18    2
    34    14    15    2
    35    21    19    2
    36    18    19    1
    37    18    16    1
    38    15    16    1
    39    16    17    2
