@<TRIPOS>MOLECULE
66130_out_ligand_01.pdbqt
 36 39 0 0 0
SMALL
GASTEIGER

@<TRIPOS>ATOM
      1  C         17.3350  -23.0110   -8.9570 C.2     1  UNL1        0.0870
      2  C         18.7300  -23.1320   -8.8270 C.2     1  UNL1        0.0550
      3  C         19.5880  -22.6600   -9.8250 C.2     1  UNL1        0.0360
      4  C         19.0360  -22.0280  -10.9370 C.2     1  UNL1        0.0300
      5  C         17.6490  -21.8820  -11.0580 C.2     1  UNL1        0.0100
      6  C         16.7720  -22.3790  -10.0790 C.2     1  UNL1       -0.0390
      7  C         15.2970  -22.1900  -10.2840 C.3     1  UNL1        0.0500
      8  N         20.9700  -22.8580   -9.6330 N.am    1  UNL1       -0.3270
      9  C         21.6010  -24.0010   -9.1750 C.2     1  UNL1        0.2230
     10  O         21.0560  -25.0450   -8.8160 O.2     1  UNL1       -0.2730
     11  H         21.5650  -22.0740   -9.8710 H       1  UNL1        0.1690
     12  C         23.1060  -23.8750   -9.1280 C.3     1  UNL1        0.1250
     13  C         23.5360  -22.4940   -9.6180 C.3     1  UNL1        0.1600
     14  N         24.4210  -22.5980  -10.7940 N.pl3   1  UNL1       -0.2690
     15  N         25.6590  -23.1220  -10.5220 N.2     1  UNL1       -0.1800
     16  C         26.5030  -23.3010  -11.4880 C.2     1  UNL1        0.1940
     17  C         26.2140  -22.9450  -12.9020 C.2     1  UNL1        0.2030
     18  O         27.0630  -23.1670  -13.7540 O.2     1  UNL1       -0.2860
     19  C         24.9110  -22.3380  -13.1680 C.2     1  UNL1        0.0440
     20  C         24.5830  -21.9500  -14.4730 C.2     1  UNL1        0.0180
     21  C         24.0380  -22.1800  -12.0790 C.2     1  UNL1        0.0670
     22  C         23.3410  -21.3760  -14.7220 C.2     1  UNL1        0.0010
     23  C         22.4490  -21.1970  -13.6690 C.2     1  UNL1        0.0020
     24  C         22.7950  -21.5950  -12.3700 C.2     1  UNL1        0.0320
     25  S         16.3360  -23.7150   -7.6470 S.O2    1  UNL1        0.2630
     26  O         15.5380  -22.6520   -7.0710 O.2     1  UNL1       -0.2000
     27  O         15.7040  -24.9180   -8.1440 O.2     1  UNL1       -0.2000
     28  N         17.4980  -24.2070   -6.5170 N.pl3   1  UNL1       -0.2810
     29  H         18.2380  -24.7590   -6.9400 H       1  UNL1        0.1790
     30  C         17.8520  -23.3020   -5.4780 C.2     1  UNL1        0.0430
     31  C         17.4860  -23.5780   -4.1630 C.2     1  UNL1        0.0300
     32  C         17.7840  -22.6640   -3.1540 C.2     1  UNL1        0.0030
     33  C         18.4300  -21.4660   -3.4630 C.2     1  UNL1        0.0070
     34  C         18.7800  -21.1680   -4.7860 C.2     1  UNL1       -0.0600
     35  C         19.4940  -19.8870   -5.1170 C.3     1  UNL1        0.0480
     36  C         18.5000  -22.1040   -5.7920 C.2     1  UNL1        0.0370
@<TRIPOS>BOND
     1    22    20    1
     2    22    23    2
     3    20    19    2
     4    18    17    2
     5    23    24    1
     6    19    17    1
     7    19    21    1
     8    17    16    1
     9    24    21    2
    10    21    14    1
    11    16    15    2
    12     5     4    2
    13     5     6    1
    14     4     3    1
    15    14    15    1
    16    14    13    1
    17     7     6    1
    18     6     1    2
    19    11     8    1
    20     3     8    1
    21     3     2    2
    22     8     9   am
    23    13    12    1
    24     9    12    1
    25     9    10    2
    26     1     2    1
    27     1    25    1
    28    27    25    2
    29    25    26    2
    30    25    28    1
    31    29    28    1
    32    28    30    1
    33    36    30    2
    34    36    34    1
    35    30    31    1
    36    35    34    1
    37    34    33    2
    38    31    32    2
    39    33    32    1
