@<TRIPOS>MOLECULE
66138_out_ligand_01.pdbqt
 36 39 0 0 0
SMALL
GASTEIGER

@<TRIPOS>ATOM
      1  C         20.7130  -22.2450  -10.9020 C.2     1  UNL1        0.0360
      2  C         20.2180  -21.2960  -11.7990 C.2     1  UNL1        0.0300
      3  C         18.8740  -20.9130  -11.7640 C.2     1  UNL1        0.0100
      4  C         17.9840  -21.4600  -10.8260 C.2     1  UNL1       -0.0390
      5  C         16.5550  -20.9990  -10.8600 C.3     1  UNL1        0.0500
      6  C         18.4890  -22.4090   -9.9210 C.2     1  UNL1        0.0830
      7  C         19.8400  -22.8070   -9.9760 C.2     1  UNL1        0.0540
      8  N         22.0810  -22.5650  -10.9940 N.am    1  UNL1       -0.3250
      9  C         22.9410  -22.3380  -12.0560 C.2     1  UNL1        0.2530
     10  O         22.6430  -21.8350  -13.1370 O.2     1  UNL1       -0.2700
     11  H         22.5090  -22.9740  -10.1700 H       1  UNL1        0.1690
     12  C         24.3580  -22.8880  -11.7930 C.3     1  UNL1        0.2390
     13  C         25.0030  -23.4010  -13.0740 C.3     1  UNL1        0.1740
     14  N         25.4210  -22.3060  -13.9620 N.am    1  UNL1       -0.3130
     15  C         25.3910  -22.4350  -15.3580 C.2     1  UNL1        0.2200
     16  C         25.9410  -21.1520  -13.2730 C.2     1  UNL1        0.0700
     17  C         25.0060  -23.7920  -15.9040 C.3     1  UNL1        0.1170
     18  O         25.6410  -21.5410  -16.1670 O.2     1  UNL1       -0.2730
     19  C         26.5840  -20.0910  -13.9240 C.2     1  UNL1        0.0330
     20  C         25.8450  -21.0780  -11.8680 C.2     1  UNL1        0.0970
     21  C         27.1200  -19.0110  -13.2110 C.2     1  UNL1        0.0020
     22  C         27.0320  -18.9710  -11.8240 C.2     1  UNL1        0.0030
     23  C         26.3970  -20.0080  -11.1530 C.2     1  UNL1        0.0390
     24  O         25.2180  -22.0100  -11.0770 O.2     1  UNL1       -0.3330
     25  S         17.5050  -23.1930   -8.6430 S.O2    1  UNL1        0.2460
     26  O         18.3830  -24.0900   -7.9220 O.2     1  UNL1       -0.2060
     27  O         16.2580  -23.6730   -9.1970 O.2     1  UNL1       -0.2060
     28  N         17.1620  -21.9100   -7.5890 N.pl3   1  UNL1       -0.1780
     29  H         16.5970  -21.2000   -8.0600 H       1  UNL1        0.1460
     30  C         16.7680  -22.2210   -6.2490 C.2     1  UNL1        0.0610
     31  C         15.4550  -22.5720   -5.9460 C.2     1  UNL1        0.0270
     32  C         15.0930  -22.8430   -4.6220 C.2     1  UNL1        0.0020
     33  C         16.0440  -22.7660   -3.6030 C.2     1  UNL1        0.0030
     34  C         17.3620  -22.4230   -3.9030 C.2     1  UNL1        0.0440
     35  C         17.7130  -22.1550   -5.2220 C.2     1  UNL1        0.1380
     36  F         18.9830  -21.8240   -5.5050 F       1  UNL1       -0.2040
@<TRIPOS>BOND
     1    18    15    2
     2    17    15    1
     3    15    14   am
     4    14    16    1
     5    14    13    1
     6    19    16    2
     7    19    21    1
     8    16    20    1
     9    21    22    2
    10    10     9    2
    11    13    12    1
    12     9    12    1
    13     9     8   am
    14    20    23    2
    15    20    24    1
    16    22    23    1
    17     2     3    1
    18     2     1    2
    19    12    24    1
    20     3     4    2
    21     8     1    1
    22     8    11    1
    23     1     7    1
    24     5     4    1
    25     4     6    1
    26     7     6    2
    27     6    25    1
    28    27    25    2
    29    25    26    2
    30    25    28    1
    31    29    28    1
    32    28    30    1
    33    30    31    2
    34    30    35    1
    35    31    32    1
    36    36    35    1
    37    35    34    2
    38    32    33    2
    39    34    33    1
