@<TRIPOS>MOLECULE
66139_out_ligand_01.pdbqt
 33 36 0 0 0
SMALL
GASTEIGER

@<TRIPOS>ATOM
      1  C         19.5650  -22.3050   -7.0270 C.2     1  UNL1        0.0810
      2  C         20.5300  -22.7110   -7.9630 C.2     1  UNL1        0.0420
      3  C         21.7890  -22.1020   -7.9810 C.2     1  UNL1        0.0330
      4  C         22.0690  -21.0610   -7.0900 C.2     1  UNL1        0.0170
      5  C         21.1040  -20.6530   -6.1650 C.2     1  UNL1        0.0090
      6  C         19.8440  -21.2740   -6.1070 C.2     1  UNL1       -0.0390
      7  C         18.8490  -20.7720   -5.0980 C.3     1  UNL1        0.0500
      8  C         22.7920  -22.5620   -8.9820 C.2     1  UNL1        0.2560
      9  O         23.1240  -23.7390   -8.9670 O.2     1  UNL1       -0.2670
     10  N         23.2750  -21.5690   -9.8150 N.am    1  UNL1       -0.3230
     11  H         22.9890  -20.6210   -9.6100 H       1  UNL1        0.1690
     12  C         24.2010  -21.7160  -10.8740 C.2     1  UNL1        0.0370
     13  C         25.4880  -21.1830  -10.6630 C.2     1  UNL1        0.0320
     14  C         26.4950  -21.2580  -11.6360 C.2     1  UNL1        0.0420
     15  C         26.1370  -21.8890  -12.8180 C.ar    1  UNL1        0.1060
     16  O         26.9200  -22.0930  -13.9160 O.2     1  UNL1       -0.2940
     17  C         24.8880  -22.4270  -13.0760 C.ar    1  UNL1        0.0950
     18  C         26.0910  -22.7500  -14.7870 C.ar    1  UNL1        0.1420
     19  C         26.6730  -23.1120  -16.0950 C.3     1  UNL1        0.1000
     20  N         24.8720  -22.9710  -14.3370 N.ar    1  UNL1       -0.2260
     21  C         23.8920  -22.3430  -12.0910 C.2     1  UNL1        0.0640
     22  S         17.9830  -23.1360   -7.0710 S.O2    1  UNL1        0.2460
     23  O         16.9320  -22.1700   -6.8400 O.2     1  UNL1       -0.2060
     24  O         18.0780  -24.3220   -6.2460 O.2     1  UNL1       -0.2060
     25  N         17.8880  -23.6760   -8.6750 N.pl3   1  UNL1       -0.1810
     26  H         17.1750  -24.4000   -8.7560 H       1  UNL1        0.1460
     27  C         17.9210  -22.6930   -9.7020 C.2     1  UNL1        0.0230
     28  C         16.7620  -21.9810  -10.0000 C.2     1  UNL1        0.0240
     29  C         16.7750  -21.0330  -11.0230 C.2     1  UNL1        0.0020
     30  C         17.9450  -20.8090  -11.7510 C.2     1  UNL1        0.0070
     31  C         19.1080  -21.5380  -11.4710 C.2     1  UNL1       -0.0600
     32  C         20.3690  -21.2860  -12.2440 C.3     1  UNL1        0.0480
     33  C         19.0910  -22.4760  -10.4300 C.2     1  UNL1        0.0310
@<TRIPOS>BOND
     1    19    18    1
     2    18    20   ar
     3    18    16   ar
     4    20    17   ar
     5    16    15   ar
     6    17    15   ar
     7    17    21    1
     8    15    14    1
     9    32    31    1
    10    21    12    2
    11    30    31    2
    12    30    29    1
    13    14    13    2
    14    31    33    1
    15    29    28    2
    16    12    13    1
    17    12    10    1
    18    33    27    2
    19    28    27    1
    20    10    11    1
    21    10     8   am
    22    27    25    1
    23     8     9    2
    24     8     3    1
    25    26    25    1
    26    25    22    1
    27     3     2    1
    28     3     4    2
    29     2     1    2
    30     4     5    1
    31    22     1    1
    32    22    23    2
    33    22    24    2
    34     1     6    1
    35     5     6    2
    36     6     7    1
