@<TRIPOS>MOLECULE
66137_out_ligand_01.pdbqt
 28 31 0 0 0
SMALL
GASTEIGER

@<TRIPOS>ATOM
      1  C         20.1600  -21.9760  -11.1630 C.2     1  UNL1        0.0320
      2  C         20.0180  -23.0150  -10.2380 C.2     1  UNL1        0.0170
      3  C         18.7900  -23.2250   -9.6050 C.2     1  UNL1        0.0090
      4  C         17.6820  -22.4120   -9.9020 C.2     1  UNL1       -0.0490
      5  C         17.8300  -21.3830  -10.8450 C.2     1  UNL1        0.0090
      6  C         19.0590  -21.1650  -11.4750 C.2     1  UNL1        0.0170
      7  C         16.3520  -22.6510   -9.2240 C.3     1  UNL1        0.1190
      8  S         16.3550  -24.1340   -8.1680 S.3     1  UNL1       -0.1030
      9  C         16.1510  -23.4330   -6.5240 C.2     1  UNL1        0.1270
     10  N         15.0260  -23.7630   -5.8550 N.2     1  UNL1       -0.1430
     11  N         14.7870  -23.2870   -4.6020 N.2     1  UNL1       -0.1610
     12  C         15.7070  -22.4900   -4.0240 C.2     1  UNL1        0.1530
     13  C         16.8930  -22.1210   -4.6450 C.2     1  UNL1       -0.0040
     14  C         17.8300  -21.2940   -3.9950 C.2     1  UNL1        0.0140
     15  C         17.1410  -22.6030   -5.9470 C.2     1  UNL1        0.0130
     16  C         19.0260  -20.9380   -4.6230 C.2     1  UNL1        0.0010
     17  C         19.2920  -21.4000   -5.9060 C.2     1  UNL1        0.0010
     18  C         18.3650  -22.2200   -6.5610 C.2     1  UNL1        0.0150
     19  C         21.4870  -21.7830  -11.8140 C.2     1  UNL1        0.2560
     20  O         21.5300  -21.1590  -12.8660 O.2     1  UNL1       -0.2670
     21  N         22.5470  -22.3830  -11.1560 N.am    1  UNL1       -0.3230
     22  H         22.3160  -22.9830  -10.3720 H       1  UNL1        0.1690
     23  C         23.9100  -22.3370  -11.5130 C.2     1  UNL1        0.0350
     24  C         24.4670  -23.0670  -12.5660 C.2     1  UNL1        0.0290
     25  C         25.8310  -22.9680  -12.8560 C.2     1  UNL1        0.0020
     26  C         26.6520  -22.1340  -12.0990 C.2     1  UNL1        0.0000
     27  C         26.1070  -21.3940  -11.0530 C.2     1  UNL1        0.0020
     28  C         24.7400  -21.4930  -10.7630 C.2     1  UNL1        0.0290
@<TRIPOS>BOND
     1    20    19    2
     2    25    24    1
     3    25    26    2
     4    24    23    2
     5    26    27    1
     6    19     1    1
     7    19    21   am
     8    23    21    1
     9    23    28    1
    10     6     1    2
    11     6     5    1
    12     1     2    1
    13    21    22    1
    14    27    28    2
    15     5     4    2
    16     2     3    2
    17     4     3    1
    18     4     7    1
    19     7     8    1
    20     8     9    1
    21    18    15    1
    22    18    17    2
    23     9    15    2
    24     9    10    1
    25    15    13    1
    26    17    16    1
    27    10    11    2
    28    13    12    2
    29    13    14    1
    30    16    14    2
    31    11    12    1
