@<TRIPOS>MOLECULE
66132_out_ligand_01.pdbqt
 34 37 0 0 0
SMALL
GASTEIGER

@<TRIPOS>ATOM
      1  C         20.1340  -22.4590  -10.5410 C.2     1  UNL1        0.0360
      2  C         19.7730  -21.4540  -11.4520 C.2     1  UNL1        0.0290
      3  C         18.4400  -21.0360  -11.5780 C.2     1  UNL1        0.0040
      4  C         17.4540  -21.6220  -10.7910 C.2     1  UNL1        0.0250
      5  C         17.8120  -22.6330   -9.8830 C.2     1  UNL1        0.0820
      6  C         19.1460  -23.0350   -9.7420 C.2     1  UNL1        0.0540
      7  N         21.5000  -22.8040  -10.4700 N.am    1  UNL1       -0.3270
      8  C         22.3650  -22.6300   -9.3910 C.2     1  UNL1        0.2270
      9  O         22.0170  -22.2730   -8.2580 O.2     1  UNL1       -0.2730
     10  H         21.8920  -23.2080  -11.3090 H       1  UNL1        0.1690
     11  C         23.8200  -23.0330   -9.6200 C.3     1  UNL1        0.1630
     12  C         24.4990  -22.3670  -10.7710 C.2     1  UNL1        0.0510
     13  C         25.3880  -21.3130  -10.7080 C.2     1  UNL1        0.0790
     14  S         25.9190  -20.8950  -12.2830 S.3     1  UNL1       -0.0790
     15  C         24.9110  -22.1270  -12.9570 C.2     1  UNL1        0.1090
     16  N         24.2430  -22.8270  -12.0520 N.2     1  UNL1       -0.2440
     17  C         24.8290  -22.3730  -14.4060 C.2     1  UNL1        0.0170
     18  C         25.0630  -23.6160  -15.0170 C.2     1  UNL1        0.0170
     19  C         24.9520  -23.7480  -16.4030 C.2     1  UNL1        0.0200
     20  C         24.6170  -22.6330  -17.1520 C.2     1  UNL1        0.1160
     21  N         24.3850  -21.4150  -16.6130 N.2     1  UNL1       -0.2720
     22  C         24.4950  -21.3140  -15.2610 C.2     1  UNL1        0.1300
     23  S         16.5630  -23.3040   -8.8110 S.O2    1  UNL1        0.2630
     24  O         15.3530  -23.5290   -9.5760 O.2     1  UNL1       -0.2000
     25  O         17.1850  -24.3840   -8.0680 O.2     1  UNL1       -0.2000
     26  N         16.3150  -22.1020   -7.6920 N.pl3   1  UNL1       -0.2780
     27  H         16.1440  -21.1790   -8.0950 H       1  UNL1        0.1790
     28  C         16.2850  -22.2120   -6.2720 C.2     1  UNL1        0.0810
     29  C         15.1400  -22.4420   -5.5150 C.2     1  UNL1        0.0330
     30  C         15.2330  -22.5640   -4.1180 C.2     1  UNL1        0.0020
     31  C         16.4690  -22.4730   -3.4770 C.2     1  UNL1        0.0030
     32  C         17.6230  -22.2520   -4.2250 C.2     1  UNL1        0.0440
     33  C         17.5210  -22.1250   -5.6080 C.2     1  UNL1        0.1430
     34  F         18.6410  -21.9230   -6.3220 F       1  UNL1       -0.2040
@<TRIPOS>BOND
     1    20    21    2
     2    20    19    1
     3    21    22    1
     4    19    18    2
     5    22    17    2
     6    18    17    1
     7    17    15    1
     8    15    14    1
     9    15    16    2
    10    14    13    1
    11    16    12    1
    12     3     2    1
    13     3     4    2
    14     2     1    2
    15    10     7    1
    16     4     5    1
    17    12    13    2
    18    12    11    1
    19     1     7    1
    20     1     6    1
    21     7     8   am
    22     5     6    2
    23     5    23    1
    24    11     8    1
    25    24    23    2
    26     8     9    2
    27    23    25    2
    28    23    26    1
    29    27    26    1
    30    26    28    1
    31    34    33    1
    32    28    33    2
    33    28    29    1
    34    33    32    1
    35    29    30    2
    36    32    31    2
    37    30    31    1
