@<TRIPOS>MOLECULE
66146_out_ligand_01.pdbqt
 33 37 0 0 0
SMALL
GASTEIGER

@<TRIPOS>ATOM
      1  C         22.6350  -22.8930  -10.3540 C.2     1  UNL1        0.0330
      2  C         23.9830  -23.2700  -10.1270 C.2     1  UNL1        0.0180
      3  C         24.9850  -22.9230  -11.0390 C.2     1  UNL1        0.0190
      4  C         24.6030  -22.2130  -12.1610 C.2     1  UNL1        0.0480
      5  C         23.2880  -21.8500  -12.3880 C.2     1  UNL1        0.0490
      6  C         22.2770  -22.1770  -11.5080 C.2     1  UNL1        0.0350
      7  C         23.2430  -21.1290  -13.6590 C.2     1  UNL1        0.2620
      8  O         22.2350  -20.6420  -14.1350 O.2     1  UNL1       -0.2670
      9  N         24.5220  -21.1200  -14.1430 N.am    1  UNL1       -0.2740
     10  C         25.3980  -21.7290  -13.2900 C.2     1  UNL1        0.2620
     11  O         26.6040  -21.8570  -13.3690 O.2     1  UNL1       -0.2670
     12  C         21.5510  -23.2900   -9.4130 C.2     1  UNL1        0.2560
     13  N         20.6140  -22.3100   -9.1430 N.am    1  UNL1       -0.3220
     14  H         20.6600  -21.4590   -9.6890 H       1  UNL1        0.1690
     15  O         21.5580  -24.4350   -8.9830 O.2     1  UNL1       -0.2670
     16  C         19.5370  -22.3980   -8.2290 C.2     1  UNL1        0.0530
     17  C         19.6390  -22.0870   -6.8730 C.2     1  UNL1        0.0480
     18  C         18.4800  -22.1920   -6.0850 C.2     1  UNL1        0.0330
     19  C         18.1230  -21.9800   -4.7380 C.2     1  UNL1        0.1540
     20  C         17.3020  -22.5980   -6.6960 C.2     1  UNL1        0.1580
     21  N         16.8310  -22.2250   -4.4960 N.2     1  UNL1       -0.1820
     22  N         16.3490  -22.6020   -5.7070 N.pl3   1  UNL1       -0.2480
     23  N         17.1380  -22.9180   -7.9960 N.2     1  UNL1       -0.2390
     24  C         18.2850  -22.7980   -8.7110 C.2     1  UNL1        0.1480
     25  C         14.9390  -22.9550   -5.8310 C.3     1  UNL1        0.1040
     26  C         14.5310  -24.0620   -4.8570 C.3     1  UNL1        0.0340
     27  C         14.0330  -21.7310   -5.7100 C.3     1  UNL1        0.0340
     28  C         24.8950  -20.5500  -15.4180 C.3     1  UNL1        0.2000
     29  C         24.9000  -21.6250  -16.4450 C.2     1  UNL1        0.0700
     30  C         25.7030  -21.8800  -17.5380 C.2     1  UNL1        0.0360
     31  C         25.1840  -23.0450  -18.1530 C.2     1  UNL1        0.0270
     32  C         24.0980  -23.4240  -17.3960 C.2     1  UNL1        0.1420
     33  O         23.9190  -22.5700  -16.3560 O.2     1  UNL1       -0.3250
@<TRIPOS>BOND
     1    31    30    1
     2    31    32    2
     3    30    29    2
     4    32    33    1
     5    29    33    1
     6    29    28    1
     7    28     9    1
     8     9     7   am
     9     9    10   am
    10     8     7    2
    11     7     5    1
    12    11    10    2
    13    10     4    1
    14     5     4    2
    15     5     6    1
    16     4     3    1
    17     6     1    2
    18     3     2    2
    19     1     2    1
    20     1    12    1
    21    14    13    1
    22    12    13   am
    23    12    15    2
    24    13    16    1
    25    24    16    2
    26    24    23    1
    27    16    17    1
    28    23    20    2
    29    17    18    2
    30    20    18    1
    31    20    22    1
    32    18    19    1
    33    25    27    1
    34    25    22    1
    35    25    26    1
    36    22    21    1
    37    19    21    2
