@<TRIPOS>MOLECULE
66148_out_ligand_01.pdbqt
 36 39 0 0 0
SMALL
GASTEIGER

@<TRIPOS>ATOM
      1  C         20.0090  -23.3570   -7.7970 C.2     1  UNL1        0.0320
      2  C         20.5990  -24.2750   -8.6740 C.2     1  UNL1        0.0190
      3  C         21.8710  -24.0260   -9.2010 C.2     1  UNL1        0.0300
      4  C         22.5640  -22.8620   -8.8640 C.2     1  UNL1        0.0340
      5  C         21.9610  -21.9400   -7.9970 C.2     1  UNL1        0.0300
      6  C         20.6880  -22.1800   -7.4720 C.2     1  UNL1        0.0190
      7  N         23.8470  -22.5430   -9.3530 N.am    1  UNL1       -0.3250
      8  C         24.1700  -22.0420  -10.6050 C.2     1  UNL1        0.2460
      9  O         23.3910  -21.7810  -11.5190 O.2     1  UNL1       -0.2710
     10  H         24.6310  -22.7470   -8.7260 H       1  UNL1        0.1690
     11  C         25.6670  -21.7660  -10.7710 C.3     1  UNL1        0.2780
     12  O         26.2460  -22.2660  -11.9680 O.2     1  UNL1       -0.3410
     13  C         26.0200  -21.5270  -13.0910 C.2     1  UNL1        0.0840
     14  C         26.2250  -20.1480  -13.1770 C.2     1  UNL1        0.0410
     15  C         26.0360  -19.4770  -14.3960 C.2     1  UNL1        0.0460
     16  C         25.6820  -20.1840  -15.5420 C.2     1  UNL1        0.1240
     17  F         25.5160  -19.5320  -16.6970 F       1  UNL1       -0.2060
     18  C         25.5050  -21.5550  -15.4760 C.2     1  UNL1        0.0010
     19  C         25.6490  -22.1900  -14.2490 C.2     1  UNL1        0.0530
     20  C         25.1610  -22.4960  -16.5880 C.3     1  UNL1        0.0260
     21  C         25.2830  -23.5780  -14.4160 C.2     1  UNL1        0.1630
     22  O         25.1280  -24.3620  -13.4980 O.2     1  UNL1       -0.2920
     23  C         25.0330  -23.8640  -15.8820 C.3     1  UNL1        0.0930
     24  C         26.2220  -22.5220  -17.6820 C.3     1  UNL1        0.0150
     25  C         18.6500  -23.5900   -7.2330 C.2     1  UNL1        0.2560
     26  N         18.0270  -22.4550   -6.7550 N.am    1  UNL1       -0.3210
     27  H         18.4390  -21.5530   -6.9620 H       1  UNL1        0.1690
     28  O         18.1890  -24.7260   -7.2630 O.2     1  UNL1       -0.2670
     29  C         16.8260  -22.3640   -6.0180 C.2     1  UNL1        0.0680
     30  C         15.5600  -22.3300   -6.6080 C.2     1  UNL1        0.0320
     31  C         14.4140  -22.3070   -5.8120 C.2     1  UNL1        0.0020
     32  C         14.5250  -22.3240   -4.4240 C.2     1  UNL1        0.0030
     33  C         15.7850  -22.3470   -3.8210 C.2     1  UNL1        0.0390
     34  C         16.9400  -22.3570   -4.6100 C.2     1  UNL1        0.0950
     35  O         18.2280  -22.3830   -4.1230 O.2     1  UNL1       -0.3540
     36  C         18.5780  -21.3860   -3.1650 C.3     1  UNL1        0.2100
@<TRIPOS>BOND
     1    24    20    1
     2    17    16    1
     3    20    23    1
     4    20    18    1
     5    23    21    1
     6    16    18    2
     7    16    15    1
     8    18    19    1
     9    21    19    1
    10    21    22    2
    11    15    14    2
    12    19    13    2
    13    14    13    1
    14    13    12    1
    15    12    11    1
    16     9     8    2
    17    11     8    1
    18     8     7   am
    19     7     4    1
    20     7    10    1
    21     3     4    2
    22     3     2    1
    23     4     5    1
    24     2     1    2
    25     5     6    2
    26     1     6    1
    27     1    25    1
    28    28    25    2
    29    25    26   am
    30    27    26    1
    31    26    29    1
    32    30    29    2
    33    30    31    1
    34    29    34    1
    35    31    32    2
    36    34    35    1
    37    34    33    2
    38    32    33    1
    39    35    36    1
