@<TRIPOS>MOLECULE
66140_out_ligand_01.pdbqt
 35 38 0 0 0
SMALL
GASTEIGER

@<TRIPOS>ATOM
      1  C         17.5100  -23.0550   -9.5340 C.2     1  UNL1        0.0430
      2  C         16.4580  -22.2220   -9.9140 C.2     1  UNL1        0.0300
      3  C         16.6860  -21.1580  -10.7880 C.2     1  UNL1        0.0030
      4  C         17.9670  -20.9330  -11.2960 C.2     1  UNL1        0.0170
      5  C         19.0190  -21.7850  -10.9370 C.2     1  UNL1        0.0340
      6  C         18.7890  -22.8400  -10.0440 C.2     1  UNL1        0.0470
      7  C         20.4050  -21.5880  -11.4480 C.2     1  UNL1        0.2560
      8  O         20.5530  -20.9250  -12.4690 O.2     1  UNL1       -0.2670
      9  N         21.4040  -22.1500  -10.6750 N.am    1  UNL1       -0.3230
     10  H         21.1310  -22.5500   -9.7860 H       1  UNL1        0.1690
     11  C         22.7900  -22.1540  -10.9400 C.2     1  UNL1        0.0350
     12  C         23.7460  -21.5590  -10.1140 C.2     1  UNL1        0.0290
     13  C         25.1020  -21.5920  -10.4550 C.2     1  UNL1        0.0030
     14  C         25.5200  -22.2270  -11.6240 C.2     1  UNL1        0.0170
     15  C         24.5740  -22.8390  -12.4530 C.2     1  UNL1        0.0340
     16  C         23.2130  -22.7870  -12.1140 C.2     1  UNL1        0.0460
     17  C         24.9560  -23.5250  -13.7170 C.2     1  UNL1        0.2520
     18  O         25.3180  -24.6970  -13.6860 O.2     1  UNL1       -0.2680
     19  N         24.9100  -22.7580  -14.8650 N.am    1  UNL1       -0.3520
     20  H         24.7740  -21.7590  -14.7900 H       1  UNL1        0.1630
     21  C         25.2800  -23.2850  -16.1420 C.3     1  UNL1        0.0840
     22  C         24.2230  -23.6390  -17.1500 C.3     1  UNL1        0.0270
     23  C         25.1180  -22.4590  -17.3890 C.3     1  UNL1        0.0270
     24  N         17.3070  -24.1180   -8.6100 N.pl3   1  UNL1       -0.2810
     25  H         17.8720  -24.9580   -8.7190 H       1  UNL1        0.1790
     26  S         17.0540  -23.7550   -6.9760 S.O2    1  UNL1        0.2630
     27  O         15.7920  -23.0640   -6.8280 O.2     1  UNL1       -0.2000
     28  O         17.3280  -24.9770   -6.2480 O.2     1  UNL1       -0.2000
     29  C         18.3640  -22.6090   -6.6130 C.2     1  UNL1        0.0790
     30  C         18.1700  -21.6110   -5.6560 C.2     1  UNL1        0.0260
     31  C         19.2010  -20.7110   -5.3810 C.2     1  UNL1        0.0080
     32  C         20.4240  -20.8060   -6.0590 C.2     1  UNL1       -0.0620
     33  C         21.5400  -19.8540   -5.7440 C.3     1  UNL1        0.0480
     34  C         20.6160  -21.8340   -6.9930 C.2     1  UNL1        0.0080
     35  C         19.5900  -22.7380   -7.2720 C.2     1  UNL1        0.0260
@<TRIPOS>BOND
     1    23    22    1
     2    23    21    1
     3    22    21    1
     4    21    19    1
     5    19    20    1
     6    19    17   am
     7    17    18    2
     8    17    15    1
     9     8     7    2
    10    15    16    1
    11    15    14    2
    12    16    11    2
    13    14    13    1
    14     7     5    1
    15     7     9   am
    16     4     5    2
    17     4     3    1
    18    11     9    1
    19    11    12    1
    20     5     6    1
    21     3     2    2
    22     9    10    1
    23    13    12    2
    24     6     1    2
    25     2     1    1
    26     1    24    1
    27    25    24    1
    28    24    26    1
    29    35    34    1
    30    35    29    2
    31    34    32    2
    32    26    27    2
    33    26    29    1
    34    26    28    2
    35    29    30    1
    36    32    33    1
    37    32    31    1
    38    30    31    2
