@<TRIPOS>MOLECULE
6615_out_ligand_01.pdbqt
 39 44 0 0 0
SMALL
GASTEIGER

@<TRIPOS>ATOM
      1  C         22.7950  -22.6230  -11.8430 C.3     1  UNL1        0.2430
      2  N         21.8190  -21.5720  -12.1810 N.2     1  UNL1       -0.2350
      3  C         20.7160  -21.6040  -11.5280 C.2     1  UNL1        0.1730
      4  C         20.4010  -22.5310  -10.4740 C.ar    1  UNL1        0.0570
      5  C         21.4210  -23.3410  -10.0310 C.ar    1  UNL1        0.0870
      6  S         20.9470  -24.3900   -8.7850 S.2     1  UNL1       -0.0740
      7  C         19.3550  -23.7850   -8.8210 C.ar    1  UNL1        0.0200
      8  C         19.1870  -22.7820   -9.7600 C.ar    1  UNL1       -0.0240
      9  C         17.8480  -22.1380   -9.9420 C.3     1  UNL1        0.0710
     10  C         16.8930  -22.4800   -8.7740 C.3     1  UNL1        0.2780
     11  N         16.9340  -23.9140   -8.4070 N.3     1  UNL1        0.0970
     12  C         18.2800  -24.2840   -7.8970 C.3     1  UNL1        0.3190
     13  N         22.6630  -23.2760  -10.5490 N.pl3   1  UNL1       -0.3570
     14  H         23.3100  -24.0400  -10.3860 H       1  UNL1        0.1620
     15  C         24.2050  -22.0660  -11.9770 C.2     1  UNL1       -0.0120
     16  C         24.7610  -21.2880  -10.9450 C.2     1  UNL1        0.0110
     17  C         26.0670  -20.7960  -11.0410 C.2     1  UNL1        0.0030
     18  C         26.8350  -21.0710  -12.1700 C.2     1  UNL1        0.0370
     19  C         26.2830  -21.8350  -13.1970 C.2     1  UNL1        0.0800
     20  C         24.9960  -22.3580  -13.1000 C.2     1  UNL1        0.0480
     21  O         27.0450  -22.1680  -14.3200 O.3     1  UNL1       -0.2760
     22  C         26.5070  -21.6950  -15.5050 C.2     1  UNL1        0.2880
     23  O         25.8010  -22.2890  -16.3040 O.2     1  UNL1       -0.2600
     24  C         26.9550  -20.2920  -15.6510 C.2     1  UNL1        0.0850
     25  C         26.0470  -19.3360  -15.8890 C.2     1  UNL1        0.0430
     26  C         26.3960  -17.9680  -16.0600 C.2     1  UNL1        0.0750
     27  C         26.3480  -17.1290  -17.1710 C.2     1  UNL1        0.0390
     28  C         26.8120  -15.8490  -16.7780 C.2     1  UNL1        0.0270
     29  C         27.1210  -15.9580  -15.4480 C.2     1  UNL1        0.1420
     30  O         26.8790  -17.2160  -15.0090 O.2     1  UNL1       -0.3230
     31  O         19.7740  -20.6980  -11.8480 O.2     1  UNL1       -0.3440
     32  H         19.0850  -20.7640  -11.1660 H       1  UNL1        0.2190
     33  C         15.8930  -24.2110   -7.4080 C.3     1  UNL1        0.3110
     34  C         16.1200  -23.5480   -6.0660 C.2     1  UNL1       -0.0300
     35  C         17.2930  -23.7870   -5.3320 C.2     1  UNL1        0.0090
     36  C         17.4850  -23.1910   -4.0850 C.2     1  UNL1        0.0010
     37  C         16.5020  -22.3600   -3.5510 C.2     1  UNL1        0.0000
     38  C         15.3280  -22.1210   -4.2640 C.2     1  UNL1        0.0010
     39  C         15.1380  -22.7120   -5.5140 C.2     1  UNL1        0.0090
@<TRIPOS>BOND
     1    27    28    1
     2    27    26    2
     3    28    29    2
     4    23    22    2
     5    26    25    1
     6    26    30    1
     7    25    24    2
     8    24    22    1
     9    22    21    1
    10    29    30    1
    11    21    19    1
    12    19    20    1
    13    19    18    2
    14    20    15    2
    15     2     1    1
    16     2     3    2
    17    18    17    1
    18    15     1    1
    19    15    16    1
    20    31     3    1
    21    31    32    1
    22     1    13    1
    23     3     4    1
    24    17    16    2
    25    13    14    1
    26    13     5    1
    27     4     5   ar
    28     4     8   ar
    29     5     6   ar
    30     9     8    1
    31     9    10    1
    32     8     7   ar
    33     7     6   ar
    34     7    12    1
    35    10    11    1
    36    11    12    1
    37    11    33    1
    38    33    34    1
    39    34    39    2
    40    34    35    1
    41    39    38    1
    42    35    36    2
    43    38    37    2
    44    36    37    1
