@<TRIPOS>MOLECULE
66158_out_ligand_01.pdbqt
 36 39 0 0 0
SMALL
GASTEIGER

@<TRIPOS>ATOM
      1  O         24.2620  -21.3090  -10.2570 O.2     1  UNL1       -0.2680
      2  C         24.0960  -22.3660  -10.8560 C.2     1  UNL1        0.2510
      3  N         23.7530  -23.5550  -10.2480 N.am    1  UNL1       -0.3530
      4  H         23.4280  -24.3220  -10.8210 H       1  UNL1        0.1630
      5  C         24.2170  -22.4020  -12.3380 C.2     1  UNL1        0.0320
      6  C         23.5150  -21.5060  -13.1560 C.2     1  UNL1        0.0180
      7  C         23.6570  -21.5740  -14.5450 C.2     1  UNL1        0.0260
      8  C         24.5050  -22.5350  -15.1050 C.2     1  UNL1        0.0790
      9  C         25.2030  -23.4360  -14.2960 C.2     1  UNL1        0.0260
     10  C         25.0490  -23.3740  -12.9110 C.2     1  UNL1        0.0180
     11  S         24.6880  -22.6370  -16.8680 S.O2    1  UNL1        0.2590
     12  O         23.5230  -23.3230  -17.3770 O.2     1  UNL1       -0.2010
     13  O         26.0330  -23.0740  -17.1700 O.2     1  UNL1       -0.2010
     14  N         24.5520  -21.0400  -17.3270 N.3     1  UNL1       -0.3090
     15  H         23.6590  -20.8030  -17.7580 H       1  UNL1        0.1720
     16  C         25.7400  -20.3680  -17.8400 C.3     1  UNL1        0.1970
     17  C         26.1140  -19.3170  -16.8590 C.2     1  UNL1        0.0700
     18  C         26.3810  -19.3370  -15.5050 C.2     1  UNL1        0.0360
     19  C         26.6700  -18.0000  -15.1360 C.2     1  UNL1        0.0270
     20  C         26.5550  -17.2510  -16.2830 C.2     1  UNL1        0.1420
     21  O         26.2130  -18.0400  -17.3350 O.2     1  UNL1       -0.3250
     22  C         23.4100  -23.6060   -8.8430 C.3     1  UNL1        0.1610
     23  C         21.9260  -23.4080   -8.6470 C.2     1  UNL1       -0.0400
     24  C         21.0030  -24.3390   -9.1530 C.2     1  UNL1        0.0100
     25  C         19.6320  -24.1380   -8.9820 C.2     1  UNL1        0.0170
     26  C         19.1830  -22.9980   -8.3110 C.2     1  UNL1        0.0320
     27  C         20.0840  -22.0550   -7.8110 C.2     1  UNL1        0.0170
     28  C         21.4530  -22.2670   -7.9720 C.2     1  UNL1        0.0100
     29  C         17.7360  -22.7780   -8.1270 C.2     1  UNL1        0.2530
     30  O         17.1180  -22.2340   -9.0410 O.2     1  UNL1       -0.2670
     31  N         17.1530  -23.2050   -6.9370 N.am    1  UNL1       -0.3480
     32  C         17.9010  -23.6600   -5.7620 C.3     1  UNL1        0.1260
     33  C         15.7050  -23.0590   -6.8000 C.3     1  UNL1        0.1260
     34  C         17.2470  -23.1790   -4.4700 C.3     1  UNL1        0.0200
     35  C         15.8010  -23.6570   -4.3390 C.3     1  UNL1        0.0030
     36  C         15.1420  -23.9410   -5.6910 C.3     1  UNL1        0.0200
@<TRIPOS>BOND
     1    16    14    1
     2    16    17    1
     3    15    14    1
     4    12    11    2
     5    21    17    1
     6    21    20    1
     7    14    11    1
     8    13    11    2
     9    11     8    1
    10    17    18    2
    11    20    19    2
    12    18    19    1
    13     8     7    2
    14     8     9    1
    15     7     6    1
    16     9    10    2
    17     6     5    2
    18    10     5    1
    19     5     2    1
    20     2     1    2
    21     2     3   am
    22     4     3    1
    23     3    22    1
    24    24    25    1
    25    24    23    2
    26    30    29    2
    27    25    26    2
    28    22    23    1
    29    23    28    1
    30    26    29    1
    31    26    27    1
    32    29    31   am
    33    28    27    2
    34    31    33    1
    35    31    32    1
    36    33    36    1
    37    32    34    1
    38    36    35    1
    39    34    35    1
