@<TRIPOS>MOLECULE
66153_out_ligand_01.pdbqt
 35 38 0 0 0
SMALL
GASTEIGER

@<TRIPOS>ATOM
      1  C         20.6720  -23.2560   -9.4680 C.2     1  UNL1        0.0320
      2  C         20.2280  -24.0240   -8.3820 C.2     1  UNL1        0.0180
      3  C         18.8720  -24.0550   -8.0510 C.2     1  UNL1        0.0260
      4  C         17.9650  -23.2960   -8.7970 C.2     1  UNL1        0.0740
      5  C         18.3970  -22.5280   -9.8840 C.2     1  UNL1        0.0260
      6  C         19.7540  -22.5010  -10.2140 C.2     1  UNL1        0.0180
      7  C         22.1300  -23.2420   -9.7760 C.2     1  UNL1        0.2560
      8  O         22.8640  -23.9700   -9.1200 O.2     1  UNL1       -0.2670
      9  N         22.4970  -22.4090  -10.8170 N.am    1  UNL1       -0.3230
     10  H         21.7490  -21.9670  -11.3380 H       1  UNL1        0.1690
     11  C         23.8000  -22.1740  -11.3070 C.2     1  UNL1        0.0350
     12  C         24.7720  -21.4420  -10.6240 C.2     1  UNL1        0.0290
     13  C         26.0450  -21.2630  -11.1730 C.2     1  UNL1        0.0030
     14  C         26.3570  -21.8040  -12.4190 C.2     1  UNL1        0.0170
     15  C         25.3860  -22.5180  -13.1270 C.2     1  UNL1        0.0340
     16  C         24.1160  -22.7120  -12.5610 C.2     1  UNL1        0.0460
     17  C         25.6540  -23.1180  -14.4620 C.2     1  UNL1        0.2520
     18  O         26.6270  -23.8510  -14.6160 O.2     1  UNL1       -0.2680
     19  N         24.7400  -22.8310  -15.4590 N.am    1  UNL1       -0.3520
     20  H         23.8700  -22.3760  -15.2170 H       1  UNL1        0.1630
     21  C         24.8620  -23.3740  -16.7750 C.3     1  UNL1        0.0840
     22  C         24.5810  -22.5170  -17.9780 C.3     1  UNL1        0.0270
     23  C         23.6420  -23.6290  -17.6150 C.3     1  UNL1        0.0270
     24  S         16.2340  -23.3230   -8.3800 S.O2    1  UNL1        0.2450
     25  O         15.9340  -24.6160   -7.8030 O.2     1  UNL1       -0.2060
     26  O         15.5080  -22.8270   -9.5300 O.2     1  UNL1       -0.2060
     27  N         16.1040  -22.1330   -7.1840 N.pl3   1  UNL1       -0.1780
     28  H         16.6260  -21.2960   -7.4470 H       1  UNL1        0.1460
     29  C         16.2350  -22.5340   -5.8180 C.2     1  UNL1        0.0610
     30  C         15.1840  -23.1570   -5.1480 C.2     1  UNL1        0.0270
     31  C         15.3580  -23.5840   -3.8290 C.2     1  UNL1        0.0020
     32  C         16.5810  -23.3920   -3.1810 C.2     1  UNL1        0.0030
     33  C         17.6350  -22.7700   -3.8510 C.2     1  UNL1        0.0440
     34  C         17.4550  -22.3460   -5.1630 C.2     1  UNL1        0.1380
     35  F         18.4730  -21.7600   -5.8100 F       1  UNL1       -0.2040
@<TRIPOS>BOND
     1    22    23    1
     2    22    21    1
     3    23    21    1
     4    21    19    1
     5    19    20    1
     6    19    17   am
     7    18    17    2
     8    17    15    1
     9    15    16    1
    10    15    14    2
    11    16    11    2
    12    14    13    1
    13    10     9    1
    14    11     9    1
    15    11    12    1
    16    13    12    2
    17     9     7   am
    18     6     5    1
    19     6     1    2
    20     5     4    2
    21     7     1    1
    22     7     8    2
    23    26    24    2
    24     1     2    1
    25     4    24    1
    26     4     3    1
    27     2     3    2
    28    24    25    2
    29    24    27    1
    30    28    27    1
    31    27    29    1
    32    29    34    2
    33    29    30    1
    34    35    34    1
    35    34    33    1
    36    30    31    2
    37    33    32    2
    38    31    32    1
