@<TRIPOS>MOLECULE
6616_out_ligand_01.pdbqt
 30 34 0 0 0
SMALL
GASTEIGER

@<TRIPOS>ATOM
      1  O         21.6960  -24.8340   -8.8080 O.2     1  UNL1       -0.2670
      2  C         20.6360  -24.2270   -8.9300 C.2     1  UNL1        0.2560
      3  N         19.5710  -24.5060   -8.1160 N.am    1  UNL1       -0.3310
      4  C         18.4040  -23.6740   -7.9650 C.3     1  UNL1        0.2220
      5  N         18.1480  -22.9070   -9.1670 N.pl3   1  UNL1       -0.3580
      6  C         19.1710  -22.5960   -9.9900 C.ar    1  UNL1        0.0880
      7  S         19.0760  -21.4120  -11.2080 S.2     1  UNL1       -0.0740
      8  C         20.6880  -21.6950  -11.6760 C.ar    1  UNL1        0.0200
      9  C         21.3000  -22.6670  -10.9070 C.ar    1  UNL1       -0.0230
     10  C         20.4070  -23.1970   -9.9240 C.ar    1  UNL1        0.0730
     11  C         22.7160  -23.0650  -11.1810 C.3     1  UNL1        0.0710
     12  C         23.4250  -22.0180  -12.0720 C.3     1  UNL1        0.2780
     13  N         22.5990  -21.6090  -13.2310 N.3     1  UNL1        0.0970
     14  C         21.3560  -20.9300  -12.7840 C.3     1  UNL1        0.3190
     15  H         19.7690  -25.1800   -7.3920 H       1  UNL1        0.1650
     16  H         17.3370  -22.3000   -9.1330 H       1  UNL1        0.1620
     17  C         18.4970  -22.7830   -6.7470 C.2     1  UNL1        0.0220
     18  C         19.3630  -21.6790   -6.6780 C.2     1  UNL1        0.0140
     19  C         19.4220  -20.8850   -5.5300 C.2     1  UNL1        0.0010
     20  C         18.6180  -21.1820   -4.4300 C.2     1  UNL1        0.0030
     21  C         17.7550  -22.2740   -4.4810 C.2     1  UNL1        0.0430
     22  C         17.7010  -23.0590   -5.6290 C.2     1  UNL1        0.1260
     23  F         16.8600  -24.1040   -5.6480 F       1  UNL1       -0.2050
     24  C         23.3780  -20.7430  -14.1310 C.3     1  UNL1        0.3110
     25  C         24.5460  -21.4470  -14.7910 C.2     1  UNL1       -0.0300
     26  C         25.8590  -21.0080  -14.5690 C.2     1  UNL1        0.0090
     27  C         26.9360  -21.6490  -15.1840 C.2     1  UNL1        0.0010
     28  C         26.7110  -22.7320  -16.0320 C.2     1  UNL1        0.0000
     29  C         25.4100  -23.1750  -16.2640 C.2     1  UNL1        0.0010
     30  C         24.3320  -22.5360  -15.6490 C.2     1  UNL1        0.0090
@<TRIPOS>BOND
     1    29    28    2
     2    29    30    1
     3    28    27    1
     4    30    25    2
     5    27    26    2
     6    25    26    1
     7    25    24    1
     8    24    13    1
     9    13    14    1
    10    13    12    1
    11    14     8    1
    12    12    11    1
    13     8     7   ar
    14     8     9   ar
    15     7     6   ar
    16    11     9    1
    17     9    10   ar
    18     6    10   ar
    19     6     5    1
    20    10     2    1
    21     5    16    1
    22     5     4    1
    23     2     1    2
    24     2     3   am
    25     3     4    1
    26     3    15    1
    27     4    17    1
    28    17    18    2
    29    17    22    1
    30    18    19    1
    31    23    22    1
    32    22    21    2
    33    19    20    2
    34    21    20    1
