@<TRIPOS>MOLECULE
66173_out_ligand_01.pdbqt
 36 40 0 0 0
SMALL
GASTEIGER

@<TRIPOS>ATOM
      1  C         20.7160  -22.3950   -7.6490 C.2     1  UNL1        0.0330
      2  C         20.8590  -21.2790   -6.8110 C.2     1  UNL1        0.0170
      3  C         19.8550  -20.9600   -5.8930 C.2     1  UNL1        0.0030
      4  C         18.7160  -21.7590   -5.7950 C.2     1  UNL1        0.0250
      5  C         18.5930  -22.8890   -6.6110 C.2     1  UNL1        0.0800
      6  C         19.5800  -23.2060   -7.5480 C.2     1  UNL1        0.0420
      7  C         21.7720  -22.7720   -8.6250 C.2     1  UNL1        0.2560
      8  N         22.1410  -21.7650   -9.4980 N.am    1  UNL1       -0.3220
      9  H         21.5980  -20.9110   -9.4700 H       1  UNL1        0.1690
     10  O         22.2030  -23.9170   -8.5970 O.2     1  UNL1       -0.2670
     11  C         23.1410  -21.8320  -10.4960 C.2     1  UNL1        0.0530
     12  C         24.4980  -21.6110  -10.2580 C.2     1  UNL1        0.0480
     13  C         25.3790  -21.7010  -11.3500 C.2     1  UNL1        0.0330
     14  C         26.7640  -21.5650  -11.5750 C.2     1  UNL1        0.1540
     15  C         24.8520  -22.0010  -12.5990 C.2     1  UNL1        0.1580
     16  N         27.1060  -21.7560  -12.8540 N.2     1  UNL1       -0.1820
     17  N         25.9220  -22.0260  -13.4610 N.pl3   1  UNL1       -0.2480
     18  N         23.5560  -22.2230  -12.8960 N.2     1  UNL1       -0.2390
     19  C         22.7500  -22.1260  -11.8080 C.2     1  UNL1        0.1480
     20  C         25.9040  -22.2990  -14.8930 C.3     1  UNL1        0.1040
     21  C         27.0380  -21.5840  -15.6270 C.3     1  UNL1        0.0340
     22  C         25.8950  -23.7980  -15.1910 C.3     1  UNL1        0.0340
     23  S         17.1390  -23.9090   -6.4860 S.O2    1  UNL1        0.2630
     24  O         17.5380  -25.1510   -5.8570 O.2     1  UNL1       -0.2000
     25  O         16.0750  -23.0990   -5.9340 O.2     1  UNL1       -0.2000
     26  N         16.7960  -24.2890   -8.0950 N.pl3   1  UNL1       -0.2810
     27  H         17.0200  -25.2570   -8.3170 H       1  UNL1        0.1790
     28  C         17.0050  -23.3080   -9.1040 C.2     1  UNL1        0.0450
     29  C         16.0070  -22.3600   -9.3920 C.2     1  UNL1        0.0330
     30  C         16.2290  -21.3620  -10.3460 C.2     1  UNL1        0.0420
     31  C         17.4520  -21.3440  -10.9800 C.2     1  UNL1        0.1050
     32  C         18.4270  -22.2730  -10.6980 C.2     1  UNL1        0.1070
     33  O         17.8450  -20.4520  -11.9260 O.2     1  UNL1       -0.3230
     34  C         18.2350  -23.2730   -9.7660 C.2     1  UNL1        0.0690
     35  O         19.5590  -22.0760  -11.4260 O.2     1  UNL1       -0.3230
     36  C         19.1930  -20.8980  -12.1790 C.3     1  UNL1        0.3520
@<TRIPOS>BOND
     1    21    20    1
     2    22    20    1
     3    20    17    1
     4    17    16    1
     5    17    15    1
     6    18    15    2
     7    18    19    1
     8    16    14    2
     9    15    13    1
    10    36    33    1
    11    36    35    1
    12    33    31    1
    13    19    11    2
    14    14    13    1
    15    35    32    1
    16    13    12    2
    17    31    32    2
    18    31    30    1
    19    32    34    1
    20    11    12    1
    21    11     8    1
    22    30    29    2
    23    34    28    2
    24     8     9    1
    25     8     7   am
    26    29    28    1
    27    28    26    1
    28     7    10    2
    29     7     1    1
    30    27    26    1
    31    26    23    1
    32     1     6    2
    33     1     2    1
    34     6     5    1
    35     2     3    2
    36     5    23    1
    37     5     4    2
    38    23    25    2
    39    23    24    2
    40     3     4    1
