@<TRIPOS>MOLECULE
66188_out_ligand_01.pdbqt
 36 39 0 0 0
SMALL
GASTEIGER

@<TRIPOS>ATOM
      1  C         21.2360  -22.5110   -7.9100 C.2     1  UNL1       -0.0490
      2  C         20.9480  -23.7630   -8.4720 C.2     1  UNL1        0.0100
      3  C         19.6870  -24.3400   -8.3050 C.2     1  UNL1        0.0300
      4  C         18.6990  -23.6670   -7.5890 C.2     1  UNL1        0.0420
      5  C         18.9750  -22.4190   -7.0280 C.2     1  UNL1        0.0300
      6  C         20.2360  -21.8420   -7.1920 C.2     1  UNL1        0.0100
      7  C         22.6000  -21.8830   -8.0950 C.3     1  UNL1        0.1410
      8  C         23.0100  -21.6510   -9.5440 C.2     1  UNL1        0.2260
      9  O         22.1990  -21.1990  -10.3480 O.2     1  UNL1       -0.2730
     10  N         24.3430  -21.9290   -9.7970 N.am    1  UNL1       -0.3270
     11  H         24.8840  -22.2820   -9.0180 H       1  UNL1        0.1690
     12  C         25.0300  -21.8220  -11.0240 C.2     1  UNL1        0.0350
     13  C         25.9630  -20.7810  -11.1370 C.2     1  UNL1        0.0290
     14  C         26.6950  -20.5970  -12.3120 C.2     1  UNL1        0.0030
     15  C         26.4980  -21.4510  -13.3950 C.2     1  UNL1        0.0170
     16  C         25.5630  -22.4880  -13.2970 C.2     1  UNL1        0.0340
     17  C         24.8400  -22.6790  -12.1100 C.2     1  UNL1        0.0460
     18  C         25.3370  -23.4260  -14.4280 C.2     1  UNL1        0.2520
     19  O         25.2710  -24.6330  -14.2240 O.2     1  UNL1       -0.2680
     20  N         25.1930  -22.8390  -15.6720 N.am    1  UNL1       -0.3520
     21  H         25.1030  -21.8320  -15.7290 H       1  UNL1        0.1630
     22  C         24.9040  -23.6070  -16.8410 C.3     1  UNL1        0.0840
     23  C         23.5130  -23.6350  -17.4080 C.3     1  UNL1        0.0270
     24  C         24.6100  -22.9320  -18.1520 C.3     1  UNL1        0.0270
     25  N         17.3980  -24.2170   -7.4350 N.pl3   1  UNL1       -0.2810
     26  H         17.1030  -24.5080   -6.5040 H       1  UNL1        0.1790
     27  S         16.1140  -23.5950   -8.3380 S.O2    1  UNL1        0.2630
     28  O         15.3820  -24.6790   -8.9560 O.2     1  UNL1       -0.2000
     29  O         15.4510  -22.6350   -7.4810 O.2     1  UNL1       -0.2000
     30  C         16.9370  -22.6780   -9.6250 C.2     1  UNL1        0.0800
     31  C         17.8450  -23.3280  -10.4700 C.2     1  UNL1        0.0280
     32  C         18.4800  -22.6040  -11.4800 C.2     1  UNL1        0.0440
     33  C         18.1890  -21.2530  -11.6430 C.2     1  UNL1        0.1160
     34  F         18.8010  -20.5610  -12.6130 F       1  UNL1       -0.2060
     35  C         17.2710  -20.6080  -10.8200 C.2     1  UNL1        0.0440
     36  C         16.6330  -21.3230   -9.8040 C.2     1  UNL1        0.0280
@<TRIPOS>BOND
     1    24    23    1
     2    24    22    1
     3    23    22    1
     4    22    20    1
     5    21    20    1
     6    20    18   am
     7    18    19    2
     8    18    16    1
     9    15    16    2
    10    15    14    1
    11    16    17    1
    12    34    33    1
    13    14    13    2
    14    17    12    2
    15    33    32    2
    16    33    35    1
    17    32    31    1
    18    13    12    1
    19    12    10    1
    20    35    36    2
    21    31    30    2
    22     9     8    2
    23    36    30    1
    24    10     8   am
    25    10    11    1
    26    30    27    1
    27     8     7    1
    28    28    27    2
    29     2     3    1
    30     2     1    2
    31    27    29    2
    32    27    25    1
    33     3     4    2
    34     7     1    1
    35     1     6    1
    36     4    25    1
    37     4     5    1
    38    25    26    1
    39     6     5    2
