@<TRIPOS>MOLECULE
66192_out_ligand_01.pdbqt
 31 34 0 0 0
SMALL
GASTEIGER

@<TRIPOS>ATOM
      1  C         17.6030  -22.3990   -9.7480 C.2     1  UNL1        0.2400
      2  O         17.6060  -21.7030  -10.7610 O.2     1  UNL1       -0.2710
      3  N         18.6960  -23.0600   -9.1970 N.am    1  UNL1       -0.3260
      4  H         18.5430  -23.5600   -8.3290 H       1  UNL1        0.1690
      5  C         16.3120  -22.5990   -8.9320 C.3     1  UNL1        0.2270
      6  N         16.4450  -23.6630   -7.9090 N.pl3   1  UNL1       -0.3600
      7  C         15.7330  -24.8990   -8.2850 C.3     1  UNL1        0.1520
      8  C         16.3440  -23.2950   -6.5840 C.2     1  UNL1        0.1500
      9  N         15.3460  -23.6990   -5.7770 N.2     1  UNL1       -0.1410
     10  S         15.6980  -23.0300   -4.4180 S.O2    1  UNL1        0.2860
     11  O         15.8240  -24.1450   -3.2610 O.2     1  UNL1       -0.1980
     12  O         14.4760  -22.1310   -3.8710 O.2     1  UNL1       -0.1980
     13  C         17.0600  -22.1830   -4.5610 C.2     1  UNL1        0.0950
     14  C         17.8440  -21.3960   -3.7030 C.2     1  UNL1        0.0260
     15  C         17.3910  -22.4200   -5.9210 C.2     1  UNL1        0.0340
     16  C         19.0170  -20.8380   -4.2160 C.2     1  UNL1        0.0020
     17  C         19.3950  -21.0660   -5.5400 C.2     1  UNL1        0.0010
     18  C         18.6040  -21.8550   -6.3940 C.2     1  UNL1        0.0170
     19  C         20.0250  -23.0690   -9.6670 C.2     1  UNL1        0.0350
     20  C         20.9590  -23.7830   -8.9020 C.2     1  UNL1        0.0290
     21  C         22.2990  -23.8490   -9.2840 C.2     1  UNL1        0.0030
     22  C         22.7250  -23.1910  -10.4360 C.2     1  UNL1        0.0170
     23  C         21.8060  -22.4620  -11.2020 C.2     1  UNL1        0.0340
     24  C         20.4550  -22.4170  -10.8250 C.2     1  UNL1        0.0460
     25  C         22.2160  -21.7420  -12.4410 C.2     1  UNL1        0.2520
     26  O         21.4350  -20.9750  -12.9930 O.2     1  UNL1       -0.2680
     27  N         23.5010  -21.9900  -12.8920 N.am    1  UNL1       -0.3520
     28  H         24.1250  -22.5720  -12.3440 H       1  UNL1        0.1630
     29  C         24.0400  -21.3150  -14.0300 C.3     1  UNL1        0.0840
     30  C         25.5240  -21.2870  -14.2790 C.3     1  UNL1        0.0270
     31  C         24.6300  -22.0940  -15.1750 C.3     1  UNL1        0.0270
@<TRIPOS>BOND
     1    31    30    1
     2    31    29    1
     3    30    29    1
     4    29    27    1
     5    26    25    2
     6    27    25   am
     7    27    28    1
     8    25    23    1
     9    23    24    1
    10    23    22    2
    11    24    19    2
    12     2     1    2
    13    22    21    1
    14     1     3   am
    15     1     5    1
    16    19     3    1
    17    19    20    1
    18    21    20    2
    19     3     4    1
    20     5     6    1
    21     7     6    1
    22     6     8    1
    23     8    15    1
    24     8     9    2
    25    18    15    1
    26    18    17    2
    27    15    13    2
    28     9    10    1
    29    17    16    1
    30    13    10    1
    31    13    14    1
    32    10    12    2
    33    10    11    2
    34    16    14    2
