@<TRIPOS>MOLECULE
6620_out_ligand_01.pdbqt
 35 40 0 0 0
SMALL
GASTEIGER

@<TRIPOS>ATOM
      1  O         20.7750  -20.8330  -12.3590 O.2     1  UNL1       -0.2670
      2  C         21.4630  -21.6250  -11.7220 C.2     1  UNL1        0.2560
      3  N         22.8130  -21.7310  -11.9550 N.am    1  UNL1       -0.3310
      4  C         23.5470  -22.9200  -11.6000 C.3     1  UNL1        0.2230
      5  N         23.1670  -23.3090  -10.2530 N.pl3   1  UNL1       -0.3580
      6  C         21.8400  -23.2850   -9.9820 C.ar    1  UNL1        0.0880
      7  S         21.0930  -24.2190   -8.7740 S.2     1  UNL1       -0.0740
      8  C         19.5630  -23.5800   -9.1650 C.ar    1  UNL1        0.0200
      9  C         19.6150  -22.6660  -10.2020 C.ar    1  UNL1       -0.0230
     10  C         20.9520  -22.4920  -10.6760 C.ar    1  UNL1        0.0730
     11  C         18.3690  -21.9760  -10.6700 C.3     1  UNL1        0.0710
     12  C         17.0990  -22.6800  -10.1280 C.3     1  UNL1        0.2780
     13  N         17.2270  -23.0210   -8.6990 N.3     1  UNL1        0.0970
     14  C         18.3020  -24.0060   -8.4660 C.3     1  UNL1        0.3190
     15  H         23.1330  -21.1880  -12.7410 H       1  UNL1        0.1650
     16  H         23.7110  -24.0770   -9.8770 H       1  UNL1        0.1620
     17  C         24.9990  -22.6260  -11.7880 C.2     1  UNL1        0.0320
     18  C         25.9310  -22.3190  -10.8130 C.2     1  UNL1        0.1220
     19  N         27.1210  -22.1680  -11.4510 N.pl3   1  UNL1       -0.2880
     20  N         27.0460  -22.3660  -12.7730 N.2     1  UNL1       -0.1740
     21  H         28.0250  -21.9350  -11.0510 H       1  UNL1        0.1880
     22  C         25.7490  -22.6280  -13.0050 C.2     1  UNL1        0.0980
     23  C         25.2770  -22.8890  -14.3610 C.2     1  UNL1       -0.0050
     24  C         25.2090  -24.1970  -14.8600 C.2     1  UNL1        0.0140
     25  C         24.7780  -24.4300  -16.1680 C.2     1  UNL1        0.0010
     26  C         24.4080  -23.3600  -16.9830 C.2     1  UNL1        0.0000
     27  C         24.4580  -22.0560  -16.4900 C.2     1  UNL1        0.0010
     28  C         24.8880  -21.8220  -15.1810 C.2     1  UNL1        0.0140
     29  C         15.9610  -23.3830   -8.0530 C.3     1  UNL1        0.3110
     30  C         15.8610  -23.1610   -6.5590 C.2     1  UNL1       -0.0300
     31  C         16.7340  -23.8200   -5.6790 C.2     1  UNL1        0.0090
     32  C         16.6380  -23.6220   -4.2990 C.2     1  UNL1        0.0010
     33  C         15.6660  -22.7690   -3.7840 C.2     1  UNL1        0.0000
     34  C         14.7890  -22.1130   -4.6450 C.2     1  UNL1        0.0010
     35  C         14.8830  -22.3080   -6.0240 C.2     1  UNL1        0.0090
@<TRIPOS>BOND
     1    26    27    2
     2    26    25    1
     3    27    28    1
     4    25    24    2
     5    28    23    2
     6    24    23    1
     7    23    22    1
     8    22    20    2
     9    22    17    1
    10    20    19    1
    11    15     3    1
    12     1     2    2
    13     3     2   am
    14     3     4    1
    15    17     4    1
    16    17    18    2
    17     2    10    1
    18     4     5    1
    19    19    21    1
    20    19    18    1
    21    10     9   ar
    22    10     6   ar
    23    11     9    1
    24    11    12    1
    25     5     6    1
    26     5    16    1
    27     9     8   ar
    28    12    13    1
    29     6     7   ar
    30     8     7   ar
    31     8    14    1
    32    13    14    1
    33    13    29    1
    34    29    30    1
    35    30    35    2
    36    30    31    1
    37    35    34    1
    38    31    32    2
    39    34    33    2
    40    32    33    1
