@<TRIPOS>MOLECULE
66205_out_ligand_01.pdbqt
 35 38 0 0 0
SMALL
GASTEIGER

@<TRIPOS>ATOM
      1  C         17.2250  -22.8610   -9.1500 C.2     1  UNL1        0.0800
      2  C         16.6010  -22.0010  -10.0590 C.2     1  UNL1        0.0250
      3  C         17.3540  -21.4110  -11.0740 C.2     1  UNL1        0.0030
      4  C         18.7230  -21.6690  -11.1720 C.2     1  UNL1        0.0170
      5  C         19.3470  -22.5170  -10.2440 C.2     1  UNL1        0.0330
      6  C         18.5950  -23.1220   -9.2320 C.2     1  UNL1        0.0420
      7  C         20.7990  -22.8250  -10.3310 C.2     1  UNL1        0.2560
      8  O         21.2260  -23.7760   -9.6880 O.2     1  UNL1       -0.2670
      9  N         21.5310  -21.9490  -11.1110 N.am    1  UNL1       -0.3230
     10  H         21.0570  -21.1110  -11.4220 H       1  UNL1        0.1690
     11  C         22.9060  -22.0280  -11.4130 C.2     1  UNL1        0.0350
     12  C         23.7990  -21.5410  -10.4480 C.2     1  UNL1        0.0290
     13  C         25.1790  -21.5810  -10.6630 C.2     1  UNL1        0.0030
     14  C         25.6820  -22.1060  -11.8500 C.2     1  UNL1        0.0170
     15  C         24.7990  -22.5920  -12.8210 C.2     1  UNL1        0.0340
     16  C         23.4140  -22.5420  -12.6080 C.2     1  UNL1        0.0460
     17  C         25.3050  -23.1370  -14.1070 C.2     1  UNL1        0.2520
     18  O         26.1730  -24.0010  -14.1120 O.2     1  UNL1       -0.2680
     19  N         24.7430  -22.5860  -15.2440 N.am    1  UNL1       -0.3520
     20  H         24.1700  -21.7580  -15.1490 H       1  UNL1        0.1630
     21  C         25.1630  -22.9680  -16.5540 C.3     1  UNL1        0.0840
     22  C         24.1540  -23.4140  -17.5740 C.3     1  UNL1        0.0270
     23  C         24.8540  -22.0980  -17.7420 C.3     1  UNL1        0.0270
     24  S         16.2780  -23.6170   -7.8540 S.O2    1  UNL1        0.2630
     25  O         15.5430  -22.5580   -7.1950 O.2     1  UNL1       -0.2000
     26  O         15.5920  -24.7720   -8.3890 O.2     1  UNL1       -0.2000
     27  N         17.4690  -24.1180   -6.7690 N.pl3   1  UNL1       -0.2810
     28  H         18.2420  -24.5810   -7.2470 H       1  UNL1        0.1790
     29  C         17.7850  -23.2630   -5.6800 C.2     1  UNL1        0.0430
     30  C         17.3730  -23.6120   -4.3970 C.2     1  UNL1        0.0300
     31  C         17.6520  -22.7640   -3.3270 C.2     1  UNL1        0.0030
     32  C         18.3400  -21.5690   -3.5410 C.2     1  UNL1        0.0070
     33  C         18.7610  -21.2140   -4.8280 C.2     1  UNL1       -0.0600
     34  C         19.4700  -19.9150   -5.0750 C.3     1  UNL1        0.0480
     35  C         18.4710  -22.0670   -5.9020 C.2     1  UNL1        0.0370
@<TRIPOS>BOND
     1    23    22    1
     2    23    21    1
     3    22    21    1
     4    21    19    1
     5    19    20    1
     6    19    17   am
     7    18    17    2
     8    17    15    1
     9    15    16    1
    10    15    14    2
    11    16    11    2
    12    14    13    1
    13    10     9    1
    14    11     9    1
    15    11    12    1
    16     4     3    2
    17     4     5    1
    18     9     7   am
    19     3     2    1
    20    13    12    2
    21     7     5    1
    22     7     8    2
    23     5     6    2
    24     2     1    2
    25     6     1    1
    26     1    24    1
    27    26    24    2
    28    24    25    2
    29    24    27    1
    30    28    27    1
    31    27    29    1
    32    35    29    2
    33    35    33    1
    34    29    30    1
    35    34    33    1
    36    33    32    2
    37    30    31    2
    38    32    31    1
