@<TRIPOS>MOLECULE
66201_out_ligand_01.pdbqt
 36 39 0 0 0
SMALL
GASTEIGER

@<TRIPOS>ATOM
      1  C         17.5740  -23.0590   -9.6070 C.2     1  UNL1        0.0430
      2  C         16.5350  -22.1840   -9.9210 C.2     1  UNL1        0.0300
      3  C         16.7560  -21.1280  -10.8050 C.2     1  UNL1        0.0030
      4  C         18.0250  -20.9290  -11.3490 C.2     1  UNL1        0.0170
      5  C         19.0770  -21.7860  -11.0060 C.2     1  UNL1        0.0340
      6  C         18.8430  -22.8740  -10.1550 C.2     1  UNL1        0.0470
      7  C         20.4330  -21.5170  -11.5590 C.2     1  UNL1        0.2560
      8  O         20.5380  -20.7230  -12.4860 O.2     1  UNL1       -0.2670
      9  N         21.4640  -22.1760  -10.9110 N.am    1  UNL1       -0.3230
     10  H         21.2380  -22.6520  -10.0460 H       1  UNL1        0.1690
     11  C         22.8340  -22.1510  -11.2490 C.2     1  UNL1        0.0350
     12  C         23.7150  -21.6020  -10.3090 C.2     1  UNL1        0.0290
     13  C         25.0850  -21.5410  -10.5680 C.2     1  UNL1        0.0030
     14  C         25.5860  -22.0280  -11.7730 C.2     1  UNL1        0.0170
     15  C         24.7180  -22.5780  -12.7240 C.2     1  UNL1        0.0340
     16  C         23.3450  -22.6560  -12.4470 C.2     1  UNL1        0.0460
     17  C         25.3040  -23.0900  -13.9970 C.2     1  UNL1        0.2520
     18  O         26.3100  -23.7920  -13.9630 O.2     1  UNL1       -0.2680
     19  N         24.6770  -22.7020  -15.1680 N.am    1  UNL1       -0.3520
     20  H         23.9320  -22.0170  -15.1310 H       1  UNL1        0.1630
     21  C         25.1660  -23.0770  -16.4580 C.3     1  UNL1        0.0840
     22  C         25.0210  -22.1430  -17.6270 C.3     1  UNL1        0.0270
     23  C         24.2080  -23.4020  -17.5720 C.3     1  UNL1        0.0270
     24  N         17.3840  -24.0840   -8.6390 N.pl3   1  UNL1       -0.2810
     25  H         17.9910  -24.9020   -8.6710 H       1  UNL1        0.1790
     26  S         17.0090  -23.6310   -7.0510 S.O2    1  UNL1        0.2630
     27  O         17.1410  -24.8260   -6.2460 O.2     1  UNL1       -0.2000
     28  O         15.7940  -22.8480   -7.0550 O.2     1  UNL1       -0.2000
     29  C         18.3590  -22.5540   -6.6230 C.2     1  UNL1        0.0820
     30  C         18.1770  -21.5550   -5.6620 C.2     1  UNL1        0.0260
     31  C         19.2220  -20.6760   -5.3720 C.2     1  UNL1        0.0110
     32  C         20.4550  -20.8040   -6.0260 C.2     1  UNL1       -0.0230
     33  C         21.5660  -19.8360   -5.7490 C.3     1  UNL1        0.0510
     34  C         20.6130  -21.8190   -6.9760 C.2     1  UNL1        0.1230
     35  C         19.5840  -22.7040   -7.2730 C.2     1  UNL1        0.0680
     36  F         21.7690  -21.9290   -7.6450 F       1  UNL1       -0.2060
@<TRIPOS>BOND
     1    22    23    1
     2    22    21    1
     3    23    21    1
     4    21    19    1
     5    19    20    1
     6    19    17   am
     7    17    18    2
     8    17    15    1
     9    15    16    1
    10    15    14    2
    11     8     7    2
    12    16    11    2
    13    14    13    1
    14     7     5    1
    15     7     9   am
    16     4     5    2
    17     4     3    1
    18    11     9    1
    19    11    12    1
    20     5     6    1
    21     9    10    1
    22     3     2    2
    23    13    12    2
    24     6     1    2
    25     2     1    1
    26     1    24    1
    27    25    24    1
    28    24    26    1
    29    36    34    1
    30    35    34    1
    31    35    29    2
    32    28    26    2
    33    26    29    1
    34    26    27    2
    35    34    32    2
    36    29    30    1
    37    32    33    1
    38    32    31    1
    39    30    31    2
