@<TRIPOS>MOLECULE
6621_out_ligand_01.pdbqt
 35 40 0 0 0
SMALL
GASTEIGER

@<TRIPOS>ATOM
      1  O         20.1990  -20.9680  -12.4030 O.2     1  UNL1       -0.2670
      2  C         21.0980  -21.6390  -11.9050 C.2     1  UNL1        0.2560
      3  N         22.3810  -21.5750  -12.3910 N.am    1  UNL1       -0.3300
      4  C         23.3100  -22.6590  -12.1950 C.3     1  UNL1        0.2430
      5  N         23.2450  -23.0930  -10.8110 N.pl3   1  UNL1       -0.3570
      6  C         22.0060  -23.2090  -10.2780 C.ar    1  UNL1        0.0880
      7  S         21.6280  -24.1900   -8.9440 S.2     1  UNL1       -0.0740
      8  C         19.9910  -23.7250   -9.0060 C.ar    1  UNL1        0.0200
      9  C         19.7290  -22.8400  -10.0360 C.ar    1  UNL1       -0.0230
     10  C         20.9130  -22.5330  -10.7750 C.ar    1  UNL1        0.0730
     11  C         18.3470  -22.3040  -10.2380 C.3     1  UNL1        0.0710
     12  C         17.3060  -23.1490   -9.4670 C.3     1  UNL1        0.2780
     13  N         17.7270  -23.4320   -8.0760 N.3     1  UNL1        0.0970
     14  C         18.9600  -24.2590   -8.0500 C.3     1  UNL1        0.3190
     15  H         22.4590  -21.0460  -13.2460 H       1  UNL1        0.1650
     16  H         23.9310  -23.7980  -10.5650 H       1  UNL1        0.1620
     17  C         24.6580  -22.1830  -12.6240 C.2     1  UNL1        0.0960
     18  C         25.9450  -22.5600  -12.2980 C.2     1  UNL1        0.0400
     19  C         26.8080  -21.7160  -13.0380 C.2     1  UNL1        0.0410
     20  C         26.0040  -20.8650  -13.7740 C.2     1  UNL1        0.0860
     21  O         24.6910  -21.1530  -13.5180 O.2     1  UNL1       -0.3100
     22  C         26.2600  -19.7780  -14.7180 C.2     1  UNL1       -0.0020
     23  C         26.0010  -19.9290  -16.0900 C.2     1  UNL1        0.0150
     24  C         26.2470  -18.8860  -16.9900 C.2     1  UNL1        0.0200
     25  C         26.7560  -17.6780  -16.5230 C.2     1  UNL1        0.0110
     26 BR         27.0890  -16.2660  -17.7340 Br      1  UNL1       -0.0510
     27  C         27.0200  -17.5040  -15.1680 C.2     1  UNL1        0.0200
     28  C         26.7720  -18.5500  -14.2710 C.2     1  UNL1        0.0150
     29  C         16.6370  -24.0890   -7.3370 C.3     1  UNL1        0.3110
     30  C         16.4020  -23.5080   -5.9590 C.2     1  UNL1       -0.0300
     31  C         15.2140  -22.8180   -5.6710 C.2     1  UNL1        0.0090
     32  C         14.9900  -22.2900   -4.3990 C.2     1  UNL1        0.0010
     33  C         15.9480  -22.4490   -3.3990 C.2     1  UNL1        0.0000
     34  C         17.1300  -23.1370   -3.6700 C.2     1  UNL1        0.0010
     35  C         17.3560  -23.6650   -4.9440 C.2     1  UNL1        0.0090
@<TRIPOS>BOND
     1    26    25    1
     2    24    25    2
     3    24    23    1
     4    25    27    1
     5    23    22    2
     6    27    28    2
     7    22    28    1
     8    22    20    1
     9    20    21    1
    10    20    19    2
    11    21    17    1
    12    15     3    1
    13    19    18    1
    14    17    18    2
    15    17     4    1
    16     1     2    2
    17     3     4    1
    18     3     2   am
    19     4     5    1
    20     2    10    1
    21     5    16    1
    22     5     6    1
    23    10     6   ar
    24    10     9   ar
    25     6     7   ar
    26    11     9    1
    27    11    12    1
    28     9     8   ar
    29    12    13    1
    30     8     7   ar
    31     8    14    1
    32    13    14    1
    33    13    29    1
    34    29    30    1
    35    30    31    2
    36    30    35    1
    37    31    32    1
    38    35    34    2
    39    32    33    2
    40    34    33    1
