@<TRIPOS>MOLECULE
6623_out_ligand_01.pdbqt
 33 37 0 0 0
SMALL
GASTEIGER

@<TRIPOS>ATOM
      1  C         22.8130  -21.8350  -12.7350 C.3     1  UNL1        0.2220
      2  N         21.7080  -20.9100  -12.7780 N.am    1  UNL1       -0.3310
      3  C         20.5190  -21.1910  -12.1500 C.2     1  UNL1        0.2560
      4  O         19.4740  -20.6550  -12.5020 O.2     1  UNL1       -0.2670
      5  C         20.6150  -22.1340  -11.0490 C.ar    1  UNL1        0.0730
      6  C         21.8530  -22.6320  -10.7070 C.ar    1  UNL1        0.0880
      7  S         21.7970  -23.6960   -9.3840 S.2     1  UNL1       -0.0740
      8  C         20.1110  -23.5130   -9.2480 C.ar    1  UNL1        0.0200
      9  C         19.5900  -22.6540  -10.2000 C.ar    1  UNL1       -0.0230
     10  C         18.1240  -22.3420  -10.2260 C.3     1  UNL1        0.0710
     11  C         17.3340  -23.3070   -9.3080 C.3     1  UNL1        0.2780
     12  N         17.9700  -23.6130   -8.0010 N.3     1  UNL1        0.0970
     13  C         19.2980  -24.2370   -8.2120 C.3     1  UNL1        0.3190
     14  N         22.9870  -22.2980  -11.3690 N.pl3   1  UNL1       -0.3580
     15  H         21.5910  -20.3610  -13.6170 H       1  UNL1        0.1650
     16  H         23.8030  -22.8820  -11.2190 H       1  UNL1        0.1620
     17  C         24.0900  -21.1770  -13.2100 C.2     1  UNL1        0.0200
     18  C         24.9040  -20.4830  -12.2920 C.2     1  UNL1        0.0330
     19  C         26.0590  -19.8300  -12.7160 C.2     1  UNL1        0.0130
     20  C         26.4280  -19.8450  -14.0580 C.2     1  UNL1        0.0410
     21 BR         27.1210  -18.8960  -11.4630 Br      1  UNL1       -0.0510
     22  C         25.6410  -20.5370  -14.9790 C.2     1  UNL1        0.0460
     23  C         24.4950  -21.2310  -14.5550 C.2     1  UNL1        0.0950
     24 BR         26.1530  -20.4680  -16.8060 Br      1  UNL1       -0.0480
     25  O         23.7100  -21.9040  -15.4580 O.2     1  UNL1       -0.3540
     26  C         24.3460  -23.1120  -15.8830 C.3     1  UNL1        0.2100
     27  C         18.0790  -22.4330   -7.1240 C.3     1  UNL1        0.3110
     28  C         17.0820  -22.4380   -5.9840 C.2     1  UNL1       -0.0300
     29  C         15.7030  -22.4600   -6.2430 C.2     1  UNL1        0.0090
     30  C         14.7830  -22.4710   -5.1940 C.2     1  UNL1        0.0010
     31  C         15.2310  -22.4620   -3.8740 C.2     1  UNL1        0.0000
     32  C         16.5980  -22.4410   -3.6030 C.2     1  UNL1        0.0010
     33  C         17.5190  -22.4320   -4.6520 C.2     1  UNL1        0.0090
@<TRIPOS>BOND
     1    24    22    1
     2    26    25    1
     3    25    23    1
     4    22    23    1
     5    22    20    2
     6    23    17    2
     7    20    19    1
     8    15     2    1
     9    17     1    1
    10    17    18    1
    11     2     1    1
    12     2     3   am
    13     1    14    1
    14    19    18    2
    15    19    21    1
    16     4     3    2
    17     3     5    1
    18    14    16    1
    19    14     6    1
    20     5     6   ar
    21     5     9   ar
    22     6     7   ar
    23    10     9    1
    24    10    11    1
    25     9     8   ar
    26     7     8   ar
    27    11    12    1
    28     8    13    1
    29    13    12    1
    30    12    27    1
    31    27    28    1
    32    29    28    2
    33    29    30    1
    34    28    33    1
    35    30    31    2
    36    33    32    2
    37    31    32    1
