@<TRIPOS>MOLECULE
66235_out_ligand_01.pdbqt
 36 39 0 0 0
SMALL
GASTEIGER

@<TRIPOS>ATOM
      1  C         20.1650  -22.7780   -9.2970 C.2     1  UNL1        0.0320
      2  C         21.2080  -23.5370   -8.7510 C.2     1  UNL1        0.0190
      3  C         22.4190  -23.6620   -9.4410 C.2     1  UNL1        0.0310
      4  C         22.5830  -23.0370  -10.6770 C.2     1  UNL1        0.0420
      5  C         21.5440  -22.2960  -11.2360 C.2     1  UNL1        0.0310
      6  C         20.3360  -22.1670  -10.5480 C.2     1  UNL1        0.0190
      7  N         23.7930  -23.1990  -11.4040 N.pl3   1  UNL1       -0.2810
      8  H         23.7210  -23.3700  -12.4060 H       1  UNL1        0.1790
      9  S         25.0650  -22.1340  -11.0680 S.O2    1  UNL1        0.2630
     10  O         24.5610  -21.2160  -10.0690 O.2     1  UNL1       -0.2000
     11  O         26.2790  -22.8870  -10.8430 O.2     1  UNL1       -0.2000
     12  C         25.2230  -21.2310  -12.5900 C.2     1  UNL1        0.0820
     13  C         24.5010  -21.6710  -13.7280 C.2     1  UNL1        0.0280
     14  C         24.5890  -20.9750  -14.9390 C.2     1  UNL1        0.0330
     15  C         25.3960  -19.8610  -14.9520 C.ar    1  UNL1        0.0630
     16  N         25.6780  -18.9820  -15.9920 N.ar    1  UNL1       -0.3070
     17  C         26.0940  -19.4270  -13.8240 C.ar    1  UNL1        0.0640
     18  C         26.5540  -17.9920  -15.5230 C.ar    1  UNL1        0.3250
     19  H         25.3270  -19.0150  -16.9360 H       1  UNL1        0.1700
     20  O         27.0090  -17.0630  -16.1630 O.2     1  UNL1       -0.2470
     21  N         26.8040  -18.2860  -14.1740 N.ar    1  UNL1       -0.3060
     22  H         27.4080  -17.7340  -13.5850 H       1  UNL1        0.1700
     23  C         26.0270  -20.0840  -12.6200 C.2     1  UNL1        0.0570
     24  C         18.8520  -22.6220   -8.6130 C.2     1  UNL1        0.2510
     25  N         17.7460  -23.0900   -9.2930 N.am    1  UNL1       -0.3530
     26  H         17.8610  -23.5470  -10.1850 H       1  UNL1        0.1630
     27  O         18.8070  -22.1170   -7.4980 O.2     1  UNL1       -0.2680
     28  C         16.4060  -23.0000   -8.7230 C.3     1  UNL1        0.0810
     29  C         15.4070  -22.5980   -9.8100 C.3     1  UNL1        0.0320
     30  C         15.9770  -24.3360   -8.0890 C.3     1  UNL1        0.0310
     31  C         16.5850  -24.6070   -6.7090 C.3     1  UNL1        0.0670
     32  C         16.0820  -23.6770   -5.6680 C.2     1  UNL1        0.0520
     33  C         14.8340  -23.1790   -5.3590 C.2     1  UNL1        0.0340
     34  C         15.0140  -22.3170   -4.2510 C.2     1  UNL1        0.0270
     35  C         16.3560  -22.3490   -3.9540 C.2     1  UNL1        0.1420
     36  O         17.0110  -23.1780   -4.8050 O.2     1  UNL1       -0.3270
@<TRIPOS>BOND
     1    19    16    1
     2    20    18    2
     3    16    18   ar
     4    16    15   ar
     5    18    21   ar
     6    15    14    2
     7    15    17   ar
     8    14    13    1
     9    21    17   ar
    10    21    22    1
    11    17    23    2
    12    13    12    2
    13    23    12    1
    14    12     9    1
    15     8     7    1
    16     7     9    1
    17     7     4    1
    18     5     4    2
    19     5     6    1
    20     9    11    2
    21     9    10    2
    22     4     3    1
    23     6     1    2
    24    26    25    1
    25    29    28    1
    26     3     2    2
    27     1     2    1
    28     1    24    1
    29    25    28    1
    30    25    24   am
    31    28    30    1
    32    24    27    2
    33    30    31    1
    34    31    32    1
    35    32    33    2
    36    32    36    1
    37    33    34    1
    38    36    35    1
    39    34    35    2
