@<TRIPOS>MOLECULE
66240_out_ligand_01.pdbqt
 34 38 0 0 0
SMALL
GASTEIGER

@<TRIPOS>ATOM
      1  C         23.0040  -23.7180   -8.8010 C.3     1  UNL1        0.0740
      2  C         22.3700  -23.0670   -9.9780 C.ar    1  UNL1        0.0750
      3  N         21.0450  -23.1420  -10.1440 N.ar    1  UNL1       -0.1750
      4  N         20.7840  -22.3410  -11.1970 N.ar    1  UNL1       -0.2590
      5  C         21.9250  -21.9220  -11.8460 C.ar    1  UNL1        0.0520
      6  C         21.9120  -21.1410  -13.1110 C.3     1  UNL1        0.0720
      7  C         22.9700  -22.3340  -11.0270 C.ar    1  UNL1        0.1240
      8  C         19.3890  -22.0340  -11.5160 C.3     1  UNL1        0.1980
      9  C         19.2140  -20.5310  -11.7460 C.3     1  UNL1        0.0440
     10  C         18.3740  -22.5720  -10.4960 C.2     1  UNL1        0.2460
     11  O         17.5960  -23.4730  -10.8200 O.2     1  UNL1       -0.2710
     12  N         18.5010  -22.0690   -9.2100 N.am    1  UNL1       -0.3250
     13  H         18.9920  -21.1870   -9.1190 H       1  UNL1        0.1690
     14  C         17.8570  -22.5170   -8.0370 C.2     1  UNL1        0.0350
     15  C         18.5320  -23.4990   -7.2800 C.2     1  UNL1        0.0300
     16  C         17.9700  -24.0390   -6.1180 C.2     1  UNL1        0.0100
     17  C         16.7330  -23.5740   -5.7150 C.2     1  UNL1       -0.0520
     18  C         16.0580  -22.6010   -6.4570 C.2     1  UNL1       -0.0500
     19  C         15.9110  -24.0170   -4.5450 C.3     1  UNL1        0.0390
     20  C         16.6010  -22.0710   -7.6180 C.2     1  UNL1        0.0370
     21  C         14.7240  -22.2950   -5.8480 C.3     1  UNL1        0.0390
     22  C         14.9050  -22.8620   -4.4320 C.3     1  UNL1        0.0090
     23  S         24.6680  -22.0380  -11.1460 S.O2    1  UNL1        0.2520
     24  O         25.2450  -23.3300  -10.8460 O.2     1  UNL1       -0.2050
     25  O         24.9170  -20.8860  -10.3070 O.2     1  UNL1       -0.2050
     26  N         25.0020  -21.6140  -12.7540 N.pl3   1  UNL1       -0.1710
     27  C         25.8990  -20.4270  -12.9490 C.3     1  UNL1        0.1180
     28  C         26.5700  -20.6210  -14.3170 C.3     1  UNL1        0.0560
     29  C         26.4100  -22.0900  -14.5350 C.2     1  UNL1       -0.0350
     30  C         26.9810  -22.8640  -15.5340 C.2     1  UNL1        0.0090
     31  C         25.5070  -22.6370  -13.6210 C.2     1  UNL1        0.0310
     32  C         26.6260  -24.2140  -15.6090 C.2     1  UNL1        0.0010
     33  C         25.6930  -24.7570  -14.7130 C.2     1  UNL1        0.0020
     34  C         25.1160  -23.9630  -13.7170 C.2     1  UNL1        0.0250
@<TRIPOS>BOND
     1    32    30    1
     2    32    33    2
     3    30    29    2
     4    33    34    1
     5    29    28    1
     6    29    31    1
     7    28    27    1
     8    34    31    2
     9    31    26    1
    10     6     5    1
    11    27    26    1
    12    26    23    1
    13     5     4   ar
    14     5     7   ar
    15     9     8    1
    16     8     4    1
    17     8    10    1
    18     4     3   ar
    19    23     7    1
    20    23    24    2
    21    23    25    2
    22     7     2   ar
    23    11    10    2
    24    10    12   am
    25     3     2   ar
    26     2     1    1
    27    12    13    1
    28    12    14    1
    29    14    20    2
    30    14    15    1
    31    20    18    1
    32    15    16    2
    33    18    21    1
    34    18    17    2
    35    16    17    1
    36    21    22    1
    37    17    19    1
    38    19    22    1
