@<TRIPOS>MOLECULE
66261_out_ligand_01.pdbqt
 38 42 0 0 0
SMALL
GASTEIGER

@<TRIPOS>ATOM
      1  C         22.1110  -21.5110  -12.6010 C.2     1  UNL1        0.0540
      2  C         22.5370  -20.8530  -13.7640 C.2     1  UNL1        0.0190
      3  C         23.7100  -21.2540  -14.4060 C.2     1  UNL1        0.0010
      4  C         24.4570  -22.3160  -13.8970 C.2     1  UNL1        0.0020
      5  C         24.0340  -22.9860  -12.7490 C.2     1  UNL1        0.0250
      6  C         22.8560  -22.5970  -12.1040 C.2     1  UNL1        0.0380
      7  N         22.4950  -23.2630  -10.8840 N.pl3   1  UNL1       -0.1800
      8  H         21.4750  -23.3090  -10.7320 H       1  UNL1        0.1460
      9  S         23.2020  -22.6550   -9.4640 S.O2    1  UNL1        0.2460
     10  O         23.6180  -21.2990   -9.7430 O.2     1  UNL1       -0.2060
     11  O         24.1230  -23.6370   -8.9310 O.2     1  UNL1       -0.2060
     12  C         21.8010  -22.5420   -8.3730 C.2     1  UNL1        0.0770
     13  C         20.7990  -23.5420   -8.4150 C.2     1  UNL1        0.0270
     14  C         19.6900  -23.4740   -7.5640 C.2     1  UNL1        0.0330
     15  C         19.6400  -22.4040   -6.7010 C.ar    1  UNL1        0.0630
     16  N         18.6790  -22.0730   -5.7530 N.ar    1  UNL1       -0.3070
     17  C         20.6370  -21.4280   -6.6590 C.ar    1  UNL1        0.0640
     18  C         19.0680  -20.8900   -5.1090 C.ar    1  UNL1        0.3250
     19  H         17.8380  -22.5790   -5.5310 H       1  UNL1        0.1700
     20  O         18.4640  -20.3140   -4.2220 O.2     1  UNL1       -0.2470
     21  N         20.2860  -20.5010   -5.6850 N.ar    1  UNL1       -0.3060
     22  H         20.8010  -19.6820   -5.4040 H       1  UNL1        0.1700
     23  C         21.7380  -21.4650   -7.4780 C.2     1  UNL1        0.0560
     24  C         20.8510  -21.1080  -11.9200 C.2     1  UNL1        0.2590
     25  O         20.7890  -19.9780  -11.4390 O.2     1  UNL1       -0.2670
     26  N         19.8540  -22.0520  -11.9180 N.am    1  UNL1       -0.3060
     27  H         19.9430  -22.9150  -12.4340 H       1  UNL1        0.1700
     28  C         18.6160  -21.9000  -11.3420 C.2     1  UNL1        0.1520
     29  C         17.5160  -21.1350  -11.7610 C.2     1  UNL1        0.0710
     30  C         16.5470  -21.3540  -10.8110 C.2     1  UNL1        0.1220
     31  N         17.0840  -22.2170   -9.8830 N.pl3   1  UNL1       -0.2430
     32  N         18.3640  -22.5460  -10.2030 N.2     1  UNL1       -0.1490
     33  C         16.4650  -22.7420   -8.7120 C.2     1  UNL1        0.0580
     34  C         16.3590  -24.1330   -8.5530 C.2     1  UNL1        0.0310
     35  C         15.7560  -24.6690   -7.4140 C.2     1  UNL1        0.0020
     36  C         15.2540  -23.8230   -6.4270 C.2     1  UNL1        0.0000
     37  C         15.3550  -22.4410   -6.5770 C.2     1  UNL1        0.0020
     38  C         15.9580  -21.8970   -7.7160 C.2     1  UNL1        0.0310
@<TRIPOS>BOND
     1     3     4    2
     2     3     2    1
     3     4     5    1
     4     2     1    2
     5     5     6    2
     6     1     6    1
     7     1    24    1
     8    27    26    1
     9     6     7    1
    10    24    26   am
    11    24    25    2
    12    26    28    1
    13    29    28    1
    14    29    30    2
    15    28    32    2
    16     7     8    1
    17     7     9    1
    18    30    31    1
    19    32    31    1
    20    31    33    1
    21    10     9    2
    22     9    11    2
    23     9    12    1
    24    33    34    2
    25    33    38    1
    26    34    35    1
    27    13    12    2
    28    13    14    1
    29    12    23    1
    30    38    37    2
    31    14    15    2
    32    23    17    2
    33    35    36    2
    34    15    17   ar
    35    15    16   ar
    36    17    21   ar
    37    37    36    1
    38    16    19    1
    39    16    18   ar
    40    21    22    1
    41    21    18   ar
    42    18    20    2
