@<TRIPOS>MOLECULE
66260_out_ligand_01.pdbqt
 34 36 0 0 0
SMALL
GASTEIGER

@<TRIPOS>ATOM
      1  C         22.7630  -22.7390  -11.4800 C.2     1  UNL1        0.0230
      2  C         22.0920  -21.7940  -12.2610 C.2     1  UNL1        0.0240
      3  C         20.7550  -21.4900  -11.9960 C.2     1  UNL1        0.0030
      4  C         20.0880  -22.1360  -10.9520 C.2     1  UNL1        0.0170
      5  C         20.7630  -23.0850  -10.1640 C.2     1  UNL1        0.0330
      6  C         22.1010  -23.3990  -10.4440 C.2     1  UNL1        0.0410
      7  N         24.1210  -23.0700  -11.8130 N.pl3   1  UNL1       -0.1810
      8  H         24.2540  -23.0250  -12.8250 H       1  UNL1        0.1460
      9  S         25.2710  -21.9830  -11.1550 S.O2    1  UNL1        0.2460
     10  O         24.5100  -21.0610  -10.3370 O.2     1  UNL1       -0.2060
     11  O         26.4040  -22.7080  -10.6200 O.2     1  UNL1       -0.2060
     12  C         25.7920  -21.1140  -12.6320 C.2     1  UNL1        0.0810
     13  C         25.4850  -21.7040  -13.8760 C.2     1  UNL1        0.0330
     14  C         25.8050  -21.0760  -15.0960 C.2     1  UNL1       -0.0490
     15  C         26.4490  -19.8330  -15.0230 C.2     1  UNL1        0.0080
     16  C         26.7600  -19.2430  -13.7910 C.2     1  UNL1        0.0090
     17  C         26.4510  -19.8740  -12.5760 C.2     1  UNL1       -0.0390
     18  C         26.8000  -19.1670  -11.2980 C.3     1  UNL1        0.0500
     19  C         25.4620  -21.7570  -16.4350 C.3     1  UNL1       -0.0240
     20  C         24.4250  -22.8840  -16.2210 C.3     1  UNL1        0.0190
     21  C         26.7520  -22.3590  -17.0330 C.3     1  UNL1        0.0190
     22  C         24.8620  -20.7940  -17.4850 C.3     1  UNL1        0.0190
     23  C         20.0920  -23.8080   -9.0450 C.2     1  UNL1        0.2520
     24  O         20.5100  -24.9020   -8.6800 O.2     1  UNL1       -0.2680
     25  N         19.0330  -23.1660   -8.4390 N.am    1  UNL1       -0.3490
     26  H         18.8740  -22.1860   -8.6270 H       1  UNL1        0.1630
     27  C         18.3220  -23.7650   -7.3160 C.3     1  UNL1        0.1150
     28  C         16.8830  -24.1380   -7.6980 C.3     1  UNL1        0.0370
     29  C         18.3870  -22.8390   -6.1230 C.2     1  UNL1       -0.0180
     30  C         19.0960  -21.6350   -6.1910 C.2     1  UNL1        0.0120
     31  C         19.1220  -20.7770   -5.0950 C.2     1  UNL1        0.0200
     32  C         18.4260  -21.1470   -3.9570 C.2     1  UNL1        0.1160
     33  N         17.7210  -22.2920   -3.8510 N.2     1  UNL1       -0.2730
     34  C         17.7190  -23.1080   -4.9300 C.2     1  UNL1        0.1250
@<TRIPOS>BOND
     1    22    19    1
     2    21    19    1
     3    19    20    1
     4    19    14    1
     5    14    15    2
     6    14    13    1
     7    15    16    1
     8    13    12    2
     9    16    17    2
    10     8     7    1
    11    12    17    1
    12    12     9    1
    13    17    18    1
    14     2     3    1
    15     2     1    2
    16     3     4    2
    17     7     1    1
    18     7     9    1
    19     1     6    1
    20     9    11    2
    21     9    10    2
    22     4     5    1
    23     6     5    2
    24     5    23    1
    25    23    24    2
    26    23    25   am
    27    26    25    1
    28    25    27    1
    29    28    27    1
    30    27    29    1
    31    30    29    2
    32    30    31    1
    33    29    34    1
    34    31    32    2
    35    34    33    2
    36    32    33    1
