@<TRIPOS>MOLECULE
6626_out_ligand_01.pdbqt
 31 35 0 0 0
SMALL
GASTEIGER

@<TRIPOS>ATOM
      1  C         22.5950  -22.1140  -12.2260 C.2     1  UNL1        0.0330
      2  C         21.5110  -21.3910  -12.7810 C.2     1  UNL1        0.0180
      3  C         20.2840  -21.3150  -12.1100 C.2     1  UNL1        0.0190
      4  C         20.1780  -21.9810  -10.9040 C.2     1  UNL1        0.0480
      5  C         21.2260  -22.7000  -10.3700 C.2     1  UNL1        0.0490
      6  C         22.4500  -22.7900  -11.0050 C.2     1  UNL1        0.0350
      7  C         20.7780  -23.2560   -9.0960 C.2     1  UNL1        0.2660
      8  O         21.5550  -23.8190   -8.3460 O.2     1  UNL1       -0.2670
      9  N         19.4480  -22.9200   -8.9570 N.am    1  UNL1       -0.2430
     10  C         19.0500  -22.0900   -9.9830 C.2     1  UNL1        0.2660
     11  O         17.9960  -21.5170  -10.1960 O.2     1  UNL1       -0.2670
     12  C         23.9010  -22.2180  -12.9280 C.2     1  UNL1        0.2510
     13  O         23.9920  -21.8640  -14.0970 O.2     1  UNL1       -0.2680
     14  N         24.9500  -22.7300  -12.2000 N.am    1  UNL1       -0.3540
     15  H         24.8470  -22.9360  -11.2170 H       1  UNL1        0.1620
     16  C         26.3100  -22.6970  -12.7130 C.3     1  UNL1        0.1550
     17  C         27.0120  -21.3910  -12.3360 C.3     1  UNL1        0.1390
     18  C         26.3110  -20.6360  -11.2200 C.3     1  UNL1        0.0350
     19  C         26.7700  -19.2230  -11.4810 C.3     1  UNL1        0.0290
     20  C         26.7650  -19.1620  -12.9930 C.3     1  UNL1        0.1680
     21  O         27.0240  -20.4920  -13.4710 O.3     1  UNL1       -0.3840
     22  C         18.6520  -23.2160   -7.8100 C.2     1  UNL1        0.0570
     23  C         17.8080  -24.3420   -7.8700 C.2     1  UNL1        0.0310
     24  C         16.9430  -24.6540   -6.8270 C.2     1  UNL1        0.0030
     25  C         16.9130  -23.8540   -5.6930 C.2     1  UNL1        0.0120
     26  C         17.7680  -22.7510   -5.5690 C.2     1  UNL1       -0.0240
     27  C         17.7360  -21.9960   -4.3850 C.2     1  UNL1        0.0120
     28  C         18.6690  -22.4200   -6.6190 C.2     1  UNL1        0.0020
     29  C         18.6030  -20.9250   -4.1890 C.2     1  UNL1        0.0010
     30  C         19.5260  -20.6080   -5.1730 C.2     1  UNL1        0.0010
     31  C         19.5640  -21.3490   -6.3580 C.2     1  UNL1        0.0140
@<TRIPOS>BOND
     1    13    12    2
     2    21    20    1
     3    21    17    1
     4    20    19    1
     5    12     1    1
     6    12    14   am
     7     2     1    2
     8     2     3    1
     9    16    17    1
    10    16    14    1
    11    17    18    1
    12     1     6    1
    13    14    15    1
    14     3     4    2
    15    19    18    1
    16     6     5    2
    17     4     5    1
    18     4    10    1
    19     5     7    1
    20    11    10    2
    21    10     9   am
    22     7     9   am
    23     7     8    2
    24     9    22    1
    25    23    22    2
    26    23    24    1
    27    22    28    1
    28    24    25    2
    29    28    31    1
    30    28    26    2
    31    31    30    2
    32    25    26    1
    33    26    27    1
    34    30    29    1
    35    27    29    2
