@<TRIPOS>MOLECULE
6627_out_ligand_01.pdbqt
 31 35 0 0 0
SMALL
GASTEIGER

@<TRIPOS>ATOM
      1  C         17.7000  -22.2030   -7.2890 C.3     1  UNL1        0.2220
      2  N         17.3230  -22.6990   -8.5840 N.am    1  UNL1       -0.3310
      3  C         18.1380  -22.5700   -9.6780 C.2     1  UNL1        0.2560
      4  O         17.6890  -22.6490  -10.8180 O.2     1  UNL1       -0.2670
      5  C         19.5430  -22.3510   -9.3760 C.ar    1  UNL1        0.0730
      6  C         19.9480  -22.3500   -8.0580 C.ar    1  UNL1        0.0880
      7  S         21.6240  -22.1210   -7.8800 S.2     1  UNL1       -0.0740
      8  C         21.8360  -22.0150   -9.5660 C.ar    1  UNL1        0.0200
      9  C         20.6470  -22.1460  -10.2610 C.ar    1  UNL1       -0.0230
     10  C         20.6360  -22.1070  -11.7590 C.3     1  UNL1        0.0710
     11  C         21.9680  -21.5480  -12.3170 C.3     1  UNL1        0.2780
     12  N         23.1380  -22.1330  -11.6340 N.3     1  UNL1        0.0970
     13  C         23.1740  -21.7690  -10.2030 C.3     1  UNL1        0.3190
     14  N         19.0900  -22.5170   -7.0260 N.pl3   1  UNL1       -0.3580
     15  H         16.3430  -22.8070   -8.7900 H       1  UNL1        0.1650
     16  H         19.4080  -22.3180   -6.0860 H       1  UNL1        0.1620
     17  C         16.8110  -22.7000   -6.1650 C.2     1  UNL1        0.0170
     18  C         15.6950  -23.4970   -6.4990 C.2     1  UNL1        0.0140
     19  C         14.8290  -23.9710   -5.5160 C.2     1  UNL1        0.0010
     20  C         15.0580  -23.6550   -4.1830 C.2     1  UNL1        0.0030
     21  C         16.1520  -22.8610   -3.8310 C.2     1  UNL1        0.0370
     22  C         17.0260  -22.3720   -4.8100 C.2     1  UNL1        0.0780
     23  O         18.1200  -21.5970   -4.5330 O.2     1  UNL1       -0.3550
     24  C         18.5040  -21.4560   -3.1720 C.3     1  UNL1        0.2100
     25  C         24.4120  -21.9000  -12.3230 C.3     1  UNL1        0.3110
     26  C         24.6650  -22.6890  -13.5900 C.2     1  UNL1       -0.0300
     27  C         24.4300  -22.1190  -14.8500 C.2     1  UNL1        0.0090
     28  C         24.6650  -22.8480  -16.0160 C.2     1  UNL1        0.0010
     29  C         25.1330  -24.1580  -15.9380 C.2     1  UNL1        0.0000
     30  C         25.3650  -24.7410  -14.6940 C.2     1  UNL1        0.0010
     31  C         25.1310  -24.0120  -13.5270 C.2     1  UNL1        0.0090
@<TRIPOS>BOND
     1    28    29    2
     2    28    27    1
     3    29    30    1
     4    27    26    2
     5    30    31    2
     6    26    31    1
     7    26    25    1
     8    25    12    1
     9    11    10    1
    10    11    12    1
    11    10     9    1
    12    12    13    1
    13     4     3    2
    14     9     8   ar
    15     9     5   ar
    16    13     8    1
    17     3     5    1
    18     3     2   am
    19     8     7   ar
    20     5     6   ar
    21    15     2    1
    22     2     1    1
    23     6     7   ar
    24     6    14    1
    25     1    14    1
    26     1    17    1
    27    14    16    1
    28    18    17    2
    29    18    19    1
    30    17    22    1
    31    19    20    2
    32    22    23    1
    33    22    21    2
    34    23    24    1
    35    20    21    1
