@<TRIPOS>MOLECULE
66273_out_ligand_01.pdbqt
 34 37 0 0 0
SMALL
GASTEIGER

@<TRIPOS>ATOM
      1  C         18.8580  -21.8080  -10.7390 C.2     1  UNL1        0.2460
      2  O         18.6480  -20.7810  -11.3810 O.2     1  UNL1       -0.2710
      3  N         20.0390  -22.5310  -10.6970 N.am    1  UNL1       -0.3250
      4  H         20.0620  -23.3240  -10.0530 H       1  UNL1        0.1690
      5  C         21.2330  -22.2590  -11.3920 C.2     1  UNL1        0.0340
      6  C         22.4280  -22.7260  -10.8260 C.2     1  UNL1        0.0310
      7  C         23.6570  -22.4940  -11.4510 C.2     1  UNL1        0.0270
      8  C         23.6910  -21.7920  -12.6560 C.2     1  UNL1        0.0750
      9  C         22.5090  -21.3420  -13.2420 C.2     1  UNL1        0.0270
     10  C         21.2860  -21.5670  -12.6040 C.2     1  UNL1        0.0310
     11  S         25.2290  -21.5190  -13.4940 S.O2    1  UNL1        0.2470
     12  O         25.8370  -22.8010  -13.7790 O.2     1  UNL1       -0.2050
     13  O         25.9620  -20.5100  -12.7540 O.2     1  UNL1       -0.2050
     14  N         24.7360  -20.7400  -14.9010 N.pl3   1  UNL1       -0.1590
     15  H         25.1430  -19.8080  -14.9250 H       1  UNL1        0.1480
     16  C         24.9730  -21.5310  -16.0890 C.2     1  UNL1        0.1580
     17  N         24.0810  -22.3940  -16.5110 N.2     1  UNL1       -0.2400
     18  C         24.5350  -22.9840  -17.6750 C.2     1  UNL1        0.1260
     19  C         25.7440  -22.5100  -18.1520 C.2     1  UNL1        0.0720
     20  S         26.3460  -21.3080  -17.0790 S.3     1  UNL1       -0.0680
     21  C         17.7280  -22.4420   -9.9220 C.3     1  UNL1        0.2780
     22  O         18.1370  -23.3570   -8.9180 O.2     1  UNL1       -0.3410
     23  C         18.2940  -22.8480   -7.6650 C.2     1  UNL1        0.0830
     24  C         19.4030  -22.1160   -7.2430 C.2     1  UNL1        0.0380
     25  C         19.4240  -21.5380   -5.9590 C.2     1  UNL1        0.0100
     26  C         18.3310  -21.6500   -5.0780 C.2     1  UNL1       -0.0540
     27  C         18.4060  -21.0210   -3.7190 C.3     1  UNL1        0.0490
     28  C         17.2320  -22.4000   -5.4980 C.2     1  UNL1       -0.0310
     29  C         17.2390  -22.9790   -6.7690 C.2     1  UNL1        0.0500
     30  C         15.9680  -22.7330   -4.7460 C.3     1  UNL1        0.0230
     31  C         16.0050  -23.7330   -6.9320 C.2     1  UNL1        0.1630
     32  C         15.0540  -23.3540   -5.8280 C.3     1  UNL1        0.0930
     33  O         15.8090  -24.5670   -7.7950 O.2     1  UNL1       -0.2920
     34  C         16.2170  -23.7250   -3.6070 C.3     1  UNL1        0.0150
@<TRIPOS>BOND
     1    19    18    2
     2    19    20    1
     3    18    17    1
     4    20    16    1
     5    17    16    2
     6    16    14    1
     7    15    14    1
     8    14    11    1
     9    12    11    2
    10    11    13    2
    11    11     8    1
    12     9     8    2
    13     9    10    1
    14     8     7    1
    15    10     5    2
    16     7     6    2
    17     5     6    1
    18     5     3    1
    19     2     1    2
    20     1     3   am
    21     1    21    1
    22     3     4    1
    23    21    22    1
    24    22    23    1
    25    33    31    2
    26    23    24    2
    27    23    29    1
    28    24    25    1
    29    31    29    1
    30    31    32    1
    31    29    28    2
    32    25    26    2
    33    32    30    1
    34    28    26    1
    35    28    30    1
    36    26    27    1
    37    30    34    1
