@<TRIPOS>MOLECULE
66302_out_ligand_01.pdbqt
 33 36 0 0 0
SMALL
GASTEIGER

@<TRIPOS>ATOM
      1  C         24.0550  -22.2870  -11.3360 C.2     1  UNL1        0.1090
      2  N         25.2300  -22.9030  -11.0360 N.2     1  UNL1       -0.2530
      3  C         26.0040  -23.3120  -12.0650 C.2     1  UNL1        0.1180
      4  C         25.6700  -23.1300  -13.3950 C.2     1  UNL1        0.0200
      5  C         24.4770  -22.4770  -13.6870 C.2     1  UNL1        0.0210
      6  C         23.6520  -22.0300  -12.6480 C.2     1  UNL1        0.0670
      7  S         23.0940  -21.9410   -9.8750 S.3     1  UNL1       -0.1000
      8  C         22.6180  -23.6470   -9.4460 C.3     1  UNL1        0.1840
      9  C         21.3630  -23.7970   -8.5880 C.2     1  UNL1        0.2310
     10  O         20.7690  -24.8770   -8.5920 O.2     1  UNL1       -0.2720
     11  N         20.9660  -22.6740   -7.8910 N.am    1  UNL1       -0.3260
     12  H         21.6640  -21.9330   -7.8250 H       1  UNL1        0.1690
     13  C         19.8310  -22.5160   -7.0710 C.2     1  UNL1        0.0370
     14  C         19.6420  -21.4240   -6.2000 C.2     1  UNL1        0.0320
     15  C         18.4850  -21.3220   -5.4150 C.2     1  UNL1        0.0420
     16  C         17.5490  -22.3270   -5.5120 C.2     1  UNL1        0.1050
     17  C         17.7290  -23.3990   -6.3520 C.2     1  UNL1        0.1070
     18  O         16.3730  -22.3910   -4.8340 O.2     1  UNL1       -0.3230
     19  C         18.8550  -23.5230   -7.1400 C.2     1  UNL1        0.0690
     20  O         16.6870  -24.2750   -6.3070 O.2     1  UNL1       -0.3230
     21  C         15.8500  -23.6480   -5.3120 C.3     1  UNL1        0.3520
     22  C         22.3940  -21.3480  -13.0300 C.2     1  UNL1        0.2540
     23  O         22.3550  -20.7110  -14.0790 O.2     1  UNL1       -0.2680
     24  N         21.3450  -21.4260  -12.1410 N.am    1  UNL1       -0.3530
     25  H         21.4850  -21.8690  -11.2400 H       1  UNL1        0.1630
     26  C         20.1240  -20.6730  -12.3310 C.3     1  UNL1        0.1610
     27  C         18.9820  -21.3180  -11.5850 C.2     1  UNL1       -0.0400
     28  C         19.1390  -22.5750  -10.9800 C.2     1  UNL1        0.0120
     29  C         18.0850  -23.1490  -10.2640 C.2     1  UNL1        0.0430
     30  C         16.8780  -22.4660  -10.1540 C.2     1  UNL1        0.1160
     31  F         15.8630  -23.0200   -9.4760 F       1  UNL1       -0.2060
     32  C         16.7060  -21.2140  -10.7340 C.2     1  UNL1        0.0430
     33  C         17.7600  -20.6380  -11.4440 C.2     1  UNL1        0.0120
@<TRIPOS>BOND
     1    23    22    2
     2     5     4    2
     3     5     6    1
     4     4     3    1
     5    22     6    1
     6    22    24   am
     7     6     1    2
     8    26    24    1
     9    26    27    1
    10    24    25    1
    11     3     2    2
    12    27    33    2
    13    27    28    1
    14    33    32    1
    15     1     2    1
    16     1     7    1
    17    28    29    2
    18    32    30    2
    19    29    30    1
    20    30    31    1
    21     7     8    1
    22     8     9    1
    23    10     9    2
    24     9    11   am
    25    11    12    1
    26    11    13    1
    27    19    13    2
    28    19    17    1
    29    13    14    1
    30    17    20    1
    31    17    16    2
    32    20    21    1
    33    14    15    2
    34    16    15    1
    35    16    18    1
    36    21    18    1
