@<TRIPOS>MOLECULE
6630_out_ligand_01.pdbqt
 34 38 0 0 0
SMALL
GASTEIGER

@<TRIPOS>ATOM
      1  C         18.2250  -22.1990   -9.8500 C.3     1  UNL1        0.2320
      2  N         18.8680  -23.2000   -8.9900 N.2     1  UNL1       -0.2360
      3  C         20.1160  -23.4070   -9.2010 C.2     1  UNL1        0.1730
      4  C         20.9000  -22.7750  -10.2280 C.ar    1  UNL1        0.0570
      5  C         20.2230  -21.9910  -11.1320 C.ar    1  UNL1        0.0870
      6  S         21.2370  -21.2960  -12.3010 S.2     1  UNL1       -0.0740
      7  C         22.6030  -22.0760  -11.6480 C.ar    1  UNL1        0.0200
      8  C         22.2980  -22.8290  -10.5260 C.ar    1  UNL1       -0.0240
      9  C         23.3710  -23.6030   -9.8270 C.3     1  UNL1        0.0710
     10  C         24.7810  -23.1480  -10.2760 C.3     1  UNL1        0.2780
     11  N         24.8900  -22.9940  -11.7440 N.3     1  UNL1        0.0970
     12  C         23.9800  -21.9240  -12.2320 C.3     1  UNL1        0.3190
     13  N         18.8880  -21.8280  -11.0800 N.pl3   1  UNL1       -0.3570
     14  H         18.4440  -21.0960  -11.6240 H       1  UNL1        0.1620
     15  C         16.9010  -22.7730  -10.2650 C.2     1  UNL1        0.0220
     16  C         15.9020  -23.2280   -9.4900 C.2     1  UNL1        0.0110
     17  C         15.9160  -23.2520   -8.0280 C.2     1  UNL1       -0.0360
     18  C         16.3060  -24.4190   -7.3590 C.2     1  UNL1        0.0140
     19  C         16.2980  -24.4700   -5.9600 C.2     1  UNL1        0.0370
     20  C         15.8990  -23.3420   -5.2300 C.2     1  UNL1        0.1020
     21  C         15.5080  -22.1690   -5.8910 C.2     1  UNL1        0.0370
     22  C         15.5200  -22.1280   -7.2910 C.2     1  UNL1        0.0140
     23  N         15.8750  -23.3960   -3.7600 N.pl3   1  UNL1       -0.1160
     24  O         16.2360  -24.4490   -3.2120 O.2     1  UNL1       -0.5320
     25  O         15.4980  -22.3840   -3.1530 O.2     1  UNL1       -0.5320
     26  O         20.7480  -24.2860   -8.4040 O.2     1  UNL1       -0.3440
     27  H         20.0650  -24.8790   -8.0520 H       1  UNL1        0.2190
     28  C         26.2850  -22.7080  -12.1210 C.3     1  UNL1        0.3110
     29  C         26.5330  -21.2620  -12.4960 C.2     1  UNL1       -0.0300
     30  C         26.5860  -20.8740  -13.8430 C.2     1  UNL1        0.0090
     31  C         26.8250  -19.5430  -14.1900 C.2     1  UNL1        0.0010
     32  C         27.0230  -18.5870  -13.1950 C.2     1  UNL1        0.0000
     33  C         26.9760  -18.9600  -11.8530 C.2     1  UNL1        0.0010
     34  C         26.7360  -20.2910  -11.5050 C.2     1  UNL1        0.0090
@<TRIPOS>BOND
     1    31    30    1
     2    31    32    2
     3    30    29    2
     4    32    33    1
     5    29    28    1
     6    29    34    1
     7     6     7   ar
     8     6     5   ar
     9    12    11    1
    10    12     7    1
    11    28    11    1
    12    33    34    2
    13    11    10    1
    14     7     8   ar
    15    14    13    1
    16     5    13    1
    17     5     4   ar
    18    13     1    1
    19     8     4   ar
    20     8     9    1
    21    10     9    1
    22    15     1    1
    23    15    16    2
    24     4     3    1
    25     1     2    1
    26    16    17    1
    27     3     2    2
    28     3    26    1
    29    26    27    1
    30    17    18    2
    31    17    22    1
    32    18    19    1
    33    22    21    2
    34    19    20    2
    35    21    20    1
    36    20    23    1
    37    23    24    2
    38    23    25    2
