@<TRIPOS>MOLECULE
66305_out_ligand_01.pdbqt
 36 39 0 0 0
SMALL
GASTEIGER

@<TRIPOS>ATOM
      1  C         19.8690  -21.9250  -11.1610 C.2     1  UNL1        0.0320
      2  C         20.5030  -22.7830  -10.2600 C.2     1  UNL1        0.0190
      3  C         21.8510  -23.1070  -10.4390 C.2     1  UNL1        0.0310
      4  C         22.5790  -22.5770  -11.5110 C.2     1  UNL1        0.0420
      5  C         21.9300  -21.7360  -12.4130 C.2     1  UNL1        0.0310
      6  C         20.5860  -21.3940  -12.2280 C.2     1  UNL1        0.0190
      7  N         23.9300  -22.9990  -11.6310 N.pl3   1  UNL1       -0.2810
      8  H         24.1410  -23.9860  -11.7250 H       1  UNL1        0.1790
      9  S         25.2800  -22.0560  -11.3670 S.O2    1  UNL1        0.2630
     10  O         24.8900  -21.0680  -10.3820 O.2     1  UNL1       -0.2000
     11  O         26.4250  -22.9100  -11.1600 O.2     1  UNL1       -0.2000
     12  C         25.4970  -21.1860  -12.9010 C.2     1  UNL1        0.0820
     13  C         25.0650  -21.8020  -14.1010 C.2     1  UNL1        0.0280
     14  C         25.1970  -21.1400  -15.3260 C.2     1  UNL1        0.0330
     15  C         25.7560  -19.8840  -15.2930 C.ar    1  UNL1        0.0630
     16  N         26.0130  -18.9960  -16.3310 N.ar    1  UNL1       -0.3070
     17  C         26.1670  -19.2780  -14.1040 C.ar    1  UNL1        0.0640
     18  C         26.5740  -17.8240  -15.7980 C.ar    1  UNL1        0.3250
     19  H         25.8090  -19.1200  -17.3120 H       1  UNL1        0.1700
     20  O         26.9090  -16.8300  -16.4190 O.2     1  UNL1       -0.2470
     21  N         26.6660  -18.0170  -14.4120 N.ar    1  UNL1       -0.3060
     22  H         27.0290  -17.3270  -13.7780 H       1  UNL1        0.1700
     23  C         26.0500  -19.8960  -12.8860 C.2     1  UNL1        0.0570
     24  C         18.4440  -21.5450  -11.0010 C.2     1  UNL1        0.2510
     25  O         17.9890  -20.6070  -11.6360 O.2     1  UNL1       -0.2680
     26  N         17.7100  -22.3270  -10.1380 N.am    1  UNL1       -0.3570
     27  H         18.1200  -23.1830   -9.7850 H       1  UNL1        0.1620
     28  C         16.2700  -22.1720  -10.0160 C.3     1  UNL1        0.1270
     29  C         15.6230  -23.2450   -9.1210 C.3     1  UNL1        0.0580
     30  C         16.2020  -23.3420   -7.7280 C.2     1  UNL1       -0.0570
     31  C         15.7850  -22.4550   -6.7240 C.2     1  UNL1        0.0100
     32  C         16.3240  -22.5460   -5.4370 C.2     1  UNL1        0.0430
     33  C         17.2760  -23.5210   -5.1530 C.2     1  UNL1        0.1160
     34  F         17.8010  -23.6020   -3.9210 F       1  UNL1       -0.2060
     35  C         17.6930  -24.4120   -6.1310 C.2     1  UNL1        0.0430
     36  C         17.1540  -24.3270   -7.4160 C.2     1  UNL1        0.0100
@<TRIPOS>BOND
     1    19    16    1
     2    20    18    2
     3    16    18   ar
     4    16    15   ar
     5    18    21   ar
     6    14    15    2
     7    14    13    1
     8    15    17   ar
     9    21    17   ar
    10    21    22    1
    11    17    23    2
    12    13    12    2
    13    12    23    1
    14    12     9    1
    15     5     6    1
    16     5     4    2
    17     6     1    2
    18     8     7    1
    19    25    24    2
    20     7     4    1
    21     7     9    1
    22     4     3    1
    23     9    11    2
    24     9    10    2
    25     1    24    1
    26     1     2    1
    27    24    26   am
    28     3     2    2
    29    26    28    1
    30    26    27    1
    31    28    29    1
    32    29    30    1
    33    30    36    2
    34    30    31    1
    35    36    35    1
    36    31    32    2
    37    35    33    2
    38    32    33    1
    39    33    34    1
