@<TRIPOS>MOLECULE
66310_out_ligand_01.pdbqt
 29 32 0 0 0
SMALL
GASTEIGER

@<TRIPOS>ATOM
      1  N         19.5530  -22.8530   -9.5060 N.am    1  UNL1       -0.3260
      2  C         19.6730  -23.9020   -8.6090 C.2     1  UNL1        0.2260
      3  O         20.6070  -24.6990   -8.5370 O.2     1  UNL1       -0.2730
      4  H         18.7010  -22.3020   -9.4090 H       1  UNL1        0.1690
      5  C         20.4680  -22.4580  -10.5120 C.2     1  UNL1        0.0410
      6  C         21.8120  -22.8580  -10.4950 C.2     1  UNL1        0.0470
      7  C         22.6970  -22.4750  -11.5120 C.2     1  UNL1        0.0340
      8  C         22.2440  -21.6480  -12.5410 C.2     1  UNL1        0.0170
      9  C         20.9150  -21.2290  -12.5650 C.2     1  UNL1        0.0100
     10  C         20.0150  -21.6320  -11.5640 C.2     1  UNL1       -0.0350
     11  C         18.5960  -21.1370  -11.6480 C.3     1  UNL1        0.0500
     12  C         24.1280  -22.8950  -11.5250 C.2     1  UNL1        0.2520
     13  O         24.8700  -22.5570  -10.6060 O.2     1  UNL1       -0.2680
     14  N         24.5490  -23.6340  -12.6150 N.am    1  UNL1       -0.3520
     15  H         23.9170  -23.7900  -13.3900 H       1  UNL1        0.1630
     16  C         25.9040  -24.0600  -12.7650 C.3     1  UNL1        0.0840
     17  C         26.4620  -24.3780  -14.1250 C.3     1  UNL1        0.0270
     18  C         26.9220  -23.1500  -13.3950 C.3     1  UNL1        0.0270
     19  C         18.4760  -24.0390   -7.6840 C.3     1  UNL1        0.1440
     20  C         18.4750  -23.0170   -6.5690 C.2     1  UNL1       -0.0200
     21  C         19.4180  -21.9730   -6.6010 C.2     1  UNL1        0.0100
     22  C         19.4430  -21.0170   -5.5920 C.2     1  UNL1        0.0020
     23  C         18.5270  -21.0960   -4.5480 C.2     1  UNL1        0.0140
     24  C         17.5750  -22.1270   -4.5160 C.2     1  UNL1       -0.0070
     25  C         16.6460  -22.2200   -3.4710 C.2     1  UNL1        0.0150
     26  C         17.5300  -23.0990   -5.5400 C.2     1  UNL1        0.0730
     27  C         15.7170  -23.2510   -3.4580 C.2     1  UNL1        0.0200
     28  C         15.7390  -24.1510   -4.5040 C.2     1  UNL1        0.1170
     29  N         16.6030  -24.0850   -5.5440 N.2     1  UNL1       -0.2600
@<TRIPOS>BOND
     1    17    18    1
     2    17    16    1
     3    18    16    1
     4    15    14    1
     5    16    14    1
     6    14    12   am
     7     9     8    2
     8     9    10    1
     9     8     7    1
    10    11    10    1
    11    10     5    2
    12    12     7    1
    13    12    13    2
    14     7     6    2
    15     5     6    1
    16     5     1    1
    17     1     4    1
    18     1     2   am
    19     2     3    2
    20     2    19    1
    21    19    20    1
    22    21    20    2
    23    21    22    1
    24    20    26    1
    25    22    23    2
    26    29    26    1
    27    29    28    2
    28    26    24    2
    29    23    24    1
    30    24    25    1
    31    28    27    1
    32    25    27    2
