@<TRIPOS>MOLECULE
66312_out_ligand_01.pdbqt
 36 40 0 0 0
SMALL
GASTEIGER

@<TRIPOS>ATOM
      1  C         21.6400  -23.7910   -9.6620 C.2     1  UNL1        0.0840
      2  C         20.9180  -24.5460   -8.7230 C.2     1  UNL1        0.0390
      3  C         19.5630  -24.2960   -8.4920 C.2     1  UNL1        0.0270
      4  C         18.9190  -23.2820   -9.1980 C.2     1  UNL1        0.0760
      5  C         19.6210  -22.5040  -10.1180 C.2     1  UNL1        0.0440
      6  C         20.9840  -22.7540  -10.3650 C.2     1  UNL1        0.0670
      7  C         21.6340  -21.8850  -11.4080 C.2     1  UNL1        0.2590
      8  O         21.0450  -20.8670  -11.7570 O.2     1  UNL1       -0.2670
      9  N         22.8580  -22.3080  -11.8850 N.am    1  UNL1       -0.3230
     10  H         23.1830  -23.2010  -11.5270 H       1  UNL1        0.1690
     11  C         23.6850  -21.6790  -12.8390 C.2     1  UNL1        0.0370
     12  C         24.9160  -21.1540  -12.3610 C.2     1  UNL1        0.0320
     13  C         25.8220  -20.5050  -13.2100 C.2     1  UNL1        0.0340
     14  C         25.4600  -20.4020  -14.5290 C.ar    1  UNL1        0.0630
     15  N         26.1340  -19.8230  -15.5970 N.ar    1  UNL1       -0.3070
     16  C         24.2560  -20.9120  -15.0060 C.ar    1  UNL1        0.0650
     17  C         25.3540  -19.9670  -16.7540 C.ar    1  UNL1        0.3250
     18  H         27.0320  -19.3670  -15.5820 H       1  UNL1        0.1700
     19  O         25.6380  -19.5770  -17.8730 O.2     1  UNL1       -0.2470
     20  N         24.1900  -20.6460  -16.3700 N.ar    1  UNL1       -0.3060
     21  H         23.4410  -20.8860  -17.0000 H       1  UNL1        0.1700
     22  C         23.3490  -21.5520  -14.1920 C.2     1  UNL1        0.0610
     23  O         22.9700  -23.9990   -9.9270 O.2     1  UNL1       -0.3550
     24  C         23.9150  -23.5930   -8.9410 C.3     1  UNL1        0.2100
     25  S         17.1960  -22.9530   -8.8730 S.O2    1  UNL1        0.2480
     26  O         17.0520  -21.5110   -8.8850 O.2     1  UNL1       -0.2050
     27  O         16.4140  -23.7850   -9.7630 O.2     1  UNL1       -0.2050
     28  N         17.0310  -23.5380   -7.2820 N.pl3   1  UNL1       -0.1710
     29  C         15.6530  -23.9960   -6.8870 C.3     1  UNL1        0.1180
     30  C         15.5520  -23.7980   -5.3670 C.3     1  UNL1        0.0560
     31  C         16.6410  -22.8110   -5.1080 C.2     1  UNL1       -0.0350
     32  C         16.8970  -22.1280   -3.9280 C.2     1  UNL1        0.0090
     33  C         17.4730  -22.6780   -6.2190 C.2     1  UNL1        0.0310
     34  C         18.0220  -21.3060   -3.8700 C.2     1  UNL1        0.0010
     35  C         18.8810  -21.1990   -4.9750 C.2     1  UNL1        0.0020
     36  C         18.6180  -21.9020   -6.1540 C.2     1  UNL1        0.0250
@<TRIPOS>BOND
     1    19    17    2
     2    21    20    1
     3    17    20   ar
     4    17    15   ar
     5    20    16   ar
     6    15    18    1
     7    15    14   ar
     8    16    14   ar
     9    16    22    1
    10    14    13    1
    11    22    11    2
    12    13    12    2
    13    11    12    1
    14    11     9    1
    15     9    10    1
    16     9     7   am
    17     8     7    2
    18     7     6    1
    19     6     5    1
    20     6     1    2
    21     5     4    2
    22    23     1    1
    23    23    24    1
    24    27    25    2
    25     1     2    1
    26     4    25    1
    27     4     3    1
    28    26    25    2
    29    25    28    1
    30     2     3    2
    31    28    29    1
    32    28    33    1
    33    29    30    1
    34    33    36    1
    35    33    31    2
    36    36    35    2
    37    30    31    1
    38    31    32    1
    39    35    34    1
    40    32    34    2
