@<TRIPOS>MOLECULE
66328_out_ligand_01.pdbqt
 35 39 0 0 0
SMALL
GASTEIGER

@<TRIPOS>ATOM
      1  N         24.4960  -21.5240  -13.0750 N.am    1  UNL1       -0.2430
      2  C         25.1590  -22.1740  -12.0560 C.2     1  UNL1        0.2660
      3  O         26.3300  -22.4720  -11.9000 O.2     1  UNL1       -0.2670
      4  C         24.1470  -22.6020  -11.0930 C.2     1  UNL1        0.0480
      5  C         24.2860  -23.2710   -9.8910 C.2     1  UNL1        0.0190
      6  C         23.1170  -23.5770   -9.1840 C.2     1  UNL1        0.0180
      7  C         21.8480  -23.2060   -9.6920 C.2     1  UNL1        0.0330
      8  C         21.7400  -22.5470  -10.9270 C.2     1  UNL1        0.0350
      9  C         22.9130  -22.2570  -11.5990 C.2     1  UNL1        0.0490
     10  C         23.1300  -21.5890  -12.8780 C.2     1  UNL1        0.2660
     11  O         22.1980  -21.1790  -13.5450 O.2     1  UNL1       -0.2670
     12  C         20.5940  -23.5390   -8.9620 C.2     1  UNL1        0.2560
     13  O         20.3620  -24.7190   -8.7320 O.2     1  UNL1       -0.2670
     14  N         19.7940  -22.4550   -8.6480 N.am    1  UNL1       -0.3230
     15  H         20.0650  -21.5560   -9.0230 H       1  UNL1        0.1690
     16  C         18.5750  -22.4760   -7.9310 C.2     1  UNL1        0.0370
     17  C         17.3980  -22.7280   -8.6870 C.2     1  UNL1        0.0320
     18  C         16.1320  -22.7680   -8.0880 C.2     1  UNL1        0.0340
     19  C         16.0850  -22.5480   -6.7350 C.ar    1  UNL1        0.0630
     20  N         14.9950  -22.5240   -5.8730 N.ar    1  UNL1       -0.3070
     21  C         17.2320  -22.2970   -5.9880 C.ar    1  UNL1        0.0650
     22  C         15.4550  -22.2560   -4.5750 C.ar    1  UNL1        0.3250
     23  H         14.0260  -22.6700   -6.1020 H       1  UNL1        0.1700
     24  O         14.7740  -22.1630   -3.5700 O.2     1  UNL1       -0.2470
     25  N         16.8470  -22.1170   -4.6630 N.ar    1  UNL1       -0.3060
     26  H         17.4470  -21.9220   -3.8780 H       1  UNL1        0.1700
     27  C         18.4870  -22.2530   -6.5520 C.2     1  UNL1        0.0610
     28  C         25.1120  -20.9920  -14.2440 C.2     1  UNL1        0.0520
     29  C         25.2340  -21.7070  -15.4560 C.2     1  UNL1       -0.0350
     30  C         25.7900  -21.0650  -16.5820 C.2     1  UNL1        0.0090
     31  C         24.8620  -23.1550  -15.6360 C.3     1  UNL1        0.0500
     32  C         26.2690  -19.7590  -16.5120 C.2     1  UNL1        0.0070
     33  C         26.1950  -19.0540  -15.3150 C.2     1  UNL1       -0.0600
     34  C         26.7500  -17.6650  -15.2070 C.3     1  UNL1        0.0480
     35  C         25.6330  -19.6820  -14.1930 C.2     1  UNL1        0.0370
@<TRIPOS>BOND
     1    30    32    2
     2    30    29    1
     3    32    33    1
     4    31    29    1
     5    29    28    2
     6    33    34    1
     7    33    35    2
     8    28    35    1
     9    28     1    1
    10    11    10    2
    11     1    10   am
    12     1     2   am
    13    10     9    1
    14     2     3    2
    15     2     4    1
    16     9     4    2
    17     9     8    1
    18     4     5    1
    19     8     7    2
    20     5     6    2
    21     7     6    1
    22     7    12    1
    23    15    14    1
    24    12    13    2
    25    12    14   am
    26    17    18    1
    27    17    16    2
    28    14    16    1
    29    18    19    2
    30    16    27    1
    31    19    21   ar
    32    19    20   ar
    33    27    21    2
    34    23    20    1
    35    21    25   ar
    36    20    22   ar
    37    25    22   ar
    38    25    26    1
    39    22    24    2
