@<TRIPOS>MOLECULE
66323_out_ligand_01.pdbqt
 35 38 0 0 0
SMALL
GASTEIGER

@<TRIPOS>ATOM
      1  C         23.0720  -23.1570   -9.1310 C.2     1  UNL1        0.0340
      2  C         21.9620  -24.0040   -9.0580 C.2     1  UNL1        0.0300
      3  C         20.8390  -23.6390   -8.3030 C.2     1  UNL1        0.0190
      4  C         20.8130  -22.4240   -7.6110 C.2     1  UNL1        0.0320
      5  C         21.9370  -21.5900   -7.6550 C.2     1  UNL1        0.0190
      6  C         23.0500  -21.9490   -8.4250 C.2     1  UNL1        0.0300
      7  C         19.5990  -22.0780   -6.8080 C.2     1  UNL1        0.2560
      8  O         19.5990  -21.0230   -6.1770 O.2     1  UNL1       -0.2670
      9  N         18.5920  -23.0280   -6.8420 N.am    1  UNL1       -0.3220
     10  H         18.8160  -23.8970   -7.3020 H       1  UNL1        0.1690
     11  C         17.2680  -22.9130   -6.3550 C.2     1  UNL1        0.0410
     12  C         16.9950  -22.4980   -5.0470 C.2     1  UNL1        0.0300
     13  C         15.6810  -22.3300   -4.5990 C.2     1  UNL1        0.0020
     14  C         14.6180  -22.5750   -5.4590 C.2     1  UNL1        0.0010
     15  C         14.8680  -23.0040   -6.7630 C.2     1  UNL1        0.0100
     16  C         16.1840  -23.1870   -7.2260 C.2     1  UNL1       -0.0270
     17  C         16.3560  -23.7110   -8.6430 C.3     1  UNL1        0.0790
     18  C         16.9750  -22.7610   -9.6480 C.2     1  UNL1       -0.0540
     19  C         18.2200  -23.0800  -10.2160 C.2     1  UNL1        0.0070
     20  C         18.8130  -22.2340  -11.1570 C.2     1  UNL1        0.0010
     21  C         18.1660  -21.0650  -11.5510 C.2     1  UNL1        0.0000
     22  C         16.9230  -20.7460  -11.0130 C.2     1  UNL1        0.0010
     23  C         16.3250  -21.5930  -10.0720 C.2     1  UNL1        0.0070
     24  N         24.2360  -23.4350   -9.8740 N.am    1  UNL1       -0.3270
     25  C         24.7090  -22.7800  -10.9930 C.2     1  UNL1        0.2310
     26  O         24.1920  -21.7880  -11.5130 O.2     1  UNL1       -0.2720
     27  H         24.7890  -24.2220   -9.5420 H       1  UNL1        0.1690
     28  C         26.0300  -23.3090  -11.5370 C.3     1  UNL1        0.1850
     29  S         26.5320  -22.5760  -13.1300 S.3     1  UNL1       -0.0800
     30  C         26.0710  -23.8320  -14.2200 C.ar    1  UNL1        0.1980
     31  N         26.3980  -25.1020  -14.1210 N.ar    1  UNL1       -0.1350
     32  N         25.7830  -25.7300  -15.1850 N.ar    1  UNL1        0.0180
     33  N         25.0950  -24.8640  -15.9300 N.ar    1  UNL1       -0.0030
     34  N         25.2820  -23.6670  -15.3260 N.ar    1  UNL1       -0.2590
     35  C         24.6730  -22.4800  -15.8530 C.3     1  UNL1        0.1770
@<TRIPOS>BOND
     1    33    34   ar
     2    33    32   ar
     3    35    34    1
     4    34    30   ar
     5    32    31   ar
     6    30    31   ar
     7    30    29    1
     8    29    28    1
     9    21    20    2
    10    21    22    1
    11    28    25    1
    12    26    25    2
    13    20    19    1
    14    22    23    2
    15    25    24   am
    16    19    18    2
    17    23    18    1
    18    24    27    1
    19    24     1    1
    20    18    17    1
    21     1     2    2
    22     1     6    1
    23     2     3    1
    24    17    16    1
    25     6     5    2
    26     3     4    2
    27     5     4    1
    28     4     7    1
    29    10     9    1
    30    16    15    1
    31    16    11    2
    32     9     7   am
    33     9    11    1
    34     7     8    2
    35    15    14    2
    36    11    12    1
    37    14    13    1
    38    12    13    2
