@<TRIPOS>MOLECULE
66324_out_ligand_01.pdbqt
 34 37 0 0 0
SMALL
GASTEIGER

@<TRIPOS>ATOM
      1  C         17.7310  -23.5250   -8.3420 C.2     1  UNL1        0.0800
      2  C         17.2500  -22.6000   -9.2720 C.2     1  UNL1        0.0260
      3  C         18.1410  -22.0030  -10.1650 C.2     1  UNL1        0.0180
      4  C         19.5000  -22.3460  -10.1430 C.2     1  UNL1        0.0320
      5  C         19.9750  -23.2730   -9.2040 C.2     1  UNL1        0.0180
      6  C         19.0880  -23.8690   -8.3050 C.2     1  UNL1        0.0260
      7  C         20.4150  -21.6830  -11.1140 C.2     1  UNL1        0.2560
      8  O         20.0220  -20.6690  -11.6760 O.2     1  UNL1       -0.2670
      9  N         21.6270  -22.3230  -11.2980 N.am    1  UNL1       -0.3230
     10  H         21.7410  -23.2250  -10.8530 H       1  UNL1        0.1690
     11  C         22.6970  -21.9050  -12.1210 C.2     1  UNL1        0.0370
     12  C         23.9870  -21.8840  -11.5250 C.2     1  UNL1        0.0320
     13  C         25.1240  -21.4820  -12.2390 C.2     1  UNL1        0.0340
     14  C         24.9280  -21.1070  -13.5440 C.ar    1  UNL1        0.0630
     15  N         25.8420  -20.6670  -14.4920 N.ar    1  UNL1       -0.3070
     16  C         23.6680  -21.1220  -14.1340 C.ar    1  UNL1        0.0650
     17  C         25.1600  -20.4010  -15.6890 C.ar    1  UNL1        0.3250
     18  H         26.8360  -20.5460  -14.3790 H       1  UNL1        0.1700
     19  O         25.6470  -19.9990  -16.7290 O.2     1  UNL1       -0.2470
     20  N         23.8080  -20.6880  -15.4500 N.ar    1  UNL1       -0.3060
     21  H         23.0800  -20.5910  -16.1380 H       1  UNL1        0.1700
     22  C         22.5360  -21.5120  -13.4550 C.2     1  UNL1        0.0610
     23  S         16.6180  -24.3110   -7.1930 S.O2    1  UNL1        0.2650
     24  O         17.4370  -25.1990   -6.3940 O.2     1  UNL1       -0.2000
     25  O         15.4880  -24.8140   -7.9470 O.2     1  UNL1       -0.2000
     26  N         16.0960  -22.9920   -6.2420 N.pl3   1  UNL1       -0.2720
     27  C         14.6880  -23.0000   -5.7560 C.3     1  UNL1        0.1370
     28  C         14.0180  -21.6350   -5.7850 C.3     1  UNL1        0.0280
     29  C         17.0780  -22.4130   -5.3590 C.2     1  UNL1        0.0450
     30  C         17.0590  -22.6310   -3.9780 C.2     1  UNL1        0.0300
     31  C         17.9780  -21.9760   -3.1530 C.2     1  UNL1        0.0020
     32  C         18.8980  -21.0850   -3.7010 C.2     1  UNL1        0.0000
     33  C         18.8990  -20.8400   -5.0730 C.2     1  UNL1        0.0020
     34  C         17.9820  -21.4930   -5.8980 C.2     1  UNL1        0.0300
@<TRIPOS>BOND
     1    19    17    2
     2    21    20    1
     3    17    20   ar
     4    17    15   ar
     5    20    16   ar
     6    15    18    1
     7    15    14   ar
     8    16    14   ar
     9    16    22    1
    10    14    13    1
    11    22    11    2
    12    13    12    2
    13    11    12    1
    14    11     9    1
    15     8     7    2
    16     9     7   am
    17     9    10    1
    18     7     4    1
    19     3     4    2
    20     3     2    1
    21     4     5    1
    22     2     1    2
    23     5     6    2
    24     1     6    1
    25     1    23    1
    26    25    23    2
    27    23    24    2
    28    23    26    1
    29    26    27    1
    30    26    29    1
    31    34    29    2
    32    34    33    1
    33    28    27    1
    34    29    30    1
    35    33    32    2
    36    30    31    2
    37    32    31    1
