@<TRIPOS>MOLECULE
66329_out_ligand_01.pdbqt
 31 34 0 0 0
SMALL
GASTEIGER

@<TRIPOS>ATOM
      1  O         19.6410  -21.1490   -6.2080 O.2     1  UNL1       -0.2670
      2  C         19.6240  -22.1620   -6.8970 C.2     1  UNL1        0.2560
      3  N         18.6010  -23.0840   -6.9820 N.am    1  UNL1       -0.3210
      4  H         18.7730  -23.9390   -7.4980 H       1  UNL1        0.1690
      5  C         20.8250  -22.4840   -7.7190 C.2     1  UNL1        0.0320
      6  C         21.8530  -21.5370   -7.7970 C.2     1  UNL1        0.0170
      7  C         22.9970  -21.8010   -8.5550 C.2     1  UNL1        0.0090
      8  C         23.1200  -23.0080   -9.2590 C.2     1  UNL1       -0.0480
      9  C         22.0820  -23.9470   -9.1870 C.2     1  UNL1        0.0090
     10  C         20.9380  -23.6860   -8.4280 C.2     1  UNL1        0.0170
     11  C         24.3630  -23.2980  -10.0680 C.3     1  UNL1        0.1210
     12  S         24.1700  -22.7370  -11.7880 S.3     1  UNL1       -0.0860
     13  C         25.1820  -21.3490  -11.7640 C.2     1  UNL1        0.1890
     14  N         25.6420  -20.6820  -10.7360 N.2     1  UNL1       -0.1230
     15  N         26.4090  -19.6470  -11.2300 N.2     1  UNL1       -0.1430
     16  C         26.3890  -19.7260  -12.5410 C.2     1  UNL1        0.2330
     17  N         25.6240  -20.7860  -12.9210 N.pl3   1  UNL1       -0.3270
     18  H         25.4220  -21.1030  -13.8560 H       1  UNL1        0.1680
     19  C         17.3280  -23.0290   -6.3710 C.2     1  UNL1        0.0690
     20  C         17.1000  -22.5570   -5.0780 C.2     1  UNL1        0.0320
     21  C         15.8010  -22.5300   -4.5550 C.2     1  UNL1        0.0020
     22  C         14.7210  -22.9760   -5.3150 C.2     1  UNL1        0.0030
     23  C         14.9310  -23.4460   -6.6090 C.2     1  UNL1        0.0390
     24  C         16.2260  -23.4550   -7.1330 C.2     1  UNL1        0.1020
     25  O         16.4410  -23.9520   -8.4020 O.2     1  UNL1       -0.3090
     26  C         16.7990  -23.0520   -9.3840 C.2     1  UNL1        0.0760
     27  C         17.9850  -23.3420  -10.0630 C.2     1  UNL1        0.0370
     28  C         18.4570  -22.4800  -11.0520 C.2     1  UNL1        0.0030
     29  C         17.7480  -21.3190  -11.3590 C.2     1  UNL1        0.0000
     30  C         16.5710  -21.0190  -10.6750 C.2     1  UNL1        0.0030
     31  C         16.0970  -21.8810   -9.6840 C.2     1  UNL1        0.0370
@<TRIPOS>BOND
     1    18    17    1
     2    17    16    1
     3    17    13    1
     4    16    15    2
     5    12    13    1
     6    12    11    1
     7    13    14    2
     8    29    28    2
     9    29    30    1
    10    15    14    1
    11    28    27    1
    12    30    31    2
    13    11     8    1
    14    27    26    2
    15    31    26    1
    16    26    25    1
    17     8     9    2
    18     8     7    1
    19     9    10    1
    20     7     6    2
    21    10     5    2
    22    25    24    1
    23     6     5    1
    24     5     2    1
    25     4     3    1
    26    24    23    1
    27    24    19    2
    28     3     2   am
    29     3    19    1
    30     2     1    2
    31    23    22    2
    32    19    20    1
    33    22    21    1
    34    20    21    2
