@<TRIPOS>MOLECULE
66354_out_ligand_01.pdbqt
 29 31 0 0 0
SMALL
GASTEIGER

@<TRIPOS>ATOM
      1  N         22.8470  -21.5390   -9.8070 N.am    1  UNL1       -0.3250
      2  C         22.3320  -22.6320   -9.1330 C.2     1  UNL1        0.2230
      3  O         22.6410  -23.8050   -9.3340 O.2     1  UNL1       -0.2730
      4  H         22.5450  -20.6070   -9.5530 H       1  UNL1        0.1690
      5  C         21.2720  -22.2570   -8.1110 C.3     1  UNL1        0.1170
      6  C         19.9250  -22.9370   -8.4320 C.3     1  UNL1        0.0600
      7  C         19.0740  -23.0300   -7.1620 C.2     1  UNL1       -0.0490
      8  C         18.3320  -24.1830   -6.8500 C.2     1  UNL1        0.0080
      9  C         17.5440  -24.2320   -5.6950 C.2     1  UNL1        0.0010
     10  C         17.4790  -23.1300   -4.8450 C.2     1  UNL1        0.0000
     11  C         18.2010  -21.9770   -5.1460 C.2     1  UNL1        0.0010
     12  C         18.9950  -21.9260   -6.2960 C.2     1  UNL1        0.0080
     13  C         19.1600  -22.3090   -9.6010 C.2     1  UNL1       -0.0490
     14  C         17.7540  -22.2700   -9.5410 C.2     1  UNL1        0.0080
     15  C         17.0040  -21.7060  -10.5750 C.2     1  UNL1        0.0010
     16  C         17.6480  -21.1690  -11.6870 C.2     1  UNL1        0.0000
     17  C         19.0400  -21.1890  -11.7590 C.2     1  UNL1        0.0010
     18  C         19.7910  -21.7520  -10.7230 C.2     1  UNL1        0.0080
     19  C         23.8050  -21.6260  -10.7970 C.2     1  UNL1        0.0710
     20  C         23.5290  -21.9580  -12.1020 C.2     1  UNL1        0.1440
     21  N         24.7280  -21.9420  -12.7600 N.pl3   1  UNL1       -0.2700
     22  N         25.7720  -21.6220  -11.9660 N.2     1  UNL1       -0.1820
     23  C         25.2050  -21.4220  -10.7690 C.2     1  UNL1        0.1690
     24  C         24.9560  -22.2250  -14.1640 C.3     1  UNL1        0.2520
     25  C         24.6100  -21.0280  -15.0180 C.2     1  UNL1        0.2350
     26  N         24.9180  -19.8040  -14.4830 N.am    1  UNL1       -0.3690
     27  H         24.8120  -19.0090  -15.1020 H       1  UNL1        0.1590
     28  H         25.6860  -19.7590  -13.8130 H       1  UNL1        0.1590
     29  O         24.0500  -21.1180  -16.1060 O.2     1  UNL1       -0.2720
@<TRIPOS>BOND
     1    29    25    2
     2    27    26    1
     3    25    26   am
     4    25    24    1
     5    26    28    1
     6    24    21    1
     7    21    20    1
     8    21    22    1
     9    20    19    2
    10    22    23    2
    11    17    16    2
    12    17    18    1
    13    16    15    1
    14    19    23    1
    15    19     1    1
    16    18    13    2
    17    15    14    2
    18     1     4    1
    19     1     2   am
    20    13    14    1
    21    13     6    1
    22     3     2    2
    23     2     5    1
    24     6     5    1
    25     6     7    1
    26     7     8    2
    27     7    12    1
    28     8     9    1
    29    12    11    2
    30     9    10    2
    31    11    10    1
