@<TRIPOS>MOLECULE
66357_out_ligand_01.pdbqt
 33 36 0 0 0
SMALL
GASTEIGER

@<TRIPOS>ATOM
      1  C         19.7470  -21.8190  -10.8680 C.2     1  UNL1        0.0680
      2  C         19.0210  -21.0290  -11.7720 C.2     1  UNL1        0.0210
      3  C         17.6300  -21.0170  -11.7310 C.2     1  UNL1        0.0200
      4  C         17.0020  -21.7970  -10.7790 C.2     1  UNL1        0.1180
      5  N         17.6650  -22.5840   -9.9030 N.2     1  UNL1       -0.2530
      6  C         19.0250  -22.6040   -9.9640 C.2     1  UNL1        0.1130
      7  C         21.2310  -21.7710  -10.9840 C.2     1  UNL1        0.2590
      8  N         21.7670  -22.1290  -12.2070 N.am    1  UNL1       -0.3230
      9  H         21.1080  -22.3260  -12.9530 H       1  UNL1        0.1690
     10  O         21.8670  -21.4490   -9.9850 O.2     1  UNL1       -0.2670
     11  C         23.1290  -22.1690  -12.5740 C.2     1  UNL1        0.0360
     12  C         24.1070  -22.9110  -11.9030 C.2     1  UNL1        0.0490
     13  C         25.4490  -22.8850  -12.3310 C.2     1  UNL1        0.0720
     14  C         25.7920  -22.1090  -13.4380 C.2     1  UNL1        0.1320
     15  C         24.8310  -21.3640  -14.1120 C.2     1  UNL1        0.0450
     16  F         27.0580  -22.0400  -13.8780 F       1  UNL1       -0.2050
     17  C         23.5030  -21.3980  -13.6840 C.2     1  UNL1        0.0320
     18  C         26.4510  -23.6830  -11.5710 C.2     1  UNL1        0.2520
     19  N         26.7500  -23.3000  -10.2960 N.am    1  UNL1       -0.3660
     20  H         26.3140  -22.5080   -9.8360 H       1  UNL1        0.1590
     21  H         27.4090  -23.8640   -9.7750 H       1  UNL1        0.1590
     22  O         26.9940  -24.6690  -12.0580 O.2     1  UNL1       -0.2680
     23  S         19.7690  -23.7240   -8.7870 S.3     1  UNL1       -0.0700
     24  C         18.9170  -23.2110   -7.3080 C.2     1  UNL1        0.0090
     25  C         19.2680  -22.0070   -6.6830 C.2     1  UNL1        0.0220
     26  C         18.6230  -21.6070   -5.5090 C.2     1  UNL1        0.0410
     27  C         17.6270  -22.4100   -4.9590 C.2     1  UNL1        0.1020
     28  C         17.2530  -23.5990   -5.5950 C.2     1  UNL1        0.1030
     29  O         17.0540  -21.9700   -3.7930 O.2     1  UNL1       -0.3460
     30  C         17.9070  -24.0100   -6.7560 C.2     1  UNL1        0.0580
     31  O         16.2570  -24.4210   -5.1270 O.2     1  UNL1       -0.3460
     32  C         15.4380  -23.7500   -4.1630 C.3     1  UNL1        0.2020
     33  C         16.3030  -23.0100   -3.1530 C.3     1  UNL1        0.2020
@<TRIPOS>BOND
     1    15    17    1
     2    15    14    2
     3    16    14    1
     4    17    11    2
     5    14    13    1
     6     9     8    1
     7    11     8    1
     8    11    12    1
     9    13    12    2
    10    13    18    1
    11     8     7   am
    12    22    18    2
    13     2     3    1
    14     2     1    2
    15     3     4    2
    16    18    19   am
    17     7     1    1
    18     7    10    2
    19     1     6    1
    20     4     5    1
    21    19    20    1
    22    19    21    1
    23     6     5    2
    24     6    23    1
    25    23    24    1
    26    24    30    2
    27    24    25    1
    28    30    28    1
    29    25    26    2
    30    28    31    1
    31    28    27    2
    32    26    27    1
    33    31    32    1
    34    27    29    1
    35    32    33    1
    36    29    33    1
