@<TRIPOS>MOLECULE
66350_out_ligand_01.pdbqt
 27 30 0 0 0
SMALL
GASTEIGER

@<TRIPOS>ATOM
      1  C         20.4330  -24.3410   -8.5150 C.3     1  UNL1        0.1530
      2  N         19.8360  -23.3260   -9.3710 N.am    1  UNL1       -0.3480
      3  C         18.6210  -22.6930   -9.1120 C.2     1  UNL1        0.2740
      4  O         18.0980  -21.8440   -9.8250 O.2     1  UNL1       -0.2660
      5  C         17.8640  -23.1080   -7.8670 C.ar    1  UNL1        0.1550
      6  N         16.9730  -24.0500   -7.9950 N.ar    1  UNL1       -0.1660
      7  N         16.2850  -24.4260   -6.8790 N.ar    1  UNL1       -0.2420
      8  C         16.4410  -23.9040   -5.6170 C.ar    1  UNL1        0.2720
      9  H         15.6100  -25.1770   -6.9930 H       1  UNL1        0.1920
     10  O         15.7820  -24.2930   -4.6580 O.2     1  UNL1       -0.2660
     11  C         17.4440  -22.8340   -5.4740 C.ar    1  UNL1        0.0460
     12  C         17.6680  -22.2310   -4.2320 C.2     1  UNL1        0.0180
     13  C         18.1660  -22.4310   -6.5940 C.ar    1  UNL1        0.0160
     14  C         18.6200  -21.2170   -4.1170 C.2     1  UNL1        0.0010
     15  C         19.3450  -20.8110   -5.2380 C.2     1  UNL1        0.0010
     16  C         19.1220  -21.4150   -6.4790 C.2     1  UNL1        0.0150
     17  C         20.5340  -22.9940  -10.6180 C.3     1  UNL1        0.1600
     18  C         22.0460  -22.7830  -10.4300 C.3     1  UNL1        0.1710
     19  C         22.3260  -21.3500   -9.9830 C.3     1  UNL1        0.2090
     20  O         23.7180  -21.1770   -9.6920 O.2     1  UNL1       -0.3460
     21  C         24.5000  -21.7040  -10.6880 C.2     1  UNL1        0.1020
     22  C         25.8390  -21.3170  -10.7060 C.2     1  UNL1        0.0390
     23  C         24.0150  -22.5940  -11.6520 C.2     1  UNL1        0.1020
     24  C         26.6870  -21.7950  -11.7060 C.2     1  UNL1        0.0030
     25  C         26.1960  -22.6590  -12.6860 C.2     1  UNL1        0.0030
     26  C         24.8580  -23.0570  -12.6610 C.2     1  UNL1        0.0390
     27  O         22.7220  -23.0460  -11.6730 O.2     1  UNL1       -0.3390
@<TRIPOS>BOND
     1    25    26    2
     2    25    24    1
     3    26    23    1
     4    24    22    2
     5    27    23    1
     6    27    18    1
     7    23    21    2
     8    22    21    1
     9    21    20    1
    10    17    18    1
    11    17     2    1
    12    18    19    1
    13    19    20    1
    14     4     3    2
    15     2     3   am
    16     2     1    1
    17     3     5    1
    18     6     5   ar
    19     6     7   ar
    20     5    13   ar
    21     9     7    1
    22     7     8   ar
    23    13    16    1
    24    13    11   ar
    25    16    15    2
    26     8    11   ar
    27     8    10    2
    28    11    12    1
    29    15    14    1
    30    12    14    2
