@<TRIPOS>MOLECULE
6636_out_ligand_01.pdbqt
 34 38 0 0 0
SMALL
GASTEIGER

@<TRIPOS>ATOM
      1  C         19.2720  -23.7810   -8.5180 C.3     1  UNL1        0.2460
      2  N         20.6380  -24.3230   -8.3800 N.2     1  UNL1       -0.2350
      3  C         21.5020  -23.9560   -9.2510 C.2     1  UNL1        0.1730
      4  C         21.2600  -23.0350  -10.3260 C.ar    1  UNL1        0.0570
      5  C         19.9840  -22.5460  -10.4560 C.ar    1  UNL1        0.0870
      6  S         19.8250  -21.4320  -11.7280 S.2     1  UNL1       -0.0740
      7  C         21.4610  -21.6230  -12.1600 C.ar    1  UNL1        0.0200
      8  C         22.1340  -22.4930  -11.3210 C.ar    1  UNL1       -0.0240
      9  C         23.5870  -22.7740  -11.5440 C.3     1  UNL1        0.0710
     10  C         24.2210  -21.7290  -12.4920 C.3     1  UNL1        0.2780
     11  N         23.3880  -21.4760  -13.6890 N.3     1  UNL1        0.0970
     12  C         22.0840  -20.8760  -13.3070 C.3     1  UNL1        0.3190
     13  N         18.9740  -22.9150   -9.6470 N.pl3   1  UNL1       -0.3570
     14  H         18.1490  -22.3290   -9.5790 H       1  UNL1        0.1620
     15  C         18.8130  -23.0770   -7.2500 C.2     1  UNL1        0.0220
     16  C         19.4880  -21.9220   -6.8140 C.2     1  UNL1        0.0140
     17  C         19.1020  -21.2640   -5.6470 C.2     1  UNL1        0.0040
     18  C         18.0280  -21.7390   -4.8940 C.2     1  UNL1        0.0400
     19  C         17.3190  -22.8660   -5.3110 C.2     1  UNL1        0.1020
     20  C         17.7120  -23.5190   -6.4950 C.2     1  UNL1        0.1090
     21  O         16.2400  -23.4060   -4.6630 O.2     1  UNL1       -0.3490
     22  C         15.1470  -22.5720   -4.2900 C.3     1  UNL1        0.1710
     23  C         14.3830  -22.0980   -5.5150 C.3     1  UNL1        0.0340
     24  O         16.9750  -24.6120   -6.8850 O.2     1  UNL1       -0.3570
     25  H         17.3110  -25.4030   -6.4400 H       1  UNL1        0.2170
     26  O         22.7450  -24.4560   -9.1420 O.2     1  UNL1       -0.3440
     27  H         22.6640  -25.4200   -9.2350 H       1  UNL1        0.2190
     28  C         24.1060  -20.6080  -14.6370 C.3     1  UNL1        0.3110
     29  C         24.5920  -21.3330  -15.8740 C.2     1  UNL1       -0.0300
     30  C         24.3520  -22.7060  -16.0350 C.2     1  UNL1        0.0090
     31  C         24.8090  -23.3780  -17.1690 C.2     1  UNL1        0.0010
     32  C         25.5140  -22.6870  -18.1520 C.2     1  UNL1        0.0000
     33  C         25.7620  -21.3240  -18.0030 C.2     1  UNL1        0.0010
     34  C         25.3050  -20.6490  -16.8690 C.2     1  UNL1        0.0090
@<TRIPOS>BOND
     1    32    33    2
     2    32    31    1
     3    33    34    1
     4    31    30    2
     5    34    29    2
     6    30    29    1
     7    29    28    1
     8    28    11    1
     9    11    12    1
    10    11    10    1
    11    12     7    1
    12    10     9    1
    13     7     6   ar
    14     7     8   ar
    15     6     5   ar
    16     9     8    1
    17     8     4   ar
    18     5     4   ar
    19     5    13    1
    20     4     3    1
    21    13    14    1
    22    13     1    1
    23     3    26    1
    24     3     2    2
    25    27    26    1
    26     1     2    1
    27     1    15    1
    28    15    16    2
    29    15    20    1
    30    24    20    1
    31    24    25    1
    32    16    17    1
    33    20    19    2
    34    17    18    2
    35    23    22    1
    36    19    18    1
    37    19    21    1
    38    21    22    1
