@<TRIPOS>MOLECULE
66372_out_ligand_01.pdbqt
 38 43 0 0 0
SMALL
GASTEIGER

@<TRIPOS>ATOM
      1  O         22.0520  -22.0070  -11.7340 O.2     1  UNL1       -0.2670
      2  C         22.7640  -22.6730  -10.9930 C.2     1  UNL1        0.2560
      3  N         22.4680  -23.1000   -9.7120 N.am    1  UNL1       -0.3230
      4  H         23.2210  -23.5180   -9.1800 H       1  UNL1        0.1690
      5  C         24.1200  -23.0490  -11.4770 C.2     1  UNL1        0.0330
      6  C         25.2150  -23.1250  -10.6020 C.2     1  UNL1        0.0170
      7  C         26.4730  -23.4960  -11.0830 C.2     1  UNL1        0.0030
      8  C         26.6440  -23.8010  -12.4350 C.2     1  UNL1        0.0250
      9  C         25.5460  -23.7410  -13.2970 C.2     1  UNL1        0.0760
     10  C         24.2830  -23.3700  -12.8280 C.2     1  UNL1        0.0410
     11  S         25.7400  -24.1420  -15.0200 S.O2    1  UNL1        0.2480
     12  O         27.1190  -23.8440  -15.3430 O.2     1  UNL1       -0.2050
     13  O         25.1860  -25.4660  -15.2260 O.2     1  UNL1       -0.2050
     14  N         24.7010  -23.0130  -15.7670 N.pl3   1  UNL1       -0.1710
     15  C         24.1090  -23.4390  -17.0840 C.3     1  UNL1        0.1180
     16  C         24.6330  -22.4680  -18.1530 C.3     1  UNL1        0.0560
     17  C         25.1910  -21.3570  -17.3330 C.2     1  UNL1       -0.0350
     18  C         25.6570  -20.1270  -17.7700 C.2     1  UNL1        0.0090
     19  C         25.2690  -21.7160  -15.9910 C.2     1  UNL1        0.0310
     20  C         26.1870  -19.2450  -16.8250 C.2     1  UNL1        0.0010
     21  C         26.2460  -19.6030  -15.4690 C.2     1  UNL1        0.0020
     22  C         25.7790  -20.8490  -15.0420 C.2     1  UNL1        0.0250
     23  C         21.2520  -22.9390   -9.0180 C.2     1  UNL1        0.0350
     24  C         20.1280  -23.5950   -9.5340 C.2     1  UNL1        0.0300
     25  C         18.8840  -23.4810   -8.9030 C.2     1  UNL1        0.0170
     26  C         18.7420  -22.7160   -7.7400 C.2     1  UNL1        0.0120
     27  C         19.8600  -22.0390   -7.2430 C.2     1  UNL1        0.0170
     28  C         21.1070  -22.1540   -7.8740 C.2     1  UNL1        0.0300
     29  C         17.4320  -22.6200   -7.1020 C.ar    1  UNL1        0.1630
     30  N         16.2750  -22.6650   -7.7350 N.ar    1  UNL1       -0.1290
     31  N         15.2690  -22.5600   -6.8120 N.ar    1  UNL1       -0.1340
     32  C         15.8140  -22.4820   -5.6190 C.ar    1  UNL1        0.1300
     33  N         17.1790  -22.5340   -5.7450 N.ar    1  UNL1       -0.3160
     34  C         15.0800  -22.3580   -4.3380 C.3     1  UNL1        0.0810
     35  C         18.1740  -22.6100   -4.6970 C.3     1  UNL1        0.1320
     36  C         17.7100  -22.8830   -3.2610 C.3     1  UNL1        0.0200
     37  C         16.6880  -24.0110   -3.1530 C.3     1  UNL1        0.0020
     38  C         15.2440  -23.5810   -3.4400 C.3     1  UNL1        0.0080
@<TRIPOS>BOND
     1    16    17    1
     2    16    15    1
     3    18    17    2
     4    18    20    1
     5    17    19    1
     6    15    14    1
     7    20    21    2
     8    19    14    1
     9    19    22    2
    10    14    11    1
    11    21    22    1
    12    12    11    2
    13    13    11    2
    14    11     9    1
    15     9    10    1
    16     9     8    2
    17    10     5    2
    18     8     7    1
    19     1     2    2
    20     5     2    1
    21     5     6    1
    22     7     6    2
    23     2     3   am
    24     3     4    1
    25     3    23    1
    26    24    23    2
    27    24    25    1
    28    23    28    1
    29    25    26    2
    30    28    27    2
    31    26    27    1
    32    26    29    1
    33    30    29   ar
    34    30    31   ar
    35    29    33   ar
    36    31    32   ar
    37    33    32   ar
    38    33    35    1
    39    32    34    1
    40    35    36    1
    41    34    38    1
    42    38    37    1
    43    36    37    1
