@<TRIPOS>MOLECULE
66384_out_ligand_01.pdbqt
 36 40 0 0 0
SMALL
GASTEIGER

@<TRIPOS>ATOM
      1  C         22.7260  -22.4380   -9.8220 C.2     1  UNL1        0.0320
      2  C         21.6170  -21.7400  -10.3220 C.2     1  UNL1        0.0180
      3  C         20.3330  -22.0320   -9.8500 C.2     1  UNL1        0.0260
      4  C         20.1620  -23.0290   -8.8830 C.2     1  UNL1        0.0750
      5  C         21.2550  -23.7510   -8.3970 C.2     1  UNL1        0.0260
      6  C         22.5350  -23.4510   -8.8680 C.2     1  UNL1        0.0180
      7  C         24.1160  -22.1730  -10.2960 C.2     1  UNL1        0.2520
      8  N         24.8350  -23.2570  -10.7510 N.am    1  UNL1       -0.3490
      9  H         24.3640  -24.1340  -10.9220 H       1  UNL1        0.1630
     10  O         24.5550  -21.0280  -10.2940 O.2     1  UNL1       -0.2680
     11  C         26.1810  -23.1070  -11.2840 C.3     1  UNL1        0.1140
     12  C         26.8500  -24.4650  -11.5140 C.3     1  UNL1        0.0370
     13  C         26.1320  -22.2700  -12.5530 C.2     1  UNL1       -0.0360
     14  C         25.1620  -22.4840  -13.5430 C.2     1  UNL1        0.0110
     15  C         25.1250  -21.6910  -14.6970 C.2     1  UNL1        0.0300
     16  C         26.0550  -20.6590  -14.8820 C.2     1  UNL1        0.0390
     17  C         27.0170  -20.4330  -13.8890 C.2     1  UNL1        0.0300
     18  C         27.0500  -21.2290  -12.7370 C.2     1  UNL1        0.0110
     19  N         26.0230  -19.8530  -16.0570 N.pl3   1  UNL1       -0.3150
     20  C         26.6010  -18.6130  -16.2420 C.2     1  UNL1        0.1170
     21  C         26.3000  -18.2330  -17.5280 C.2     1  UNL1        0.1350
     22  N         25.5560  -19.1890  -18.1530 N.2     1  UNL1       -0.2540
     23  C         25.4080  -20.1420  -17.2580 C.2     1  UNL1        0.2140
     24  S         18.5100  -23.4010   -8.3140 S.O2    1  UNL1        0.2480
     25  O         18.5670  -24.6590   -7.5950 O.2     1  UNL1       -0.2050
     26  O         17.6640  -23.2430   -9.4780 O.2     1  UNL1       -0.2050
     27  N         18.2260  -22.1280   -7.1520 N.pl3   1  UNL1       -0.1720
     28  C         19.5090  -21.6710   -6.5210 C.3     1  UNL1        0.1140
     29  C         19.2610  -20.7480   -5.3430 C.3     1  UNL1        0.0200
     30  C         18.4980  -21.5130   -4.2800 C.3     1  UNL1        0.0420
     31  C         17.2270  -22.0720   -4.8580 C.2     1  UNL1       -0.0360
     32  C         16.1460  -22.3000   -3.9860 C.2     1  UNL1        0.0090
     33  C         17.1100  -22.3740   -6.2300 C.2     1  UNL1        0.0310
     34  C         14.9270  -22.7590   -4.4740 C.2     1  UNL1        0.0010
     35  C         14.7740  -22.9730   -5.8370 C.2     1  UNL1        0.0020
     36  C         15.8500  -22.7630   -6.7050 C.2     1  UNL1        0.0250
@<TRIPOS>BOND
     1    22    21    1
     2    22    23    2
     3    21    20    2
     4    23    19    1
     5    20    19    1
     6    19    16    1
     7    16    15    2
     8    16    17    1
     9    15    14    1
    10    17    18    2
    11    14    13    2
    12    18    13    1
    13    13    11    1
    14    12    11    1
    15    11     8    1
    16     9     8    1
    17     8     7   am
    18     2     3    1
    19     2     1    2
    20     7    10    2
    21     7     1    1
    22     3     4    2
    23     1     6    1
    24    26    24    2
    25     4     5    1
    26     4    24    1
    27     6     5    2
    28    24    25    2
    29    24    27    1
    30    27    28    1
    31    27    33    1
    32    36    33    1
    33    36    35    2
    34    28    29    1
    35    33    31    2
    36    35    34    1
    37    29    30    1
    38    31    30    1
    39    31    32    1
    40    34    32    2
