@<TRIPOS>MOLECULE
66381_out_ligand_01.pdbqt
 35 37 0 0 0
SMALL
GASTEIGER

@<TRIPOS>ATOM
      1  C         23.4640  -23.0700  -10.8040 C.2     1  UNL1        0.0420
      2  C         23.1960  -23.4380   -9.4880 C.2     1  UNL1        0.0310
      3  C         21.9030  -23.2980   -8.9780 C.2     1  UNL1        0.0190
      4  C         20.8730  -22.8090   -9.7940 C.2     1  UNL1        0.0320
      5  C         21.1510  -22.4330  -11.1140 C.2     1  UNL1        0.0190
      6  C         22.4470  -22.5700  -11.6190 C.2     1  UNL1        0.0310
      7  C         19.5070  -22.6790   -9.2110 C.2     1  UNL1        0.2560
      8  O         18.7730  -21.8010   -9.6470 O.2     1  UNL1       -0.2670
      9  N         19.2210  -23.5670   -8.1890 N.am    1  UNL1       -0.3230
     10  H         19.9840  -24.1450   -7.8560 H       1  UNL1        0.1690
     11  C         18.0060  -23.6940   -7.4840 C.2     1  UNL1        0.0360
     12  C         16.8090  -24.1050   -8.0610 C.2     1  UNL1        0.0310
     13  C         15.6470  -24.1990   -7.2870 C.2     1  UNL1        0.0270
     14  C         15.6660  -23.8940   -5.9210 C.2     1  UNL1        0.0490
     15 CL         14.1500  -24.0090   -5.0970 Cl      1  UNL1       -0.0830
     16  C         16.8650  -23.4950   -5.3180 C.2     1  UNL1        0.0550
     17  C         18.0250  -23.3930   -6.1160 C.2     1  UNL1        0.0480
     18  C         17.0510  -23.1500   -3.8790 C.2     1  UNL1        0.2510
     19  N         16.3800  -22.0850   -3.3570 N.am    1  UNL1       -0.3660
     20  H         15.8530  -21.4320   -3.9220 H       1  UNL1        0.1590
     21  H         16.5660  -21.8420   -2.3920 H       1  UNL1        0.1590
     22  O         17.7670  -23.8330   -3.1550 O.2     1  UNL1       -0.2680
     23  N         24.7680  -23.2550  -11.3340 N.pl3   1  UNL1       -0.2810
     24  H         25.3070  -24.0540  -10.9990 H       1  UNL1        0.1790
     25  S         25.7610  -21.8910  -11.4800 S.O2    1  UNL1        0.2630
     26  O         25.2680  -20.8450  -10.6100 O.2     1  UNL1       -0.2000
     27  O         27.1210  -22.3740  -11.3720 O.2     1  UNL1       -0.2000
     28  C         25.5030  -21.4070  -13.1680 C.2     1  UNL1        0.0800
     29  C         25.1010  -22.3700  -14.1030 C.2     1  UNL1        0.0350
     30  C         24.8970  -22.0020  -15.4390 C.2     1  UNL1       -0.0220
     31  C         24.4910  -23.0140  -16.4670 C.3     1  UNL1        0.0510
     32  C         25.1330  -20.6750  -15.8140 C.2     1  UNL1        0.1220
     33  C         25.5460  -19.7190  -14.8870 C.2     1  UNL1        0.0440
     34  F         24.9640  -20.3030  -17.0910 F       1  UNL1       -0.2060
     35  C         25.7370  -20.0820  -13.5560 C.2     1  UNL1        0.0280
@<TRIPOS>BOND
     1    34    32    1
     2    31    30    1
     3    32    30    2
     4    32    33    1
     5    30    29    1
     6    33    35    2
     7    29    28    2
     8    35    28    1
     9    28    25    1
    10     6     5    1
    11     6     1    2
    12    25    27    2
    13    25    23    1
    14    25    26    2
    15    23    24    1
    16    23     1    1
    17     5     4    2
    18     1     2    1
    19     4     7    1
    20     4     3    1
    21     8     7    2
    22     2     3    2
    23     7     9   am
    24     9    10    1
    25     9    11    1
    26    12    11    2
    27    12    13    1
    28    11    17    1
    29    13    14    2
    30    17    16    2
    31    14    16    1
    32    14    15    1
    33    16    18    1
    34    20    19    1
    35    18    19   am
    36    18    22    2
    37    19    21    1
