@<TRIPOS>MOLECULE
66409_out_ligand_01.pdbqt
 35 39 0 0 0
SMALL
GASTEIGER

@<TRIPOS>ATOM
      1  C         18.5310  -21.7290  -10.5810 C.2     1  UNL1        0.0330
      2  C         17.3890  -21.2480  -11.2380 C.2     1  UNL1        0.0170
      3  C         16.1200  -21.6180  -10.7900 C.2     1  UNL1        0.0030
      4  C         15.9860  -22.4610   -9.6880 C.2     1  UNL1        0.0250
      5  C         17.1290  -22.9230   -9.0290 C.2     1  UNL1        0.0760
      6  C         18.4060  -22.5610   -9.4650 C.2     1  UNL1        0.0410
      7  C         19.8920  -21.3490  -11.0270 C.2     1  UNL1        0.2560
      8  N         20.8140  -22.3740  -10.9920 N.am    1  UNL1       -0.3160
      9  H         20.5120  -23.3280  -10.8630 H       1  UNL1        0.1690
     10  O         20.0710  -20.2050  -11.4270 O.2     1  UNL1       -0.2670
     11  C         22.1490  -22.1970  -11.2770 C.ar    1  UNL1        0.0930
     12  C         23.3190  -22.2300  -10.5260 C.ar    1  UNL1        0.0730
     13  C         24.4080  -21.8300  -11.3550 C.ar    1  UNL1       -0.0260
     14  C         24.0370  -21.6180  -12.6540 C.ar    1  UNL1       -0.0080
     15  C         25.8780  -21.6770  -11.1940 C.3     1  UNL1        0.0410
     16  S         22.4140  -21.8740  -12.9460 S.2     1  UNL1       -0.0750
     17  C         25.1550  -21.2670  -13.5590 C.3     1  UNL1        0.0470
     18  C         26.2910  -20.9820  -12.5290 C.3     1  UNL1        0.0100
     19  C         23.4260  -22.6960   -9.1530 C.2     1  UNL1        0.2520
     20  N         24.1780  -23.8270   -8.9890 N.am    1  UNL1       -0.3660
     21  H         24.8930  -24.0130   -9.6800 H       1  UNL1        0.1590
     22  H         24.4300  -24.0030   -8.0250 H       1  UNL1        0.1590
     23  O         22.8650  -22.1600   -8.2040 O.2     1  UNL1       -0.2680
     24  S         16.9750  -23.9960   -7.6160 S.O2    1  UNL1        0.2480
     25  O         16.0240  -25.0360   -7.9600 O.2     1  UNL1       -0.2050
     26  O         18.3260  -24.3200   -7.2090 O.2     1  UNL1       -0.2050
     27  N         16.2390  -22.9670   -6.4690 N.pl3   1  UNL1       -0.1710
     28  C         15.1440  -23.5870   -5.6460 C.3     1  UNL1        0.1180
     29  C         15.6380  -23.6210   -4.1900 C.3     1  UNL1        0.0560
     30  C         16.7880  -22.6720   -4.2230 C.2     1  UNL1       -0.0350
     31  C         17.5110  -22.1710   -3.1530 C.2     1  UNL1        0.0090
     32  C         17.1400  -22.3620   -5.5330 C.2     1  UNL1        0.0310
     33  C         18.5910  -21.3260   -3.4210 C.2     1  UNL1        0.0010
     34  C         18.9340  -21.0020   -4.7430 C.2     1  UNL1        0.0020
     35  C         18.2020  -21.5200   -5.8140 C.2     1  UNL1        0.0250
@<TRIPOS>BOND
     1    17    14    1
     2    17    18    1
     3    16    14   ar
     4    16    11   ar
     5    14    13   ar
     6    18    15    1
     7    10     7    2
     8    13    15    1
     9    13    12   ar
    10    11     8    1
    11    11    12   ar
    12     2     3    1
    13     2     1    2
    14     7     8   am
    15     7     1    1
    16     8     9    1
    17     3     4    2
    18     1     6    1
    19    12    19    1
    20     4     5    1
    21    21    20    1
    22     6     5    2
    23    19    20   am
    24    19    23    2
    25     5    24    1
    26    20    22    1
    27    25    24    2
    28    24    26    2
    29    24    27    1
    30    27    28    1
    31    27    32    1
    32    35    32    1
    33    35    34    2
    34    28    29    1
    35    32    30    2
    36    34    33    1
    37    30    29    1
    38    30    31    1
    39    33    31    2
