@<TRIPOS>MOLECULE
6640_out_ligand_01.pdbqt
 34 38 0 0 0
SMALL
GASTEIGER

@<TRIPOS>ATOM
      1  C         23.8410  -21.7210  -12.2990 C.3     1  UNL1        0.2460
      2  N         24.2400  -22.5920  -11.1750 N.2     1  UNL1       -0.2350
      3  C         23.3140  -22.9840  -10.3810 C.2     1  UNL1        0.1730
      4  C         21.9140  -22.6770  -10.5150 C.ar    1  UNL1        0.0570
      5  C         21.5430  -21.8920  -11.5790 C.ar    1  UNL1        0.0870
      6  S         19.8700  -21.6000  -11.6450 S.2     1  UNL1       -0.0740
      7  C         19.6070  -22.5330  -10.2410 C.ar    1  UNL1        0.0200
      8  C         20.7800  -23.0630   -9.7310 C.ar    1  UNL1       -0.0240
      9  C         20.7410  -23.9140   -8.5000 C.3     1  UNL1        0.0710
     10  C         19.3070  -24.4190   -8.2210 C.3     1  UNL1        0.2780
     11  N         18.2970  -23.3380   -8.3100 N.3     1  UNL1        0.0970
     12  C         18.2320  -22.7850   -9.6870 C.3     1  UNL1        0.3190
     13  N         22.4290  -21.4260  -12.4720 N.pl3   1  UNL1       -0.3570
     14  H         22.1500  -20.8700  -13.2740 H       1  UNL1        0.1620
     15  C         24.3540  -22.2870  -13.6140 C.2     1  UNL1        0.0230
     16  C         25.1010  -23.4790  -13.6180 C.2     1  UNL1        0.0330
     17  C         25.5690  -24.0180  -14.8180 C.2     1  UNL1        0.0140
     18  C         25.2950  -23.3980  -16.0380 C.2     1  UNL1        0.0580
     19 BR         26.5820  -25.6180  -14.7870 Br      1  UNL1       -0.0510
     20  C         24.5500  -22.2180  -16.0600 C.2     1  UNL1        0.1030
     21  C         24.0850  -21.6780  -14.8480 C.2     1  UNL1        0.1090
     22  O         24.1930  -21.5380  -17.1970 O.2     1  UNL1       -0.3530
     23  C         25.2460  -20.9000  -17.9140 C.3     1  UNL1        0.2100
     24  O         23.3780  -20.5040  -14.8870 O.2     1  UNL1       -0.3570
     25  H         22.7500  -20.5380  -14.1250 H       1  UNL1        0.2170
     26  O         23.6750  -23.7590   -9.3450 O.2     1  UNL1       -0.3440
     27  H         24.3520  -23.2660   -8.8530 H       1  UNL1        0.2190
     28  C         16.9810  -23.8570   -7.8880 C.3     1  UNL1        0.3110
     29  C         16.5160  -23.3590   -6.5340 C.2     1  UNL1       -0.0300
     30  C         15.3360  -22.6080   -6.4250 C.2     1  UNL1        0.0090
     31  C         14.8650  -22.1970   -5.1730 C.2     1  UNL1        0.0010
     32  C         15.5690  -22.5330   -4.0200 C.2     1  UNL1        0.0000
     33  C         16.7390  -23.2890   -4.1100 C.2     1  UNL1        0.0010
     34  C         17.2070  -23.7050   -5.3620 C.2     1  UNL1        0.0090
@<TRIPOS>BOND
     1    23    22    1
     2    22    20    1
     3    20    18    2
     4    20    21    1
     5    18    17    1
     6    24    21    1
     7    24    25    1
     8    21    15    2
     9    17    19    1
    10    17    16    2
    11    16    15    1
    12    15     1    1
    13    14    13    1
    14    13     1    1
    15    13     5    1
    16     1     2    1
    17     6     5   ar
    18     6     7   ar
    19     5     4   ar
    20     2     3    2
    21     4     3    1
    22     4     8   ar
    23     3    26    1
    24     7     8   ar
    25     7    12    1
    26     8     9    1
    27    12    11    1
    28    26    27    1
    29     9    10    1
    30    11    10    1
    31    11    28    1
    32    28    29    1
    33    29    30    2
    34    29    34    1
    35    30    31    1
    36    34    33    2
    37    31    32    2
    38    33    32    1
