@<TRIPOS>MOLECULE
66403_out_ligand_01.pdbqt
 35 39 0 0 0
SMALL
GASTEIGER

@<TRIPOS>ATOM
      1  O         22.2130  -24.1880   -9.0650 O.2     1  UNL1       -0.2670
      2  C         21.7430  -23.1350   -9.4680 C.2     1  UNL1        0.2570
      3  N         22.3250  -22.1980  -10.2990 N.am    1  UNL1       -0.3230
      4  H         21.7530  -21.4020  -10.5570 H       1  UNL1        0.1690
      5  C         23.6230  -22.2270  -10.8490 C.2     1  UNL1        0.0360
      6  C         24.5350  -21.2740  -10.3680 C.2     1  UNL1        0.0290
      7  C         25.8490  -21.2320  -10.8410 C.2     1  UNL1        0.0040
      8  C         26.2670  -22.1410  -11.8070 C.2     1  UNL1        0.0250
      9  C         25.3570  -23.0810  -12.3020 C.2     1  UNL1        0.0820
     10  C         24.0420  -23.1370  -11.8200 C.2     1  UNL1        0.0540
     11  S         25.9120  -24.2610  -13.5040 S.O2    1  UNL1        0.2640
     12  O         24.7960  -25.0370  -13.9940 O.2     1  UNL1       -0.2000
     13  O         27.0720  -24.9240  -12.9390 O.2     1  UNL1       -0.2000
     14  N         26.5170  -23.3220  -14.7370 N.3     1  UNL1       -0.2680
     15  H         27.5120  -23.1440  -14.6300 H       1  UNL1        0.1800
     16  C         25.8200  -22.8660  -15.8500 C.3     1  UNL1        0.1080
     17  N         25.7320  -23.5090  -16.9640 N.3     1  UNL1       -0.2760
     18  C         24.8870  -22.6670  -17.8330 C.3     1  UNL1        0.1510
     19  C         24.9260  -21.2760  -17.2210 C.3     1  UNL1        0.0290
     20  C         25.0840  -21.5700  -15.7480 C.3     1  UNL1        0.0800
     21  C         20.3590  -22.7980   -9.0740 C.2     1  UNL1        0.0470
     22  C         20.0160  -23.0440   -7.7460 C.2     1  UNL1        0.0520
     23  C         18.7150  -22.7920   -7.3630 C.2     1  UNL1        0.0920
     24  N         17.7770  -22.3210   -8.2220 N.2     1  UNL1       -0.2450
     25  C         18.1250  -22.0560   -9.4930 C.2     1  UNL1        0.0690
     26  C         17.1560  -21.5500  -10.3490 C.2     1  UNL1        0.0320
     27  C         19.4240  -22.2690   -9.9900 C.2     1  UNL1        0.0080
     28  C         17.4370  -21.2340  -11.6810 C.2     1  UNL1        0.0020
     29  C         18.7200  -21.4200  -12.1750 C.2     1  UNL1        0.0010
     30  C         19.7100  -21.9310  -11.3380 C.2     1  UNL1        0.0150
     31  C         18.2320  -23.0250   -6.0090 C.2     1  UNL1        0.1030
     32  C         17.7320  -24.1340   -5.3510 C.2     1  UNL1        0.0410
     33  C         17.4310  -23.7250   -4.0300 C.2     1  UNL1        0.0270
     34  C         17.7640  -22.3940   -3.9580 C.2     1  UNL1        0.1420
     35  O         18.2530  -21.9600   -5.1490 O.2     1  UNL1       -0.3200
@<TRIPOS>BOND
     1    18    19    1
     2    18    17    1
     3    19    20    1
     4    17    16    1
     5    16    20    1
     6    16    14    1
     7    14    15    1
     8    14    11    1
     9    12    11    2
    10    11    13    2
    11    11     9    1
    12     9    10    1
    13     9     8    2
    14    29    28    1
    15    29    30    2
    16    10     5    2
    17     8     7    1
    18    28    26    2
    19    30    27    1
    20     5     6    1
    21     5     3    1
    22     7     6    2
    23     4     3    1
    24    26    25    1
    25     3     2   am
    26    27    25    1
    27    27    21    2
    28    25    24    2
    29     2    21    1
    30     2     1    2
    31    21    22    1
    32    24    23    1
    33    22    23    2
    34    23    31    1
    35    31    32    2
    36    31    35    1
    37    32    33    1
    38    35    34    1
    39    33    34    2
