@<TRIPOS>MOLECULE
66412_out_ligand_01.pdbqt
 33 36 0 0 0
SMALL
GASTEIGER

@<TRIPOS>ATOM
      1  O         21.3010  -23.8340   -9.6650 O.2     1  UNL1       -0.2670
      2  C         20.9290  -22.8860  -10.3500 C.2     1  UNL1        0.2590
      3  N         21.7480  -22.1050  -11.1410 N.am    1  UNL1       -0.3230
      4  H         21.3050  -21.3330  -11.6220 H       1  UNL1        0.1690
      5  C         23.1390  -22.2230  -11.3390 C.2     1  UNL1        0.0360
      6  C         23.9580  -21.4060  -10.5420 C.2     1  UNL1        0.0290
      7  C         25.3490  -21.4540  -10.6520 C.2     1  UNL1        0.0040
      8  C         25.9410  -22.3170  -11.5690 C.2     1  UNL1        0.0250
      9  C         25.1290  -23.1180  -12.3780 C.2     1  UNL1        0.0820
     10  C         23.7340  -23.0840  -12.2600 C.2     1  UNL1        0.0540
     11  S         25.8980  -24.2320  -13.5220 S.O2    1  UNL1        0.2640
     12  O         24.9140  -25.1160  -14.1030 O.2     1  UNL1       -0.2000
     13  O         27.0720  -24.7730  -12.8610 O.2     1  UNL1       -0.2000
     14  N         26.5040  -23.2300  -14.7070 N.3     1  UNL1       -0.2680
     15  H         27.4890  -23.0320  -14.5700 H       1  UNL1        0.1800
     16  C         25.8090  -22.7200  -15.7960 C.3     1  UNL1        0.1080
     17  N         25.7670  -23.2810  -16.9570 N.3     1  UNL1       -0.2760
     18  C         24.9000  -22.4120  -17.7760 C.3     1  UNL1        0.1510
     19  C         24.8710  -21.0710  -17.0620 C.3     1  UNL1        0.0290
     20  C         25.0200  -21.4650  -15.6130 C.3     1  UNL1        0.0800
     21  C         19.4670  -22.5330  -10.3280 C.2     1  UNL1        0.0660
     22  C         18.9870  -21.7570  -11.3990 C.2     1  UNL1        0.0200
     23  C         17.6450  -21.3730  -11.4710 C.2     1  UNL1        0.0010
     24  C         16.7570  -21.7560  -10.4710 C.2     1  UNL1        0.0030
     25  C         17.2100  -22.5260   -9.4020 C.2     1  UNL1        0.0380
     26  C         18.5540  -22.9310   -9.3380 C.2     1  UNL1        0.0910
     27  O         18.9690  -23.6580   -8.2430 O.2     1  UNL1       -0.3100
     28  C         18.7380  -23.1080   -7.0010 C.2     1  UNL1        0.0760
     29  C         17.9400  -23.8540   -6.1300 C.2     1  UNL1        0.0370
     30  C         17.6250  -23.3470   -4.8700 C.2     1  UNL1        0.0030
     31  C         18.0930  -22.0900   -4.4860 C.2     1  UNL1        0.0000
     32  C         18.8730  -21.3370   -5.3640 C.2     1  UNL1        0.0030
     33  C         19.1920  -21.8400   -6.6260 C.2     1  UNL1        0.0370
@<TRIPOS>BOND
     1    18    19    1
     2    18    17    1
     3    19    20    1
     4    17    16    1
     5    16    20    1
     6    16    14    1
     7    14    15    1
     8    14    11    1
     9    12    11    2
    10    11    13    2
    11    11     9    1
    12     9    10    1
    13     9     8    2
    14    10     5    2
    15     4     3    1
    16     8     7    1
    17    23    22    1
    18    23    24    2
    19    22    21    2
    20     5     3    1
    21     5     6    1
    22     3     2   am
    23     7     6    2
    24    24    25    1
    25     2    21    1
    26     2     1    2
    27    21    26    1
    28    25    26    2
    29    26    27    1
    30    27    28    1
    31    28    33    2
    32    28    29    1
    33    33    32    1
    34    29    30    2
    35    32    31    2
    36    30    31    1
