@<TRIPOS>MOLECULE
66427_out_ligand_01.pdbqt
 34 36 0 0 0
SMALL
GASTEIGER

@<TRIPOS>ATOM
      1  C         16.0140  -21.7920   -9.9520 C.3     1  UNL1        0.0500
      2  C         17.4710  -21.9510  -10.2780 C.2     1  UNL1       -0.0390
      3  C         17.9720  -21.2880  -11.4100 C.2     1  UNL1        0.0100
      4  C         19.3170  -21.3930  -11.7850 C.2     1  UNL1        0.0300
      5  C         20.2020  -22.1680  -11.0400 C.2     1  UNL1        0.0360
      6  C         19.7180  -22.8390   -9.9150 C.2     1  UNL1        0.0540
      7  C         18.3680  -22.7260   -9.5250 C.2     1  UNL1        0.0830
      8  N         21.5670  -22.3350  -11.3570 N.am    1  UNL1       -0.3230
      9  C         22.6510  -21.7630  -10.7130 C.2     1  UNL1        0.2560
     10  O         22.6210  -21.0670   -9.7050 O.2     1  UNL1       -0.2670
     11  H         21.7650  -22.9900  -12.1030 H       1  UNL1        0.1690
     12  C         23.9830  -22.0810  -11.3040 C.2     1  UNL1        0.0330
     13  C         25.1230  -21.5030  -10.7290 C.2     1  UNL1        0.0170
     14  C         26.3910  -21.7770  -11.2450 C.2     1  UNL1        0.0020
     15  C         26.5280  -22.6210  -12.3480 C.2     1  UNL1        0.0170
     16  C         25.3910  -23.1790  -12.9480 C.2     1  UNL1        0.0320
     17  C         24.1180  -22.9100  -12.4240 C.2     1  UNL1        0.0340
     18  C         25.4820  -24.0830  -14.1230 C.2     1  UNL1        0.2490
     19  N         25.8630  -23.5370  -15.3160 N.am    1  UNL1       -0.3660
     20  H         25.7920  -24.1460  -16.1220 H       1  UNL1        0.1590
     21  H         25.8290  -22.5410  -15.4880 H       1  UNL1        0.1590
     22  O         25.1970  -25.2700  -14.0310 O.2     1  UNL1       -0.2680
     23  S         17.9080  -23.6280   -8.0540 S.O2    1  UNL1        0.2460
     24  O         19.0800  -24.3740   -7.6430 O.2     1  UNL1       -0.2060
     25  O         16.6360  -24.2890   -8.2270 O.2     1  UNL1       -0.2060
     26  N         17.7360  -22.3790   -6.9120 N.pl3   1  UNL1       -0.1780
     27  H         18.6440  -21.9210   -6.8040 H       1  UNL1        0.1460
     28  C         17.0880  -22.7260   -5.6850 C.2     1  UNL1        0.0610
     29  C         17.8220  -23.2630   -4.6280 C.2     1  UNL1        0.0270
     30  C         17.1890  -23.5360   -3.4120 C.2     1  UNL1        0.0020
     31  C         15.8270  -23.2660   -3.2510 C.2     1  UNL1        0.0030
     32  C         15.0940  -22.7220   -4.3050 C.2     1  UNL1        0.0440
     33  C         15.7290  -22.4520   -5.5130 C.2     1  UNL1        0.1380
     34  F         15.0190  -21.9370   -6.5270 F       1  UNL1       -0.2040
@<TRIPOS>BOND
     1    20    19    1
     2    21    19    1
     3    19    18   am
     4    18    22    2
     5    18    16    1
     6    16    17    1
     7    16    15    2
     8    17    12    2
     9    15    14    1
    10    11     8    1
    11     4     3    1
    12     4     5    2
    13     3     2    2
    14     8     5    1
    15     8     9   am
    16    12    13    1
    17    12     9    1
    18    14    13    2
    19     5     6    1
    20     9    10    2
    21     2     1    1
    22     2     7    1
    23     6     7    2
    24     7    23    1
    25    25    23    2
    26    23    24    2
    27    23    26    1
    28    26    27    1
    29    26    28    1
    30    34    33    1
    31    28    33    2
    32    28    29    1
    33    33    32    1
    34    29    30    2
    35    32    31    2
    36    30    31    1
