@<TRIPOS>MOLECULE
66421_out_ligand_01.pdbqt
 36 39 0 0 0
SMALL
GASTEIGER

@<TRIPOS>ATOM
      1  C         19.8650  -22.6920   -9.1280 C.2     1  UNL1        0.0320
      2  C         20.1010  -22.1190  -10.3840 C.2     1  UNL1        0.0190
      3  C         21.3800  -21.6710  -10.7220 C.2     1  UNL1        0.0250
      4  C         22.4160  -21.7690   -9.7940 C.2     1  UNL1        0.0220
      5  C         22.1890  -22.3360   -8.5370 C.2     1  UNL1        0.0250
      6  C         20.9120  -22.7910   -8.2010 C.2     1  UNL1        0.0190
      7  N         23.7310  -21.3550  -10.1800 N.pl3   1  UNL1       -0.1810
      8  H         24.3220  -21.2400   -9.3540 H       1  UNL1        0.1460
      9  S         24.5370  -22.4770  -11.1840 S.O2    1  UNL1        0.2450
     10  O         25.8110  -22.7360  -10.5470 O.2     1  UNL1       -0.2060
     11  O         23.6430  -23.5430  -11.5810 O.2     1  UNL1       -0.2060
     12  C         24.8280  -21.4760  -12.6240 C.2     1  UNL1        0.0770
     13  C         24.1510  -21.7700  -13.8340 C.2     1  UNL1        0.0270
     14  C         24.3510  -20.9760  -14.9700 C.2     1  UNL1        0.0330
     15  C         25.2200  -19.9170  -14.8390 C.ar    1  UNL1        0.0630
     16  N         25.6060  -18.9650  -15.7750 N.ar    1  UNL1       -0.3070
     17  C         25.8780  -19.6320  -13.6410 C.ar    1  UNL1        0.0640
     18  C         26.5060  -18.0740  -15.1690 C.ar    1  UNL1        0.3250
     19  H         25.3050  -18.8870  -16.7320 H       1  UNL1        0.1700
     20  O         27.0420  -17.1130  -15.6920 O.2     1  UNL1       -0.2470
     21  N         26.6660  -18.5040  -13.8430 N.ar    1  UNL1       -0.3060
     22  H         27.2550  -18.0350  -13.1720 H       1  UNL1        0.1700
     23  C         25.7050  -20.3880  -12.5090 C.2     1  UNL1        0.0560
     24  C         18.4910  -23.1680   -8.8120 C.2     1  UNL1        0.2510
     25  N         18.3330  -23.7720   -7.5850 N.am    1  UNL1       -0.3530
     26  H         19.1550  -24.0810   -7.0830 H       1  UNL1        0.1630
     27  O         17.5940  -23.0350   -9.6350 O.2     1  UNL1       -0.2680
     28  C         17.1080  -24.4590   -7.2380 C.3     1  UNL1        0.1640
     29  C         16.3070  -23.6580   -6.2390 C.2     1  UNL1       -0.0070
     30  C         15.2130  -22.9010   -6.6900 C.2     1  UNL1        0.0110
     31  C         14.4400  -22.1650   -5.7940 C.2     1  UNL1        0.0010
     32  C         14.7480  -22.1850   -4.4380 C.2     1  UNL1        0.0030
     33  C         15.8220  -22.9480   -3.9730 C.2     1  UNL1        0.0370
     34  C         16.6040  -23.6930   -4.8630 C.2     1  UNL1        0.0760
     35  O         17.6570  -24.4920   -4.4960 O.2     1  UNL1       -0.3550
     36  C         18.1320  -24.3710   -3.1600 C.3     1  UNL1        0.2100
@<TRIPOS>BOND
     1    19    16    1
     2    16    18   ar
     3    16    15   ar
     4    20    18    2
     5    18    21   ar
     6    14    15    2
     7    14    13    1
     8    15    17   ar
     9    21    17   ar
    10    21    22    1
    11    13    12    2
    12    17    23    2
    13    12    23    1
    14    12     9    1
    15    11     9    2
    16     9    10    2
    17     9     7    1
    18     3     2    1
    19     3     4    2
    20     2     1    2
    21     7     4    1
    22     7     8    1
    23     4     5    1
    24    27    24    2
    25     1    24    1
    26     1     6    1
    27    24    25   am
    28     5     6    2
    29    25    28    1
    30    25    26    1
    31    28    29    1
    32    30    29    2
    33    30    31    1
    34    29    34    1
    35    31    32    2
    36    34    35    1
    37    34    33    2
    38    35    36    1
    39    32    33    1
