@<TRIPOS>MOLECULE
66425_out_ligand_01.pdbqt
 26 28 0 0 0
SMALL
GASTEIGER

@<TRIPOS>ATOM
      1  C         18.8140  -23.5090   -8.1620 C.2     1  UNL1        0.2540
      2  O         18.6850  -24.3970   -7.3260 O.2     1  UNL1       -0.2670
      3  N         17.7510  -22.8210   -8.7330 N.am    1  UNL1       -0.3430
      4  C         17.7860  -22.1930  -10.0490 C.3     1  UNL1        0.1270
      5  C         16.3340  -21.8780  -10.3740 C.3     1  UNL1        0.0220
      6  C         15.5740  -22.9580   -9.6150 C.3     1  UNL1        0.0270
      7  C         16.3740  -23.1100   -8.3140 C.3     1  UNL1        0.0910
      8  C         20.1850  -23.1670   -8.6060 C.2     1  UNL1        0.0320
      9  C         20.9600  -22.2510   -7.8860 C.2     1  UNL1        0.0180
     10  C         22.2640  -21.9620   -8.3010 C.2     1  UNL1        0.0180
     11  C         22.7960  -22.5940   -9.4350 C.2     1  UNL1        0.0310
     12  C         22.0250  -23.5390  -10.1280 C.2     1  UNL1        0.0180
     13  C         20.7230  -23.8290   -9.7120 C.2     1  UNL1        0.0180
     14  C         24.1780  -22.3250   -9.9180 C.2     1  UNL1        0.2490
     15  N         25.0650  -23.3670   -9.9170 N.am    1  UNL1       -0.3660
     16  H         24.9110  -24.2100   -9.3840 H       1  UNL1        0.1590
     17  H         26.0240  -23.1240  -10.1340 H       1  UNL1        0.1590
     18  O         24.5310  -21.2070  -10.2690 O.2     1  UNL1       -0.2680
     19  C         15.8720  -22.1230   -7.2360 C.3     1  UNL1        0.0640
     20  C         16.1110  -22.5660   -5.8130 C.2     1  UNL1       -0.0530
     21  C         15.1910  -23.4020   -5.1600 C.2     1  UNL1        0.0070
     22  C         15.4070  -23.8070   -3.8410 C.2     1  UNL1        0.0030
     23  C         16.5470  -23.3820   -3.1610 C.2     1  UNL1        0.0420
     24  C         17.4580  -22.5540   -3.8050 C.2     1  UNL1        0.1160
     25  F         18.5570  -22.1500   -3.1530 F       1  UNL1       -0.2060
     26  C         17.2530  -22.1440   -5.1190 C.2     1  UNL1        0.0490
@<TRIPOS>BOND
     1     5     4    1
     2     5     6    1
     3    18    14    2
     4    17    15    1
     5    12    13    1
     6    12    11    2
     7     4     3    1
     8    14    15   am
     9    14    11    1
    10    15    16    1
    11    13     8    2
    12     6     7    1
    13    11    10    1
    14     3     7    1
    15     3     1   am
    16     8     1    1
    17     8     9    1
    18     7    19    1
    19    10     9    2
    20     1     2    2
    21    19    20    1
    22    20    21    2
    23    20    26    1
    24    21    22    1
    25    26    24    2
    26    22    23    2
    27    24    23    1
    28    24    25    1
