@<TRIPOS>MOLECULE
66429_out_ligand_01.pdbqt
 35 38 0 0 0
SMALL
GASTEIGER

@<TRIPOS>ATOM
      1  C         23.8090  -22.4720  -11.2500 C.2     1  UNL1        0.0340
      2  C         22.4500  -22.3190  -11.5560 C.2     1  UNL1        0.0300
      3  C         21.4650  -22.8240  -10.7020 C.2     1  UNL1        0.0190
      4  C         21.8240  -23.4810   -9.5210 C.2     1  UNL1        0.0320
      5  C         23.1790  -23.6500   -9.2180 C.2     1  UNL1        0.0190
      6  C         24.1630  -23.1440  -10.0780 C.2     1  UNL1        0.0300
      7  C         20.7420  -23.9980   -8.6390 C.2     1  UNL1        0.2520
      8  O         20.5600  -25.2060   -8.5380 O.2     1  UNL1       -0.2680
      9  N         19.9730  -23.0490   -8.0020 N.am    1  UNL1       -0.3440
     10  H         19.9960  -22.1030   -8.3530 H       1  UNL1        0.1630
     11  C         18.7630  -23.4200   -7.2830 C.3     1  UNL1        0.1510
     12  C         17.5820  -23.2490   -8.2380 C.2     1  UNL1       -0.0310
     13  C         16.4180  -24.0310   -8.1240 C.2     1  UNL1        0.0090
     14  C         15.3420  -23.8350   -8.9910 C.2     1  UNL1        0.0010
     15  C         15.4070  -22.8490   -9.9730 C.2     1  UNL1        0.0000
     16  C         16.5460  -22.0540  -10.0890 C.2     1  UNL1        0.0010
     17  C         17.6240  -22.2500   -9.2240 C.2     1  UNL1        0.0090
     18  C         18.6110  -22.6650   -5.9580 C.2     1  UNL1       -0.0310
     19  C         19.1110  -21.3540   -5.8410 C.2     1  UNL1        0.0090
     20  C         18.9680  -20.6290   -4.6560 C.2     1  UNL1        0.0010
     21  C         18.3070  -21.1940   -3.5690 C.2     1  UNL1        0.0000
     22  C         17.7810  -22.4790   -3.6710 C.2     1  UNL1        0.0010
     23  C         17.9240  -23.2050   -4.8570 C.2     1  UNL1        0.0090
     24  N         24.7350  -21.9320  -12.1610 N.am    1  UNL1       -0.3270
     25  C         25.6550  -20.9200  -11.9460 C.2     1  UNL1        0.2310
     26  O         25.8590  -20.3580  -10.8710 O.2     1  UNL1       -0.2720
     27  H         24.6940  -22.2920  -13.1070 H       1  UNL1        0.1690
     28  C         26.5390  -20.5970  -13.1470 C.3     1  UNL1        0.1850
     29  S         25.7630  -19.5010  -14.3770 S.3     1  UNL1       -0.0800
     30  C         25.0510  -20.6550  -15.4440 C.ar    1  UNL1        0.1980
     31  N         24.3830  -21.7340  -15.1150 N.ar    1  UNL1       -0.1350
     32  N         24.0250  -22.3300  -16.3020 N.ar    1  UNL1        0.0180
     33  N         24.4640  -21.6290  -17.3390 N.ar    1  UNL1       -0.0030
     34  N         25.1080  -20.5770  -16.8050 N.ar    1  UNL1       -0.2590
     35  C         25.7210  -19.5890  -17.6460 C.3     1  UNL1        0.1770
@<TRIPOS>BOND
     1    35    34    1
     2    33    34   ar
     3    33    32   ar
     4    34    30   ar
     5    32    31   ar
     6    30    31   ar
     7    30    29    1
     8    29    28    1
     9    28    25    1
    10    27    24    1
    11    24    25   am
    12    24     1    1
    13    25    26    2
    14     2     1    2
    15     2     3    1
    16     1     6    1
    17     3     4    2
    18    16    15    2
    19    16    17    1
    20     6     5    2
    21    15    14    1
    22     4     5    1
    23     4     7    1
    24    17    12    2
    25    14    13    2
    26     7     8    2
    27     7     9   am
    28    10     9    1
    29    12    13    1
    30    12    11    1
    31     9    11    1
    32    11    18    1
    33    18    19    2
    34    18    23    1
    35    19    20    1
    36    23    22    2
    37    20    21    2
    38    22    21    1
