@<TRIPOS>MOLECULE
6644_out_ligand_01.pdbqt
 33 37 0 0 0
SMALL
GASTEIGER

@<TRIPOS>ATOM
      1  C         19.0090  -23.7530   -8.1310 C.3     1  UNL1        0.2460
      2  N         18.2920  -23.1480   -9.2690 N.2     1  UNL1       -0.2350
      3  C         19.0230  -22.7440  -10.2430 C.2     1  UNL1        0.1730
      4  C         20.4530  -22.8670  -10.3280 C.ar    1  UNL1        0.0570
      5  C         21.0870  -23.5330   -9.3070 C.ar    1  UNL1        0.0870
      6  S         22.7730  -23.5920   -9.4960 S.2     1  UNL1       -0.0740
      7  C         22.6830  -22.7500  -10.9730 C.ar    1  UNL1        0.0200
      8  C         21.3860  -22.4010  -11.3060 C.ar    1  UNL1       -0.0240
      9  C         21.1160  -21.6420  -12.5680 C.3     1  UNL1        0.0710
     10  C         22.4150  -21.0150  -13.1270 C.3     1  UNL1        0.2780
     11  N         23.5420  -21.9750  -13.1520 N.3     1  UNL1        0.0970
     12  C         23.9040  -22.3970  -11.7730 C.3     1  UNL1        0.3190
     13  N         20.4210  -24.0760   -8.2680 N.pl3   1  UNL1       -0.3570
     14  H         20.9190  -24.2610   -7.4040 H       1  UNL1        0.1620
     15  C         18.7770  -22.9910   -6.8340 C.2     1  UNL1        0.0220
     16  C         19.4120  -21.7510   -6.6440 C.2     1  UNL1        0.0140
     17  C         19.2140  -21.0110   -5.4760 C.2     1  UNL1        0.0040
     18  C         18.3720  -21.4910   -4.4710 C.2     1  UNL1        0.0390
     19  C         17.7290  -22.7150   -4.6340 C.2     1  UNL1        0.1020
     20  C         17.9360  -23.4500   -5.8150 C.2     1  UNL1        0.1090
     21  O         16.8770  -23.3030   -3.7310 O.2     1  UNL1       -0.3530
     22  C         15.5880  -22.7170   -3.5930 C.3     1  UNL1        0.2100
     23  O         17.2780  -24.6470   -5.9480 O.2     1  UNL1       -0.3570
     24  H         17.1760  -24.7760   -6.9110 H       1  UNL1        0.2170
     25  O         18.3970  -22.1660  -11.2850 O.2     1  UNL1       -0.3440
     26  H         17.9240  -21.4010  -10.9210 H       1  UNL1        0.2190
     27  C         24.7000  -21.3850  -13.8400 C.3     1  UNL1        0.3110
     28  C         24.7320  -21.6790  -15.3260 C.2     1  UNL1       -0.0300
     29  C         24.5350  -22.9870  -15.7950 C.2     1  UNL1        0.0090
     30  C         24.5590  -23.2610  -17.1620 C.2     1  UNL1        0.0010
     31  C         24.7780  -22.2320  -18.0750 C.2     1  UNL1        0.0000
     32  C         24.9700  -20.9280  -17.6240 C.2     1  UNL1        0.0010
     33  C         24.9470  -20.6520  -16.2560 C.2     1  UNL1        0.0090
@<TRIPOS>BOND
     1    31    32    2
     2    31    30    1
     3    32    33    1
     4    30    29    2
     5    33    28    2
     6    29    28    1
     7    28    27    1
     8    27    11    1
     9    11    10    1
    10    11    12    1
    11    10     9    1
    12     9     8    1
    13    12     7    1
    14     8     7   ar
    15     8     4   ar
    16    25    26    1
    17    25     3    1
    18     7     6   ar
    19     4     3    1
    20     4     5   ar
    21     3     2    2
    22     6     5   ar
    23     5    13    1
    24     2     1    1
    25    13     1    1
    26    13    14    1
    27     1    15    1
    28    24    23    1
    29    15    16    2
    30    15    20    1
    31    16    17    1
    32    23    20    1
    33    20    19    2
    34    17    18    2
    35    19    18    1
    36    19    21    1
    37    21    22    1
