@<TRIPOS>MOLECULE
66447_out_ligand_01.pdbqt
 27 30 0 0 0
SMALL
GASTEIGER

@<TRIPOS>ATOM
      1  N         25.6690  -22.9060  -17.7360 N.1     1  UNL1       -0.1910
      2  C         25.4020  -22.9510  -16.6080 C.1     1  UNL1        0.1010
      3  C         25.0690  -23.0080  -15.2210 C.2     1  UNL1        0.0620
      4  C         24.3560  -21.9900  -14.5990 C.2     1  UNL1        0.0270
      5  C         24.0620  -22.0980  -13.2390 C.2     1  UNL1        0.0450
      6  C         24.4750  -23.2230  -12.5280 C.2     1  UNL1        0.1030
      7  N         25.1770  -24.2100  -13.1240 N.2     1  UNL1       -0.2470
      8  C         25.4560  -24.0880  -14.4460 C.2     1  UNL1        0.1410
      9  N         24.1930  -23.2790  -11.1570 N.pl3   1  UNL1       -0.2730
     10  H         24.9970  -23.6460  -10.6560 H       1  UNL1        0.1290
     11  C         23.7340  -22.0180  -10.5830 C.3     1  UNL1        0.1340
     12  C         22.4350  -22.2430   -9.8590 C.2     1  UNL1       -0.0270
     13  C         22.3480  -22.1870   -8.4690 C.2     1  UNL1        0.0130
     14  C         21.1230  -22.4180   -7.8440 C.2     1  UNL1        0.0450
     15  C         19.9890  -22.6990   -8.6110 C.2     1  UNL1        0.1050
     16  N         20.0690  -22.7690   -9.9570 N.2     1  UNL1       -0.2480
     17  C         21.2690  -22.5450  -10.5460 C.2     1  UNL1        0.1260
     18  N         18.7590  -22.9330   -7.9610 N.pl3   1  UNL1       -0.2630
     19  C         17.6000  -22.5280   -8.7700 C.3     1  UNL1        0.1020
     20  C         16.3250  -23.0920   -8.1370 C.3     1  UNL1        0.0540
     21  C         16.2280  -22.7560   -6.6700 C.2     1  UNL1       -0.0500
     22  C         14.9900  -22.8190   -6.0170 C.2     1  UNL1        0.0070
     23  C         17.3900  -22.4410   -5.9410 C.2     1  UNL1       -0.0380
     24  C         14.8970  -22.5410   -4.6550 C.2     1  UNL1        0.0010
     25  C         16.0390  -22.2080   -3.9320 C.2     1  UNL1        0.0010
     26  C         17.2780  -22.1570   -4.5700 C.2     1  UNL1        0.0090
     27  C         18.7510  -22.3500   -6.6080 C.3     1  UNL1        0.1360
@<TRIPOS>BOND
     1     1     2    3
     2     2     3    1
     3     3     4    2
     4     3     8    1
     5     4     5    1
     6     8     7    2
     7     5     6    2
     8     7     6    1
     9     6     9    1
    10     9    10    1
    11     9    11    1
    12    11    12    1
    13    17    16    1
    14    17    12    2
    15    16    15    2
    16    12    13    1
    17    19    20    1
    18    19    18    1
    19    15    18    1
    20    15    14    1
    21    13    14    2
    22    20    21    1
    23    18    27    1
    24    21    22    2
    25    21    23    1
    26    27    23    1
    27    22    24    1
    28    23    26    2
    29    24    25    2
    30    26    25    1
