@<TRIPOS>MOLECULE
66458_out_ligand_01.pdbqt
 35 38 0 0 0
SMALL
GASTEIGER

@<TRIPOS>ATOM
      1  C         18.7310  -21.9120  -10.7440 C.2     1  UNL1        0.0340
      2  C         18.9850  -20.8580  -11.6300 C.2     1  UNL1        0.0170
      3  C         20.2690  -20.6710  -12.1450 C.2     1  UNL1        0.0030
      4  C         21.3010  -21.5300  -11.7670 C.2     1  UNL1        0.0300
      5  C         21.0500  -22.5620  -10.8620 C.2     1  UNL1        0.0430
      6  C         19.7710  -22.7590  -10.3460 C.2     1  UNL1        0.0470
      7  N         22.1090  -23.4360  -10.5010 N.pl3   1  UNL1       -0.2810
      8  H         22.4190  -24.1260  -11.1870 H       1  UNL1        0.1790
      9  S         23.4110  -22.7880   -9.6420 S.O2    1  UNL1        0.2630
     10  O         24.0160  -23.8310   -8.8400 O.2     1  UNL1       -0.2000
     11  O         22.9290  -21.5660   -9.0350 O.2     1  UNL1       -0.2000
     12  C         24.5340  -22.3300  -10.9390 C.2     1  UNL1        0.0820
     13  C         25.3180  -21.1750  -10.7990 C.2     1  UNL1        0.0280
     14  C         26.2070  -20.7870  -11.8090 C.2     1  UNL1        0.0340
     15  C         26.2580  -21.6100  -12.9360 C.ar    1  UNL1        0.0760
     16  N         26.9810  -21.5630  -14.0970 N.ar    1  UNL1       -0.2800
     17  C         25.4870  -22.7540  -13.0960 C.ar    1  UNL1        0.1030
     18  N         26.6970  -22.5970  -14.9060 N.ar    1  UNL1        0.0030
     19  H         27.6650  -20.8810  -14.3990 H       1  UNL1        0.1840
     20  N         25.7740  -23.3350  -14.3020 N.ar    1  UNL1       -0.1580
     21  C         24.5920  -23.1330  -12.0900 C.2     1  UNL1        0.0600
     22  C         17.3490  -22.0910  -10.2320 C.2     1  UNL1        0.2510
     23  O         16.5270  -21.1910  -10.3550 O.2     1  UNL1       -0.2680
     24  N         17.0670  -23.3170   -9.6670 N.am    1  UNL1       -0.3570
     25  H         17.7350  -24.0720   -9.7560 H       1  UNL1        0.1620
     26  C         15.7470  -23.6410   -9.1620 C.3     1  UNL1        0.1250
     27  C         15.7780  -24.4450   -7.8670 C.3     1  UNL1        0.0460
     28  C         15.9380  -23.5820   -6.6180 C.3     1  UNL1        0.1690
     29  O         16.8800  -24.1960   -5.7320 O.3     1  UNL1       -0.3860
     30  C         17.9840  -23.3530   -5.3870 C.3     1  UNL1        0.1210
     31  C         18.5240  -22.6590   -6.6430 C.3     1  UNL1        0.0320
     32  C         19.5980  -21.6300   -6.3020 C.3     1  UNL1        0.0020
     33  C         19.0960  -20.6100   -5.2820 C.3     1  UNL1        0.0000
     34  C         18.5510  -21.2920   -4.0300 C.3     1  UNL1        0.0020
     35  C         17.4770  -22.3190   -4.3760 C.3     1  UNL1        0.0320
@<TRIPOS>BOND
     1    18    20   ar
     2    18    16   ar
     3    19    16    1
     4    20    17   ar
     5    16    15   ar
     6    17    15   ar
     7    17    21    1
     8    15    14    1
     9     3     4    2
    10     3     2    1
    11    21    12    2
    12    14    13    2
    13     4     5    1
    14     2     1    2
    15     8     7    1
    16    12    13    1
    17    12     9    1
    18     5     7    1
    19     5     6    2
    20     1     6    1
    21     1    22    1
    22     7     9    1
    23    23    22    2
    24    22    24   am
    25    25    24    1
    26    24    26    1
    27     9    11    2
    28     9    10    2
    29    26    27    1
    30    27    28    1
    31    31    32    1
    32    31    30    1
    33    28    29    1
    34    32    33    1
    35    29    30    1
    36    30    35    1
    37    33    34    1
    38    35    34    1
