@<TRIPOS>MOLECULE
6645_out_ligand_01.pdbqt
 32 36 0 0 0
SMALL
GASTEIGER

@<TRIPOS>ATOM
      1  C         23.0130  -22.6440  -11.8690 C.3     1  UNL1        0.2220
      2  N         22.0970  -21.5810  -12.1730 N.am    1  UNL1       -0.3310
      3  C         20.7890  -21.6040  -11.7600 C.2     1  UNL1        0.2560
      4  O         19.9390  -20.9050  -12.3020 O.2     1  UNL1       -0.2670
      5  C         20.5130  -22.4930  -10.6440 C.ar    1  UNL1        0.0730
      6  C         21.5580  -23.1720  -10.0590 C.ar    1  UNL1        0.0880
      7  S         21.0720  -24.1310   -8.7420 S.2     1  UNL1       -0.0740
      8  C         19.4480  -23.6560   -8.9370 C.ar    1  UNL1        0.0200
      9  C         19.2730  -22.7800   -9.9930 C.ar    1  UNL1       -0.0230
     10  C         17.9180  -22.2200  -10.3030 C.3     1  UNL1        0.0710
     11  C         16.8130  -22.9720   -9.5250 C.3     1  UNL1        0.2780
     12  N         17.1340  -23.3050   -8.1150 N.3     1  UNL1        0.0970
     13  C         18.3430  -24.1650   -8.0550 C.3     1  UNL1        0.3190
     14  N         22.8350  -23.0750  -10.4970 N.pl3   1  UNL1       -0.3580
     15  H         22.2790  -21.0020  -12.9770 H       1  UNL1        0.1650
     16  H         23.5170  -23.7440  -10.1580 H       1  UNL1        0.1620
     17  C         24.4630  -22.2890  -12.1370 C.2     1  UNL1        0.0180
     18  C         24.9380  -21.0400  -11.6830 C.2     1  UNL1        0.0330
     19  C         26.2550  -20.6500  -11.9170 C.2     1  UNL1        0.0110
     20  C         27.1210  -21.4880  -12.6080 C.2     1  UNL1        0.0220
     21 BR         26.8640  -18.9740  -11.2930 Br      1  UNL1       -0.0510
     22  C         26.6670  -22.7240  -13.0740 C.2     1  UNL1        0.0390
     23  C         25.3440  -23.1290  -12.8520 C.2     1  UNL1        0.0780
     24  O         24.8360  -24.3280  -13.2760 O.2     1  UNL1       -0.3550
     25  C         25.2360  -24.8060  -14.5520 C.3     1  UNL1        0.2100
     26  C         17.2730  -22.0890   -7.2950 C.3     1  UNL1        0.3110
     27  C         16.8980  -22.3060   -5.8430 C.2     1  UNL1       -0.0300
     28  C         15.5650  -22.5530   -5.4810 C.2     1  UNL1        0.0090
     29  C         15.2180  -22.7470   -4.1430 C.2     1  UNL1        0.0010
     30  C         16.1980  -22.6940   -3.1550 C.2     1  UNL1        0.0000
     31  C         17.5250  -22.4490   -3.5010 C.2     1  UNL1        0.0010
     32  C         17.8750  -22.2550   -4.8390 C.2     1  UNL1        0.0090
@<TRIPOS>BOND
     1    25    24    1
     2    24    23    1
     3    22    23    1
     4    22    20    2
     5    15     2    1
     6    23    17    2
     7    20    19    1
     8     4     3    2
     9     2     1    1
    10     2     3   am
    11    17     1    1
    12    17    18    1
    13    19    18    2
    14    19    21    1
    15     1    14    1
    16     3     5    1
    17     5     6   ar
    18     5     9   ar
    19    14    16    1
    20    14     6    1
    21    10     9    1
    22    10    11    1
    23     6     7   ar
    24     9     8   ar
    25    11    12    1
    26     8     7   ar
    27     8    13    1
    28    12    13    1
    29    12    26    1
    30    26    27    1
    31    27    28    2
    32    27    32    1
    33    28    29    1
    34    32    31    2
    35    29    30    2
    36    31    30    1
