@<TRIPOS>MOLECULE
66453_out_ligand_01.pdbqt
 30 32 0 0 0
SMALL
GASTEIGER

@<TRIPOS>ATOM
      1  N         25.0990  -22.7540  -10.6580 N.am    1  UNL1       -0.3300
      2  C         26.4080  -23.2710  -10.2750 C.3     1  UNL1        0.1550
      3  C         23.9910  -23.2860   -9.9820 C.2     1  UNL1        0.3230
      4  O         24.1290  -24.0390   -9.0210 O.2     1  UNL1       -0.2470
      5  N         22.7760  -22.9140  -10.5160 N.am    1  UNL1       -0.3080
      6  H         22.8140  -22.6960  -11.4950 H       1  UNL1        0.1700
      7  C         25.0280  -21.5410  -11.5060 C.3     1  UNL1        0.1170
      8  C         26.1600  -20.5300  -11.2770 C.3     1  UNL1        0.0370
      9  C         24.9230  -21.8640  -12.9970 C.2     1  UNL1       -0.0360
     10  C         25.3570  -23.0900  -13.5310 C.2     1  UNL1        0.0110
     11  C         25.2280  -23.3580  -14.8970 C.2     1  UNL1        0.0250
     12  C         24.6780  -22.3920  -15.7410 C.2     1  UNL1        0.0740
     13  C         24.2390  -21.1680  -15.2330 C.2     1  UNL1        0.0250
     14  C         24.3660  -20.9070  -13.8680 C.2     1  UNL1        0.0110
     15  S         24.5260  -22.7420  -17.4750 S.O2    1  UNL1        0.2390
     16  O         23.2860  -23.4530  -17.6920 O.2     1  UNL1       -0.2060
     17  O         25.7970  -23.2290  -17.9520 O.2     1  UNL1       -0.2060
     18  N         24.2820  -21.2000  -18.1080 N.3     1  UNL1       -0.2250
     19  H         24.7730  -20.5200  -17.5240 H       1  UNL1        0.1360
     20  H         24.5380  -21.1190  -19.0910 H       1  UNL1        0.1360
     21  C         21.4830  -23.1630   -9.9870 C.2     1  UNL1        0.0470
     22  C         21.3040  -24.0790   -8.9410 C.2     1  UNL1        0.0300
     23  C         20.0440  -24.3060   -8.3960 C.2     1  UNL1        0.0030
     24  C         18.9430  -23.6090   -8.8800 C.2     1  UNL1        0.0120
     25  C         19.0820  -22.6760   -9.9160 C.2     1  UNL1       -0.0240
     26  C         17.9480  -21.9880  -10.3790 C.2     1  UNL1        0.0120
     27  C         20.3570  -22.4330  -10.4930 C.2     1  UNL1        0.0010
     28  C         18.0410  -21.0570  -11.4110 C.2     1  UNL1        0.0010
     29  C         19.2720  -20.8070  -11.9980 C.2     1  UNL1        0.0010
     30  C         20.4090  -21.4820  -11.5490 C.2     1  UNL1        0.0140
@<TRIPOS>BOND
     1    20    18    1
     2    18    19    1
     3    18    15    1
     4    17    15    2
     5    16    15    2
     6    15    12    1
     7    12    13    2
     8    12    11    1
     9    13    14    1
    10    11    10    2
    11    14     9    2
    12    10     9    1
    13     9     7    1
    14    29    30    2
    15    29    28    1
    16    30    27    1
    17     7     8    1
    18     7     1    1
    19     6     5    1
    20    28    26    2
    21     1     2    1
    22     1     3   am
    23     5    21    1
    24     5     3   am
    25    27    21    2
    26    27    25    1
    27    26    25    1
    28    21    22    1
    29     3     4    2
    30    25    24    2
    31    22    23    2
    32    24    23    1
