@<TRIPOS>MOLECULE
6646_out_ligand_01.pdbqt
 28 32 0 0 0
SMALL
GASTEIGER

@<TRIPOS>ATOM
      1  O         19.2420  -20.6490  -12.3160 O.2     1  UNL1       -0.2670
      2  C         20.2740  -21.2260  -11.9910 C.2     1  UNL1        0.2560
      3  N         21.4540  -20.9900  -12.6530 N.am    1  UNL1       -0.3310
      4  C         22.5260  -21.9500  -12.6410 C.3     1  UNL1        0.2260
      5  N         22.7100  -22.4450  -11.2930 N.pl3   1  UNL1       -0.3580
      6  C         21.5860  -22.7350  -10.5980 C.ar    1  UNL1        0.0880
      7  S         21.5240  -23.8030   -9.2780 S.2     1  UNL1       -0.0740
      8  C         19.8520  -23.5430   -9.0860 C.ar    1  UNL1        0.0200
      9  C         19.3410  -22.6600  -10.0200 C.ar    1  UNL1       -0.0230
     10  C         20.3610  -22.1820  -10.8990 C.ar    1  UNL1        0.0730
     11  C         17.8930  -22.2890   -9.9940 C.3     1  UNL1        0.0710
     12  C         17.0800  -23.2830   -9.1320 C.3     1  UNL1        0.2780
     13  N         17.7310  -23.5640   -7.8310 N.3     1  UNL1        0.0970
     14  C         19.0420  -24.2350   -8.0260 C.3     1  UNL1        0.3190
     15  H         21.3570  -20.3940  -13.4600 H       1  UNL1        0.1650
     16  H         23.5330  -23.0230  -11.1550 H       1  UNL1        0.1620
     17  C         16.8450  -24.3760   -6.9820 C.3     1  UNL1        0.3110
     18  C         16.5460  -23.7470   -5.6380 C.2     1  UNL1       -0.0300
     19  C         17.5080  -23.7570   -4.6170 C.2     1  UNL1        0.0090
     20  C         17.2400  -23.1680   -3.3810 C.2     1  UNL1        0.0010
     21  C         16.0070  -22.5580   -3.1530 C.2     1  UNL1        0.0000
     22  C         15.0450  -22.5370   -4.1610 C.2     1  UNL1        0.0010
     23  C         15.3120  -23.1260   -5.3980 C.2     1  UNL1        0.0090
     24  C         23.7440  -21.3240  -13.2670 C.2     1  UNL1        0.0240
     25  C         23.8310  -20.6620  -14.4800 C.2     1  UNL1        0.0190
     26  C         25.1490  -20.1950  -14.7560 C.2     1  UNL1        0.0080
     27  C         26.0300  -20.5130  -13.7490 C.2     1  UNL1        0.0500
     28  S         25.2710  -21.3700  -12.4790 S.3     1  UNL1       -0.1020
@<TRIPOS>BOND
     1    26    25    1
     2    26    27    2
     3    25    24    2
     4    27    28    1
     5    15     3    1
     6    24     4    1
     7    24    28    1
     8     3     4    1
     9     3     2   am
    10     4     5    1
    11     1     2    2
    12     2    10    1
    13     5    16    1
    14     5     6    1
    15    10     6   ar
    16    10     9   ar
    17     6     7   ar
    18     9    11    1
    19     9     8   ar
    20    11    12    1
    21     7     8   ar
    22    12    13    1
    23     8    14    1
    24    14    13    1
    25    13    17    1
    26    17    18    1
    27    18    23    2
    28    18    19    1
    29    23    22    1
    30    19    20    2
    31    22    21    2
    32    20    21    1
