@<TRIPOS>MOLECULE
6647_out_ligand_01.pdbqt
 29 33 0 0 0
SMALL
GASTEIGER

@<TRIPOS>ATOM
      1  C         20.8860  -21.3980  -12.0160 C.2     1  UNL1        0.1730
      2  N         21.9810  -21.2850  -12.6760 N.2     1  UNL1       -0.2350
      3  C         23.0720  -22.1890  -12.2690 C.3     1  UNL1        0.2440
      4  N         23.0110  -22.7590  -10.9350 N.pl3   1  UNL1       -0.3570
      5  C         21.7820  -22.9360  -10.4100 C.ar    1  UNL1        0.0870
      6  S         21.4320  -23.9440   -9.0910 S.2     1  UNL1       -0.0740
      7  C         19.7840  -23.5110   -9.1430 C.ar    1  UNL1        0.0200
      8  C         19.5000  -22.6240  -10.1660 C.ar    1  UNL1       -0.0240
      9  C         20.6770  -22.2860  -10.9030 C.ar    1  UNL1        0.0570
     10  C         18.1030  -22.1230  -10.3590 C.3     1  UNL1        0.0710
     11  C         17.0860  -23.0000   -9.5900 C.3     1  UNL1        0.2780
     12  N         17.5190  -23.2790   -8.2020 N.3     1  UNL1        0.0970
     13  C         18.7720  -24.0780   -8.1880 C.3     1  UNL1        0.3190
     14  H         23.7590  -23.4010  -10.6910 H       1  UNL1        0.1620
     15  C         16.4490  -23.9680   -7.4620 C.3     1  UNL1        0.3110
     16  C         16.2790  -23.4760   -6.0410 C.2     1  UNL1       -0.0300
     17  C         17.2180  -23.8060   -5.0530 C.2     1  UNL1        0.0090
     18  C         17.0530  -23.3590   -3.7410 C.2     1  UNL1        0.0010
     19  C         15.9480  -22.5810   -3.4010 C.2     1  UNL1        0.0000
     20  C         15.0050  -22.2500   -4.3720 C.2     1  UNL1        0.0010
     21  C         15.1680  -22.6970   -5.6840 C.2     1  UNL1        0.0090
     22  O         19.8500  -20.6250  -12.3830 O.2     1  UNL1       -0.3440
     23  H         20.0720  -20.2570  -13.2540 H       1  UNL1        0.2190
     24  C         24.4070  -21.4970  -12.4280 C.2     1  UNL1        0.0030
     25  C         25.2790  -21.3050  -11.3500 C.2     1  UNL1        0.0140
     26  C         26.4960  -20.6600  -11.5510 C.2     1  UNL1        0.0200
     27  C         26.8060  -20.2230  -12.8270 C.2     1  UNL1        0.1160
     28  N         25.9950  -20.3870  -13.8930 N.2     1  UNL1       -0.2720
     29  C         24.8180  -21.0190  -13.6700 C.2     1  UNL1        0.1270
@<TRIPOS>BOND
     1    28    29    1
     2    28    27    2
     3    29    24    2
     4    23    22    1
     5    27    26    1
     6     2     3    1
     7     2     1    2
     8    24     3    1
     9    24    25    1
    10    22     1    1
    11     3     4    1
    12     1     9    1
    13    26    25    2
    14     4    14    1
    15     4     5    1
    16     9     5   ar
    17     9     8   ar
    18     5     6   ar
    19    10     8    1
    20    10    11    1
    21     8     7   ar
    22    11    12    1
    23     7     6   ar
    24     7    13    1
    25    12    13    1
    26    12    15    1
    27    15    16    1
    28    16    21    2
    29    16    17    1
    30    21    20    1
    31    17    18    2
    32    20    19    2
    33    18    19    1
