@<TRIPOS>MOLECULE
66478_out_ligand_01.pdbqt
 30 33 0 0 0
SMALL
GASTEIGER

@<TRIPOS>ATOM
      1  N         21.9070  -21.9950  -10.1690 N.am    1  UNL1       -0.3220
      2  C         21.5410  -23.0900   -9.4030 C.2     1  UNL1        0.2720
      3  O         22.2670  -24.0450   -9.1540 O.2     1  UNL1       -0.2660
      4  H         21.3000  -21.1900  -10.1210 H       1  UNL1        0.1690
      5  C         20.1940  -23.0010   -8.8650 C.2     1  UNL1        0.1020
      6  C         19.8250  -22.8190   -7.5430 C.2     1  UNL1        0.0500
      7  C         18.4020  -22.7960   -7.4550 C.2     1  UNL1        0.0040
      8  C         17.9260  -23.0010   -8.7500 C.2     1  UNL1        0.0440
      9  C         17.4610  -22.6290   -6.3970 C.2     1  UNL1       -0.0130
     10  C         16.5640  -23.0530   -9.0590 C.2     1  UNL1        0.0310
     11  N         19.0210  -23.1430   -9.5710 N.pl3   1  UNL1       -0.3510
     12  C         15.6520  -22.8840   -8.0110 C.2     1  UNL1        0.0140
     13  C         16.0750  -22.6740   -6.6920 C.2     1  UNL1       -0.0250
     14  C         15.1550  -22.5060   -5.6450 C.2     1  UNL1        0.0120
     15  C         15.5910  -22.3000   -4.3350 C.2     1  UNL1        0.0010
     16  C         16.9530  -22.2580   -4.0470 C.2     1  UNL1        0.0010
     17  C         17.8870  -22.4210   -5.0700 C.2     1  UNL1        0.0130
     18  H         18.9560  -23.3640  -10.5550 H       1  UNL1        0.1660
     19  C         23.1090  -21.8120  -10.8850 C.2     1  UNL1        0.0360
     20  C         23.0180  -21.7810  -12.2830 C.2     1  UNL1        0.0490
     21  C         24.1630  -21.6110  -13.0810 C.2     1  UNL1        0.0720
     22  C         25.4030  -21.4740  -12.4610 C.2     1  UNL1        0.1320
     23  C         25.5080  -21.5080  -11.0740 C.2     1  UNL1        0.0450
     24  F         26.5270  -21.3100  -13.1760 F       1  UNL1       -0.2050
     25  C         24.3640  -21.6800  -10.2880 C.2     1  UNL1        0.0320
     26  C         23.9870  -21.5920  -14.5560 C.2     1  UNL1        0.2520
     27  N         23.3450  -20.5280  -15.1200 N.am    1  UNL1       -0.3660
     28  H         23.2280  -20.5200  -16.1240 H       1  UNL1        0.1590
     29  H         22.9840  -19.7490  -14.5820 H       1  UNL1        0.1590
     30  O         24.4060  -22.5080  -15.2540 O.2     1  UNL1       -0.2680
@<TRIPOS>BOND
     1    28    27    1
     2    30    26    2
     3    27    29    1
     4    27    26   am
     5    26    21    1
     6    24    22    1
     7    21    22    2
     8    21    20    1
     9    22    23    1
    10    20    19    2
    11    23    25    2
    12    19    25    1
    13    19     1    1
    14    18    11    1
    15     1     4    1
    16     1     2   am
    17    11     5    1
    18    11     8    1
    19     2     3    2
    20     2     5    1
    21    10     8    1
    22    10    12    2
    23     5     6    2
    24     8     7    2
    25    12    13    1
    26     6     7    1
    27     7     9    1
    28    13     9    2
    29    13    14    1
    30     9    17    1
    31    14    15    2
    32    17    16    2
    33    15    16    1
