@<TRIPOS>MOLECULE
66496_out_ligand_01.pdbqt
 31 34 0 0 0
SMALL
GASTEIGER

@<TRIPOS>ATOM
      1  C         17.6670  -21.7070  -10.6520 C.2     1  UNL1       -0.0480
      2  C         18.2290  -20.4990  -11.0930 C.2     1  UNL1        0.0090
      3  C         19.5150  -20.4720  -11.6400 C.2     1  UNL1        0.0170
      4  C         20.2570  -21.6510  -11.7320 C.2     1  UNL1        0.0320
      5  C         19.6950  -22.8680  -11.3270 C.2     1  UNL1        0.0170
      6  C         18.4060  -22.8930  -10.7910 C.2     1  UNL1        0.0090
      7  C         16.2770  -21.7340  -10.0520 C.3     1  UNL1        0.1210
      8  S         15.8500  -23.3640   -9.3630 S.3     1  UNL1       -0.0860
      9  C         16.0080  -23.0640   -7.6690 C.ar    1  UNL1        0.1920
     10  N         15.3100  -22.2000   -6.9710 N.ar    1  UNL1       -0.1230
     11  N         15.7410  -22.2610   -5.6710 N.ar    1  UNL1       -0.1340
     12  C         16.7180  -23.1440   -5.6040 C.ar    1  UNL1        0.1270
     13  C         17.4910  -23.4980   -4.3910 C.3     1  UNL1        0.0930
     14  N         16.9230  -23.6850   -6.8560 N.ar    1  UNL1       -0.3070
     15  C         17.9410  -24.6500   -7.2270 C.3     1  UNL1        0.1710
     16  C         19.2480  -24.0150   -7.6410 C.2     1  UNL1       -0.0400
     17  C         19.5670  -22.6910   -7.2910 C.2     1  UNL1        0.0090
     18  C         20.7910  -22.1340   -7.6730 C.2     1  UNL1        0.0010
     19  C         21.7130  -22.8920   -8.3970 C.2     1  UNL1        0.0000
     20  C         21.4170  -24.2130   -8.7340 C.2     1  UNL1        0.0010
     21  C         20.1950  -24.7720   -8.3520 C.2     1  UNL1        0.0090
     22  C         21.6440  -21.5840  -12.2630 C.2     1  UNL1        0.2560
     23  O         21.8470  -20.9490  -13.2900 O.2     1  UNL1       -0.2670
     24  N         22.5740  -22.2560  -11.4890 N.am    1  UNL1       -0.3230
     25  H         22.2340  -22.6950  -10.6410 H       1  UNL1        0.1690
     26  C         23.9630  -22.3650  -11.7150 C.2     1  UNL1        0.0350
     27  C         24.5380  -23.2510  -12.6260 C.2     1  UNL1        0.0290
     28  C         25.9300  -23.2990  -12.7930 C.2     1  UNL1        0.0020
     29  C         26.7540  -22.4610  -12.0430 C.2     1  UNL1        0.0000
     30  C         26.1870  -21.5710  -11.1300 C.2     1  UNL1        0.0020
     31  C         24.7990  -21.5230  -10.9700 C.2     1  UNL1        0.0290
@<TRIPOS>BOND
     1    23    22    2
     2    28    27    1
     3    28    29    2
     4    27    26    2
     5    22     4    1
     6    22    24   am
     7    29    30    1
     8     4     3    2
     9     4     5    1
    10    26    24    1
    11    26    31    1
    12     3     2    1
    13    24    25    1
    14     5     6    2
    15    30    31    2
    16     2     1    2
    17     6     1    1
    18     1     7    1
    19     7     8    1
    20     8     9    1
    21    20    19    2
    22    20    21    1
    23    19    18    1
    24    21    16    2
    25    18    17    2
    26     9    10   ar
    27     9    14   ar
    28    16    17    1
    29    16    15    1
    30    15    14    1
    31    10    11   ar
    32    14    12   ar
    33    11    12   ar
    34    12    13    1
