@<TRIPOS>MOLECULE
6650_out_ligand_01.pdbqt
 39 44 0 0 0
SMALL
GASTEIGER

@<TRIPOS>ATOM
      1  C         21.6510  -23.4690   -9.9420 C.3     1  UNL1        0.2430
      2  N         23.0350  -23.6370   -9.4640 N.2     1  UNL1       -0.2350
      3  C         23.9510  -23.1870  -10.2410 C.2     1  UNL1        0.1730
      4  C         23.7220  -22.5000  -11.4830 C.ar    1  UNL1        0.0570
      5  C         22.4230  -22.1540  -11.7710 C.ar    1  UNL1        0.0870
      6  S         22.2640  -21.3250  -13.2440 S.2     1  UNL1       -0.0740
      7  C         23.9440  -21.4030  -13.5180 C.ar    1  UNL1        0.0200
      8  C         24.6170  -22.0710  -12.5100 C.ar    1  UNL1       -0.0240
      9  C         26.1050  -22.2310  -12.5790 C.3     1  UNL1        0.0710
     10  C         26.6370  -21.9240  -13.9990 C.3     1  UNL1        0.2780
     11  N         26.0540  -20.6830  -14.5580 N.3     1  UNL1        0.0970
     12  C         24.5900  -20.8290  -14.7450 C.3     1  UNL1        0.3190
     13  N         21.4060  -22.4400  -10.9380 N.pl3   1  UNL1       -0.3570
     14  H         20.4470  -22.3520  -11.2540 H       1  UNL1        0.1620
     15  C         20.7180  -23.2130   -8.7680 C.2     1  UNL1       -0.0120
     16  C         20.9460  -22.1330   -7.8940 C.2     1  UNL1        0.0110
     17  C         20.0850  -21.8830   -6.8220 C.2     1  UNL1        0.0030
     18  C         18.9850  -22.7100   -6.6040 C.2     1  UNL1        0.0370
     19  C         18.7680  -23.7910   -7.4550 C.2     1  UNL1        0.0800
     20  C         19.6080  -24.0420   -8.5410 C.2     1  UNL1        0.0480
     21  O         17.6200  -24.5650   -7.2400 O.3     1  UNL1       -0.2750
     22  C         16.4360  -23.9990   -7.6760 C.2     1  UNL1        0.2980
     23  O         15.9960  -23.9850   -8.8160 O.2     1  UNL1       -0.2590
     24  C         15.7270  -23.3720   -6.5260 C.2     1  UNL1        0.0420
     25  C         15.9810  -23.8780   -5.2400 C.2     1  UNL1        0.0180
     26  C         15.3410  -23.3360   -4.1230 C.2     1  UNL1        0.0040
     27  C         14.4430  -22.2850   -4.2850 C.2     1  UNL1        0.0420
     28  C         14.1940  -21.7850   -5.5590 C.2     1  UNL1        0.1170
     29  F         13.3280  -20.7750   -5.7090 F       1  UNL1       -0.2060
     30  C         14.8240  -22.3150   -6.6810 C.2     1  UNL1        0.0590
     31  O         25.2310  -23.3620   -9.8670 O.2     1  UNL1       -0.3440
     32  H         25.7450  -23.4590  -10.6850 H       1  UNL1        0.2190
     33  C         26.6780  -20.3070  -15.8350 C.3     1  UNL1        0.3110
     34  C         26.7180  -18.8100  -16.0670 C.2     1  UNL1       -0.0300
     35  C         26.4050  -18.2760  -17.3270 C.2     1  UNL1        0.0090
     36  C         26.4490  -16.8990  -17.5440 C.2     1  UNL1        0.0010
     37  C         26.8050  -16.0400  -16.5050 C.2     1  UNL1        0.0000
     38  C         27.1210  -16.5580  -15.2510 C.2     1  UNL1        0.0010
     39  C         27.0800  -17.9370  -15.0300 C.2     1  UNL1        0.0090
@<TRIPOS>BOND
     1    36    35    1
     2    36    37    2
     3    35    34    2
     4    37    38    1
     5    34    33    1
     6    34    39    1
     7    33    11    1
     8    38    39    2
     9    12    11    1
    10    12     7    1
    11    11    10    1
    12    10     9    1
    13     7     6   ar
    14     7     8   ar
    15     6     5   ar
    16     9     8    1
    17     8     4   ar
    18     5     4   ar
    19     5    13    1
    20     4     3    1
    21    14    13    1
    22    13     1    1
    23    32    31    1
    24     3    31    1
    25     3     2    2
    26     1     2    1
    27     1    15    1
    28    23    22    2
    29    15    20    2
    30    15    16    1
    31    20    19    1
    32    16    17    2
    33    22    21    1
    34    22    24    1
    35    19    21    1
    36    19    18    2
    37    17    18    1
    38    30    24    2
    39    30    28    1
    40    24    25    1
    41    29    28    1
    42    28    27    2
    43    25    26    2
    44    27    26    1
