@<TRIPOS>MOLECULE
6651_out_ligand_01.pdbqt
 30 34 0 0 0
SMALL
GASTEIGER

@<TRIPOS>ATOM
      1  C         22.1790  -22.2540  -11.6790 C.3     1  UNL1        0.2190
      2  N         21.2680  -21.1630  -11.9090 N.am    1  UNL1       -0.3320
      3  C         19.9410  -21.2580  -11.5680 C.2     1  UNL1        0.2560
      4  O         19.0940  -20.5540  -12.1060 O.2     1  UNL1       -0.2670
      5  C         19.6450  -22.2250  -10.5240 C.ar    1  UNL1        0.0730
      6  C         20.6860  -22.9210   -9.9500 C.ar    1  UNL1        0.0880
      7  S         20.1780  -23.9780   -8.7210 S.2     1  UNL1       -0.0740
      8  C         18.5510  -23.5280   -8.9420 C.ar    1  UNL1        0.0200
      9  C         18.3910  -22.5870   -9.9450 C.ar    1  UNL1       -0.0230
     10  C         17.0330  -22.0470  -10.2740 C.3     1  UNL1        0.0710
     11  C         15.9230  -22.8950   -9.6050 C.3     1  UNL1        0.2780
     12  N         16.1920  -23.3100   -8.2060 N.3     1  UNL1        0.0970
     13  C         17.4300  -24.1240   -8.1380 C.3     1  UNL1        0.3190
     14  N         21.9750  -22.7640  -10.3360 N.pl3   1  UNL1       -0.3580
     15  H         21.4460  -20.5620  -12.6990 H       1  UNL1        0.1650
     16  H         22.6510  -23.4620  -10.0460 H       1  UNL1        0.1620
     17  C         23.6170  -21.8040  -11.8600 C.2     1  UNL1       -0.0100
     18  C         24.4160  -21.5970  -10.7150 C.2     1  UNL1        0.0110
     19  C         25.7400  -21.1750  -10.8200 C.2     1  UNL1        0.0010
     20  C         26.2940  -20.9490  -12.0730 C.2     1  UNL1        0.0010
     21  C         25.5230  -21.1410  -13.2200 C.2     1  UNL1        0.0070
     22  C         24.1850  -21.5620  -13.1310 C.2     1  UNL1       -0.0520
     23  C         23.4030  -21.7420  -14.4050 C.3     1  UNL1        0.0490
     24  C         16.2390  -22.1490   -7.3000 C.3     1  UNL1        0.3110
     25  C         16.3810  -22.5310   -5.8400 C.2     1  UNL1       -0.0300
     26  C         17.5520  -22.2280   -5.1290 C.2     1  UNL1        0.0090
     27  C         17.6890  -22.6040   -3.7920 C.2     1  UNL1        0.0010
     28  C         16.6630  -23.2960   -3.1540 C.2     1  UNL1        0.0000
     29  C         15.4990  -23.6140   -3.8520 C.2     1  UNL1        0.0010
     30  C         15.3580  -23.2350   -5.1890 C.2     1  UNL1        0.0090
@<TRIPOS>BOND
     1    23    22    1
     2    21    22    1
     3    21    20    2
     4    22    17    2
     5    15     2    1
     6     4     3    2
     7    20    19    1
     8     2     1    1
     9     2     3   am
    10    17     1    1
    11    17    18    1
    12     1    14    1
    13     3     5    1
    14    19    18    2
    15     5     6   ar
    16     5     9   ar
    17    14    16    1
    18    14     6    1
    19    10     9    1
    20    10    11    1
    21     6     7   ar
    22     9     8   ar
    23    11    12    1
    24     8     7   ar
    25     8    13    1
    26    12    13    1
    27    12    24    1
    28    24    25    1
    29    25    30    2
    30    25    26    1
    31    30    29    1
    32    26    27    2
    33    29    28    2
    34    27    28    1
