@<TRIPOS>MOLECULE
66516_out_ligand_01.pdbqt
 32 36 0 0 0
SMALL
GASTEIGER

@<TRIPOS>ATOM
      1  C         19.2890  -20.6260  -11.6850 C.3     1  UNL1        0.1600
      2  N         19.4460  -21.7000  -10.7350 N.ar    1  UNL1       -0.3140
      3  C         18.4520  -22.3170  -10.0300 C.ar    1  UNL1        0.1910
      4  N         18.9600  -23.2420   -9.2510 N.ar    1  UNL1       -0.1220
      5  N         20.3200  -23.2110   -9.4060 N.ar    1  UNL1       -0.1310
      6  C         20.6180  -22.2770  -10.2960 C.ar    1  UNL1        0.1620
      7  S         16.7820  -21.8940  -10.1300 S.3     1  UNL1       -0.0810
      8  C         16.0260  -23.5460  -10.0130 C.3     1  UNL1        0.1850
      9  C         15.8560  -23.9410   -8.5510 C.2     1  UNL1        0.2310
     10  O         15.5790  -25.1000   -8.2540 O.2     1  UNL1       -0.2720
     11  N         16.0390  -22.8820   -7.6730 N.am    1  UNL1       -0.3260
     12  H         16.0760  -21.9650   -8.1050 H       1  UNL1        0.1690
     13  C         16.0060  -22.9010   -6.2520 C.2     1  UNL1        0.0450
     14  C         14.9820  -23.5630   -5.5600 C.2     1  UNL1        0.0300
     15  C         14.9410  -23.5700   -4.1700 C.2     1  UNL1        0.0030
     16  C         15.9310  -22.9220   -3.4420 C.2     1  UNL1        0.0120
     17  C         16.9820  -22.2620   -4.0920 C.2     1  UNL1       -0.0240
     18  C         17.9770  -21.6310   -3.3190 C.2     1  UNL1        0.0120
     19  C         17.0420  -22.2380   -5.5120 C.2     1  UNL1        0.0010
     20  C         19.0380  -20.9620   -3.9190 C.2     1  UNL1        0.0010
     21  C         19.1230  -20.9190   -5.3020 C.2     1  UNL1        0.0010
     22  C         18.1490  -21.5520   -6.0820 C.2     1  UNL1        0.0140
     23  C         21.9900  -21.8670  -10.7170 C.3     1  UNL1        0.2240
     24  C         22.8940  -21.5520   -9.5270 C.3     1  UNL1        0.2160
     25  O         24.1760  -21.0880   -9.9780 O.2     1  UNL1       -0.3450
     26  C         24.6660  -21.8780  -10.9870 C.2     1  UNL1        0.1020
     27  C         26.0180  -21.7320  -11.2950 C.2     1  UNL1        0.0390
     28  C         23.8800  -22.7880  -11.7000 C.2     1  UNL1        0.1030
     29  C         26.5900  -22.5180  -12.2960 C.2     1  UNL1        0.0030
     30  C         25.8110  -23.4460  -12.9900 C.2     1  UNL1        0.0030
     31  C         24.4550  -23.5850  -12.6900 C.2     1  UNL1        0.0400
     32  O         22.5360  -22.9580  -11.4770 O.2     1  UNL1       -0.3330
@<TRIPOS>BOND
     1    30    31    2
     2    30    29    1
     3    31    28    1
     4    29    27    2
     5    28    32    1
     6    28    26    2
     7     1     2    1
     8    32    23    1
     9    27    26    1
    10    26    25    1
    11     2     6   ar
    12     2     3   ar
    13    23     6    1
    14    23    24    1
    15     6     5   ar
    16     7     3    1
    17     7     8    1
    18     3     4   ar
    19     8     9    1
    20    25    24    1
    21     5     4   ar
    22     9    10    2
    23     9    11   am
    24    12    11    1
    25    11    13    1
    26    13    14    2
    27    13    19    1
    28    22    19    1
    29    22    21    2
    30    14    15    1
    31    19    17    2
    32    21    20    1
    33    15    16    2
    34    17    16    1
    35    17    18    1
    36    20    18    2
