@<TRIPOS>MOLECULE
66536_out_ligand_01.pdbqt
 34 37 0 0 0
SMALL
GASTEIGER

@<TRIPOS>ATOM
      1  O         22.2980  -23.3640   -8.8410 O.3     1  UNL1       -0.3070
      2  C         21.7700  -22.3130   -8.1450 C.2     1  UNL1        0.3180
      3  O         22.4340  -21.4400   -7.6020 O.2     1  UNL1       -0.2570
      4  C         20.3290  -22.4140   -8.1160 C.ar    1  UNL1        0.1580
      5  C         19.4010  -22.5340   -9.1450 C.ar    1  UNL1       -0.0090
      6  C         19.7000  -22.6090  -10.5980 C.3     1  UNL1        0.0520
      7  C         18.1160  -22.5650   -8.5200 C.ar    1  UNL1        0.0070
      8  C         18.3440  -22.4610   -7.1530 C.ar    1  UNL1        0.0980
      9  C         16.7850  -22.6670   -8.9670 C.2     1  UNL1        0.0160
     10  O         19.6810  -22.3660   -6.9110 O.2     1  UNL1       -0.3020
     11  C         17.3220  -22.4520   -6.1830 C.2     1  UNL1        0.0090
     12  C         17.6050  -22.3470   -4.8080 C.2     1  UNL1        0.0150
     13  C         15.9920  -22.5540   -6.6500 C.2     1  UNL1       -0.0230
     14  C         16.5570  -22.3410   -3.8910 C.2     1  UNL1        0.0010
     15  C         15.2380  -22.4400   -4.3360 C.2     1  UNL1        0.0010
     16  C         14.9560  -22.5460   -5.7020 C.2     1  UNL1        0.0120
     17  C         15.7400  -22.6610   -8.0280 C.2     1  UNL1        0.0130
     18  C         23.7110  -23.3030   -9.0510 C.3     1  UNL1        0.2820
     19  C         24.0740  -22.5000  -10.3030 C.2     1  UNL1        0.2460
     20  O         24.4480  -21.3340  -10.2180 O.2     1  UNL1       -0.2710
     21  N         23.8760  -23.2220  -11.4690 N.am    1  UNL1       -0.3250
     22  H         23.5380  -24.1720  -11.3410 H       1  UNL1        0.1690
     23  C         24.0960  -22.8050  -12.7940 C.2     1  UNL1        0.0340
     24  C         23.4390  -21.7280  -13.3930 C.2     1  UNL1        0.0310
     25  C         23.7130  -21.3720  -14.7190 C.2     1  UNL1        0.0270
     26  C         24.6610  -22.0950  -15.4430 C.2     1  UNL1        0.0740
     27  C         25.3180  -23.1830  -14.8660 C.2     1  UNL1        0.0270
     28  C         25.0350  -23.5320  -13.5430 C.2     1  UNL1        0.0310
     29  S         25.0110  -21.6530  -17.1240 S.O2    1  UNL1        0.2390
     30  O         24.1400  -22.4100  -17.9910 O.2     1  UNL1       -0.2060
     31  O         26.4440  -21.6160  -17.2990 O.2     1  UNL1       -0.2060
     32  N         24.4430  -20.0680  -17.1780 N.3     1  UNL1       -0.2250
     33  H         25.1730  -19.3730  -17.0280 H       1  UNL1        0.1360
     34  H         23.6810  -19.9700  -16.5030 H       1  UNL1        0.1360
@<TRIPOS>BOND
     1    30    29    2
     2    31    29    2
     3    32    29    1
     4    32    33    1
     5    32    34    1
     6    29    26    1
     7    26    27    2
     8    26    25    1
     9    27    28    1
    10    25    24    2
    11    28    23    2
    12    24    23    1
    13    23    21    1
    14    21    22    1
    15    21    19   am
    16     6     5    1
    17    19    20    2
    18    19    18    1
    19     5     7   ar
    20     5     4   ar
    21    18     1    1
    22     9     7    2
    23     9    17    1
    24     1     2    1
    25     7     8   ar
    26     2     4    1
    27     2     3    2
    28     4    10   ar
    29    17    13    2
    30     8    10   ar
    31     8    11    2
    32    13    11    1
    33    13    16    1
    34    11    12    1
    35    16    15    2
    36    12    14    2
    37    15    14    1
