@<TRIPOS>MOLECULE
66542_out_ligand_01.pdbqt
 32 35 0 0 0
SMALL
GASTEIGER

@<TRIPOS>ATOM
      1  N         26.8040  -24.5410  -12.2450 N.1     1  UNL1       -0.1910
      2  C         26.0820  -23.8450  -12.8310 C.1     1  UNL1        0.1020
      3  C         25.2870  -22.9340  -13.6090 C.2     1  UNL1        0.0710
      4  C         25.6750  -22.7420  -14.9470 C.2     1  UNL1        0.0250
      5  C         25.0790  -21.7550  -15.7330 C.2     1  UNL1        0.0020
      6  C         24.1050  -20.9330  -15.1800 C.2     1  UNL1        0.0020
      7  C         23.7060  -21.1170  -13.8540 C.2     1  UNL1        0.0310
      8  C         24.2570  -22.1430  -13.0670 C.2     1  UNL1        0.0550
      9  N         23.7390  -22.2530  -11.7560 N.am    1  UNL1       -0.3250
     10  C         24.2010  -21.5710  -10.6480 C.2     1  UNL1        0.2310
     11  O         25.2380  -20.9070  -10.6440 O.2     1  UNL1       -0.2720
     12  H         23.2360  -23.1090  -11.5300 H       1  UNL1        0.1690
     13  C         23.4290  -21.7760   -9.3490 C.3     1  UNL1        0.1850
     14  S         22.8300  -23.4700   -9.0730 S.3     1  UNL1       -0.0810
     15  C         21.0880  -23.1890   -9.2230 C.2     1  UNL1        0.1910
     16  N         20.2950  -23.7850   -8.3340 N.2     1  UNL1       -0.2040
     17  C         18.9730  -23.5630   -8.4290 C.3     1  UNL1        0.1430
     18  C         18.4330  -22.7180   -9.4180 C.2     1  UNL1        0.0390
     19  C         17.0570  -22.4080   -9.5700 C.2     1  UNL1        0.0180
     20  C         19.3640  -22.1500  -10.2990 C.2     1  UNL1        0.0730
     21  C         16.6190  -21.5720  -10.5940 C.2     1  UNL1        0.0010
     22  C         17.5460  -21.0350  -11.4770 C.2     1  UNL1        0.0020
     23  C         18.9030  -21.3270  -11.3190 C.2     1  UNL1        0.0320
     24  N         20.6800  -22.3670  -10.2010 N.pl3   1  UNL1       -0.2220
     25  N         18.0890  -24.2030   -7.5190 N.pl3   1  UNL1       -0.3400
     26  H         18.4100  -25.1520   -7.3580 H       1  UNL1        0.1670
     27  C         17.4750  -23.6730   -6.3610 C.2     1  UNL1        0.0330
     28  C         18.0550  -22.6630   -5.5850 C.2     1  UNL1        0.0290
     29  C         17.3820  -22.1200   -4.4850 C.2     1  UNL1        0.0020
     30  C         16.1030  -22.5630   -4.1590 C.2     1  UNL1        0.0000
     31  C         15.4930  -23.5380   -4.9420 C.2     1  UNL1        0.0020
     32  C         16.1690  -24.0790   -6.0390 C.2     1  UNL1        0.0290
@<TRIPOS>BOND
     1     5     6    2
     2     5     4    1
     3     6     7    1
     4     4     3    2
     5     7     8    2
     6     3     8    1
     7     3     2    1
     8     8     9    1
     9     2     1    3
    10     9    12    1
    11     9    10   am
    12    22    23    2
    13    22    21    1
    14    23    20    1
    15    10    11    2
    16    10    13    1
    17    21    19    2
    18    20    24    1
    19    20    18    2
    20    24    15    1
    21    19    18    1
    22    18    17    1
    23    13    14    1
    24    15    14    1
    25    15    16    2
    26    17    16    1
    27    17    25    1
    28    25    26    1
    29    25    27    1
    30    27    32    2
    31    27    28    1
    32    32    31    1
    33    28    29    2
    34    31    30    2
    35    29    30    1
