@<TRIPOS>MOLECULE
66554_out_ligand_01.pdbqt
 37 39 0 0 0
SMALL
GASTEIGER

@<TRIPOS>ATOM
      1  C         24.8750  -23.9060  -16.4190 C.3     1  UNL1        0.0500
      2  C         25.1130  -22.9040  -15.3220 C.2     1  UNL1       -0.0330
      3  C         24.5750  -21.6690  -15.3850 C.2     1  UNL1        0.0820
      4  C         24.8150  -20.6850  -14.3010 C.2     1  UNL1        0.2460
      5  O         24.3570  -19.5480  -14.3510 O.2     1  UNL1       -0.2680
      6  N         25.5780  -21.1300  -13.2560 N.am    1  UNL1       -0.3170
      7  C         26.1200  -22.3870  -13.1680 C.2     1  UNL1        0.0940
      8  C         25.9390  -23.2860  -14.1630 C.2     1  UNL1        0.0840
      9  C         26.5290  -24.5900  -14.1090 C.1     1  UNL1        0.1030
     10  N         27.0200  -25.6420  -14.0650 N.1     1  UNL1       -0.1910
     11  H         25.7650  -20.4600  -12.5180 H       1  UNL1        0.1690
     12  S         27.0410  -22.6620  -11.7230 S.3     1  UNL1       -0.1010
     13  C         25.7440  -23.3290  -10.6330 C.3     1  UNL1        0.1840
     14  C         24.5150  -22.4340  -10.6240 C.2     1  UNL1        0.2310
     15  O         24.6090  -21.2510  -10.3050 O.2     1  UNL1       -0.2720
     16  N         23.3580  -23.0980  -10.9950 N.am    1  UNL1       -0.3270
     17  H         23.4720  -24.0580  -11.3060 H       1  UNL1        0.1690
     18  C         22.0540  -22.5690  -11.0950 C.2     1  UNL1        0.0350
     19  C         21.5990  -21.8050  -12.1750 C.2     1  UNL1        0.0290
     20  C         20.2840  -21.3320  -12.2070 C.2     1  UNL1        0.0030
     21  C         19.4150  -21.5990  -11.1520 C.2     1  UNL1        0.0170
     22  C         19.8660  -22.3380  -10.0530 C.2     1  UNL1        0.0340
     23  C         21.1770  -22.8380  -10.0360 C.2     1  UNL1        0.0460
     24  C         18.9290  -22.5860   -8.9200 C.2     1  UNL1        0.2560
     25  O         17.9660  -23.3200   -9.1060 O.2     1  UNL1       -0.2670
     26  N         19.2390  -21.9000   -7.7600 N.am    1  UNL1       -0.3230
     27  H         19.9820  -21.2150   -7.8210 H       1  UNL1        0.1690
     28  C         18.5620  -21.9540   -6.5240 C.2     1  UNL1        0.0350
     29  C         19.1590  -21.2960   -5.4400 C.2     1  UNL1        0.0290
     30  C         18.5570  -21.2980   -4.1820 C.2     1  UNL1        0.0030
     31  C         17.3470  -21.9620   -3.9920 C.2     1  UNL1        0.0160
     32  C         16.7300  -22.6290   -5.0600 C.2     1  UNL1        0.0500
     33  C         17.3530  -22.6250   -6.3220 C.2     1  UNL1        0.0450
     34  C         15.4310  -23.3700   -4.8600 C.3     1  UNL1        0.4170
     35  F         15.3700  -24.0320   -3.6680 F       1  UNL1       -0.1660
     36  F         15.2190  -24.3170   -5.8180 F       1  UNL1       -0.1660
     37  F         14.3400  -22.5560   -4.8840 F       1  UNL1       -0.1660
@<TRIPOS>BOND
     1     1     2    1
     2     3     2    2
     3     3     4    1
     4     2     8    1
     5     5     4    2
     6     4     6   am
     7     8     9    1
     8     8     7    2
     9     9    10    3
    10     6     7    1
    11     6    11    1
    12     7    12    1
    13    20    19    1
    14    20    21    2
    15    19    18    2
    16    12    13    1
    17    17    16    1
    18    21    22    1
    19    18    16    1
    20    18    23    1
    21    16    14   am
    22    13    14    1
    23    14    15    2
    24    22    23    2
    25    22    24    1
    26    25    24    2
    27    24    26   am
    28    27    26    1
    29    26    28    1
    30    28    33    2
    31    28    29    1
    32    33    32    1
    33    36    34    1
    34    29    30    2
    35    32    34    1
    36    32    31    2
    37    37    34    1
    38    34    35    1
    39    30    31    1
