@<TRIPOS>MOLECULE
66569_out_ligand_01.pdbqt
 37 40 0 0 0
SMALL
GASTEIGER

@<TRIPOS>ATOM
      1  C         20.7920  -22.6680   -9.6750 C.2     1  UNL1        0.0340
      2  C         20.0600  -21.8120  -10.5110 C.2     1  UNL1        0.0170
      3  C         20.5590  -21.4500  -11.7620 C.2     1  UNL1        0.0030
      4  C         21.7920  -21.9400  -12.1850 C.2     1  UNL1        0.0300
      5  C         22.5110  -22.8060  -11.3660 C.2     1  UNL1        0.0430
      6  C         22.0150  -23.1840  -10.1180 C.2     1  UNL1        0.0470
      7  C         20.2260  -22.9960   -8.3340 C.2     1  UNL1        0.2560
      8  N         19.5400  -21.9710   -7.7130 N.am    1  UNL1       -0.3210
      9  H         19.4320  -21.0850   -8.1960 H       1  UNL1        0.1690
     10  O         20.3790  -24.1330   -7.9040 O.2     1  UNL1       -0.2670
     11  C         18.9400  -21.9770   -6.4320 C.2     1  UNL1        0.0570
     12  C         19.2650  -21.0790   -5.4150 C.2     1  UNL1        0.0310
     13  C         18.5870  -21.1240   -4.1900 C.2     1  UNL1        0.0020
     14  C         17.5720  -22.0590   -3.9770 C.2     1  UNL1        0.0020
     15  C         17.2440  -22.9660   -4.9810 C.2     1  UNL1        0.0270
     16  C         17.9340  -22.9370   -6.1980 C.2     1  UNL1        0.0490
     17  N         17.6090  -23.8800   -7.2390 N.pl3   1  UNL1       -0.1840
     18  H         18.3470  -23.9630   -7.9450 H       1  UNL1        0.1460
     19  S         16.1440  -23.6340   -8.0740 S.O2    1  UNL1        0.2100
     20  C         16.7100  -23.0990   -9.6780 C.3     1  UNL1        0.1800
     21  O         15.5310  -22.4990   -7.4130 O.2     1  UNL1       -0.2110
     22  O         15.4350  -24.8920   -8.1980 O.2     1  UNL1       -0.2110
     23  N         23.7970  -23.2490  -11.7800 N.pl3   1  UNL1       -0.2810
     24  H         24.0780  -24.1990  -11.5320 H       1  UNL1        0.1790
     25  S         25.0850  -22.1640  -11.5990 S.O2    1  UNL1        0.2630
     26  O         24.7330  -21.1610  -10.6160 O.2     1  UNL1       -0.2000
     27  O         26.2680  -22.9800  -11.4450 O.2     1  UNL1       -0.2000
     28  C         25.1690  -21.3960  -13.2020 C.2     1  UNL1        0.0820
     29  C         25.7160  -20.1120  -13.3210 C.2     1  UNL1        0.0280
     30  C         25.7770  -19.4720  -14.5660 C.2     1  UNL1        0.0340
     31  C         25.2690  -20.1830  -15.6580 C.ar    1  UNL1        0.0760
     32  N         25.1600  -19.9030  -16.9940 N.ar    1  UNL1       -0.2800
     33  C         24.7120  -21.4490  -15.5590 C.ar    1  UNL1        0.1030
     34  N         24.6020  -20.9180  -17.6740 N.ar    1  UNL1        0.0030
     35  H         25.4390  -19.0710  -17.5030 H       1  UNL1        0.1840
     36  N         24.3160  -21.8720  -16.8000 N.ar    1  UNL1       -0.1580
     37  C         24.6410  -22.0780  -14.3110 C.2     1  UNL1        0.0600
@<TRIPOS>BOND
     1    34    32   ar
     2    34    36   ar
     3    35    32    1
     4    32    31   ar
     5    36    33   ar
     6    31    33   ar
     7    31    30    1
     8    33    37    1
     9    30    29    2
    10    37    28    2
    11    29    28    1
    12    28    25    1
    13     4     3    2
    14     4     5    1
    15    23    25    1
    16    23    24    1
    17    23     5    1
    18     3     2    1
    19    25    27    2
    20    25    26    2
    21     5     6    2
    22     2     1    2
    23     6     1    1
    24    20    19    1
    25     1     7    1
    26     7    10    2
    27     7     8   am
    28    22    19    2
    29     9     8    1
    30    19    21    2
    31    19    17    1
    32    18    17    1
    33     8    11    1
    34    17    16    1
    35    11    16    2
    36    11    12    1
    37    16    15    1
    38    12    13    2
    39    15    14    2
    40    13    14    1
