@<TRIPOS>MOLECULE
66593_out_ligand_01.pdbqt
 28 31 0 0 0
SMALL
GASTEIGER

@<TRIPOS>ATOM
      1  N         23.5470  -23.6650  -10.5230 N.pl3   1  UNL1       -0.2890
      2  H         23.3230  -24.6290  -10.7610 H       1  UNL1        0.1280
      3  C         22.9110  -22.7560  -11.3750 C.2     1  UNL1        0.0090
      4  C         23.5170  -22.2050  -12.5080 C.2     1  UNL1        0.0230
      5  C         22.8080  -21.3580  -13.3630 C.2     1  UNL1        0.0030
      6  C         21.4660  -21.0690  -13.1160 C.2     1  UNL1        0.0150
      7  C         20.8140  -21.6410  -12.0180 C.2     1  UNL1        0.0130
      8  C         21.5490  -22.4860  -11.1680 C.2     1  UNL1        0.0380
      9  C         19.4030  -21.3860  -11.7250 C.2     1  UNL1        0.1610
     10  N         18.7080  -20.3070  -12.0390 N.2     1  UNL1       -0.1300
     11  N         17.4220  -20.4600  -11.5770 N.2     1  UNL1       -0.1430
     12  C         17.3550  -21.6220  -10.9800 C.2     1  UNL1        0.2330
     13  N         18.5660  -22.2360  -11.0450 N.pl3   1  UNL1       -0.3320
     14  H         18.8090  -23.1310  -10.6490 H       1  UNL1        0.1680
     15  C         23.5260  -23.4360   -9.0850 C.3     1  UNL1        0.1310
     16  C         22.0910  -23.3460   -8.6170 C.2     1  UNL1       -0.0450
     17  C         21.2070  -24.4200   -8.8010 C.2     1  UNL1        0.0110
     18  C         19.8870  -24.3350   -8.3530 C.2     1  UNL1        0.0380
     19  C         19.4390  -23.1690   -7.7270 C.2     1  UNL1        0.0780
     20  C         20.3170  -22.1090   -7.5080 C.2     1  UNL1        0.0380
     21  C         21.6350  -22.1940   -7.9560 C.2     1  UNL1        0.0110
     22  O         18.1600  -23.0370   -7.2410 O.2     1  UNL1       -0.2910
     23  C         18.0210  -23.0610   -5.8710 C.2     1  UNL1        0.1870
     24  C         17.7600  -24.2350   -5.1730 C.3     1  UNL1        0.1740
     25  N         17.5790  -24.2620   -3.8270 N.2     1  UNL1       -0.2670
     26  C         17.6550  -23.0580   -3.2160 C.2     1  UNL1        0.1350
     27  C         17.8970  -21.8850   -3.9140 C.3     1  UNL1        0.1380
     28  N         18.0790  -21.8580   -5.2550 N.2     1  UNL1       -0.2340
@<TRIPOS>BOND
     1     5     6    2
     2     5     4    1
     3     6     7    1
     4     4     3    2
     5    10     9    2
     6    10    11    1
     7     7     9    1
     8     7     8    2
     9     9    13    1
    10    11    12    2
    11     3     8    1
    12     3     1    1
    13    13    12    1
    14    13    14    1
    15     2     1    1
    16     1    15    1
    17    15    16    1
    18    17    16    2
    19    17    18    1
    20    16    21    1
    21    18    19    2
    22    21    20    2
    23    19    20    1
    24    19    22    1
    25    22    23    1
    26    23    28    2
    27    23    24    1
    28    28    27    1
    29    24    25    1
    30    27    26    1
    31    25    26    2
