@<TRIPOS>MOLECULE
665_out_ligand_01.pdbqt
 35 38 0 0 0
SMALL
GASTEIGER

@<TRIPOS>ATOM
      1  C         18.6090  -23.3740   -8.9660 C.2     1  UNL1        0.0750
      2  C         19.3630  -24.2920   -8.2300 C.2     1  UNL1        0.0250
      3  C         20.7070  -24.4820   -8.5420 C.2     1  UNL1        0.0030
      4  C         21.2950  -23.7620   -9.5870 C.2     1  UNL1        0.0170
      5  C         20.5360  -22.8470  -10.3320 C.2     1  UNL1        0.0330
      6  C         19.1890  -22.6400  -10.0040 C.2     1  UNL1        0.0410
      7  C         21.1090  -22.0560  -11.4590 C.2     1  UNL1        0.2510
      8  O         20.4190  -21.2120  -12.0210 O.2     1  UNL1       -0.2680
      9  N         22.4010  -22.3480  -11.8360 N.am    1  UNL1       -0.3540
     10  H         22.9190  -23.0840  -11.3840 H       1  UNL1        0.1620
     11  C         23.0730  -21.6390  -12.9130 C.3     1  UNL1        0.1530
     12  C         24.6140  -21.9190  -13.0370 C.3     1  UNL1        0.0430
     13  C         24.8680  -23.4600  -12.9500 C.3     1  UNL1        0.0320
     14  C         26.3420  -23.8440  -12.7750 C.3     1  UNL1        0.0020
     15  C         26.9770  -23.1540  -11.5750 C.3     1  UNL1        0.0000
     16  C         26.7590  -21.6480  -11.6140 C.3     1  UNL1        0.0020
     17  C         25.2740  -21.3150  -11.7510 C.3     1  UNL1        0.0320
     18  N         25.2390  -21.2930  -14.2470 N.3     1  UNL1       -0.4020
     19  C         24.9040  -21.9010  -15.5450 C.3     1  UNL1        0.1170
     20  C         25.0850  -20.9700  -16.7520 C.3     1  UNL1        0.0190
     21  C         26.3260  -20.1050  -16.5950 C.3     1  UNL1        0.0030
     22  C         26.2890  -19.3210  -15.2840 C.3     1  UNL1        0.0190
     23  C         25.2290  -19.8310  -14.2990 C.3     1  UNL1        0.1170
     24  S         16.9010  -23.1140   -8.5430 S.O2    1  UNL1        0.2450
     25  O         16.0900  -23.6050   -9.6350 O.2     1  UNL1       -0.2060
     26  O         16.7830  -21.7630   -8.0410 O.2     1  UNL1       -0.2060
     27  N         16.7370  -24.2380   -7.2670 N.pl3   1  UNL1       -0.1810
     28  H         15.9800  -24.8700   -7.5330 H       1  UNL1        0.1460
     29  C         16.4480  -23.6300   -5.9990 C.2     1  UNL1        0.0230
     30  C         15.1290  -23.5150   -5.5610 C.2     1  UNL1        0.0240
     31  C         14.8600  -22.8930   -4.3410 C.2     1  UNL1        0.0020
     32  C         15.9050  -22.3730   -3.5750 C.2     1  UNL1        0.0070
     33  C         17.2280  -22.4520   -4.0290 C.2     1  UNL1       -0.0600
     34  C         18.3520  -21.9050   -3.2020 C.3     1  UNL1        0.0480
     35  C         17.4920  -23.0920   -5.2470 C.2     1  UNL1        0.0310
@<TRIPOS>BOND
     1    20    21    1
     2    20    19    1
     3    21    22    1
     4    19    18    1
     5    22    23    1
     6    23    18    1
     7    18    12    1
     8    12    13    1
     9    12    11    1
    10    12    17    1
    11    13    14    1
    12    11     9    1
    13    14    15    1
    14     8     7    2
    15     9     7   am
    16     9    10    1
    17    17    16    1
    18    16    15    1
    19     7     5    1
    20     5     6    1
    21     5     4    2
    22     6     1    2
    23    25    24    2
    24     4     3    1
    25     1    24    1
    26     1     2    1
    27    24    26    2
    28    24    27    1
    29     3     2    2
    30    28    27    1
    31    27    29    1
    32    29    30    2
    33    29    35    1
    34    30    31    1
    35    35    33    2
    36    31    32    2
    37    33    32    1
    38    33    34    1
