@<TRIPOS>MOLECULE
66615_out_ligand_01.pdbqt
 32 35 0 0 0
SMALL
GASTEIGER

@<TRIPOS>ATOM
      1  C         22.8330  -23.6260   -9.4970 C.3     1  UNL1        0.1850
      2  C         21.5240  -23.8730   -8.7610 C.2     1  UNL1        0.2310
      3  O         21.0060  -24.9890   -8.7600 O.2     1  UNL1       -0.2720
      4  N         21.0300  -22.7440   -8.1310 N.am    1  UNL1       -0.3260
      5  H         21.4800  -21.8620   -8.3820 H       1  UNL1        0.1690
      6  C         19.8980  -22.6480   -7.2940 C.2     1  UNL1        0.0370
      7  C         19.8240  -21.5320   -6.4530 C.2     1  UNL1        0.0320
      8  C         18.7440  -21.3710   -5.5800 C.2     1  UNL1        0.0420
      9  C         17.7360  -22.3330   -5.5210 C.2     1  UNL1        0.1020
     10  C         17.7830  -23.4350   -6.3860 C.2     1  UNL1        0.1040
     11  O         16.7570  -22.0890   -4.5950 O.2     1  UNL1       -0.3480
     12  C         18.8730  -23.5970   -7.2510 C.2     1  UNL1        0.0690
     13  O         16.8300  -24.4230   -6.4630 O.2     1  UNL1       -0.3480
     14  C         15.4960  -23.9500   -6.2680 C.3     1  UNL1        0.1780
     15  C         15.1450  -23.9000   -4.7910 C.3     1  UNL1        0.0530
     16  C         16.2570  -23.2730   -3.9690 C.3     1  UNL1        0.1780
     17  S         23.2660  -21.8650   -9.4970 S.3     1  UNL1       -0.0810
     18  C         23.7520  -21.6310  -11.1360 C.ar    1  UNL1        0.1920
     19  N         24.9660  -21.3370  -11.5100 N.ar    1  UNL1       -0.1450
     20  N         24.8770  -21.2760  -12.8710 N.ar    1  UNL1       -0.2260
     21  C         23.5860  -21.5760  -13.2890 C.ar    1  UNL1        0.3440
     22  H         25.6730  -21.1440  -13.4830 H       1  UNL1        0.1940
     23  O         23.2100  -21.6740  -14.4440 O.2     1  UNL1       -0.2450
     24  N         22.8600  -21.7650  -12.1430 N.ar    1  UNL1       -0.2750
     25  C         21.4630  -22.1720  -12.1330 C.3     1  UNL1        0.1400
     26  C         20.5310  -20.9600  -12.0390 C.3     1  UNL1        0.0590
     27  C         19.1880  -21.3230  -11.4590 C.2     1  UNL1       -0.0570
     28  C         18.1330  -20.4000  -11.4730 C.2     1  UNL1        0.0070
     29  C         16.8900  -20.7410  -10.9380 C.2     1  UNL1        0.0010
     30  C         16.6900  -22.0060  -10.3860 C.2     1  UNL1        0.0000
     31  C         17.7290  -22.9350  -10.3740 C.2     1  UNL1        0.0010
     32  C         18.9720  -22.5980  -10.9120 C.2     1  UNL1        0.0070
@<TRIPOS>BOND
     1    23    21    2
     2    22    20    1
     3    21    20   ar
     4    21    24   ar
     5    20    19   ar
     6    24    25    1
     7    24    18   ar
     8    25    26    1
     9    26    27    1
    10    19    18   ar
    11    28    27    2
    12    28    29    1
    13    27    32    1
    14    18    17    1
    15    29    30    2
    16    32    31    2
    17    30    31    1
    18    17     1    1
    19     1     2    1
    20     2     3    2
    21     2     4   am
    22     5     4    1
    23     4     6    1
    24     6    12    2
    25     6     7    1
    26    12    10    1
    27    13    10    1
    28    13    14    1
    29     7     8    2
    30    10     9    2
    31    14    15    1
    32     8     9    1
    33     9    11    1
    34    15    16    1
    35    11    16    1
