@<TRIPOS>MOLECULE
6663_out_ligand_01.pdbqt
 31 35 0 0 0
SMALL
GASTEIGER

@<TRIPOS>ATOM
      1  C         24.2020  -22.7750  -11.8750 C.2     1  UNL1        0.1730
      2  N         24.9190  -22.2350  -12.7900 N.2     1  UNL1       -0.2350
      3  C         24.2510  -21.1910  -13.5970 C.3     1  UNL1        0.2440
      4  N         22.7950  -21.2140  -13.6440 N.pl3   1  UNL1       -0.3570
      5  C         22.1720  -21.6940  -12.5480 C.ar    1  UNL1        0.0870
      6  S         20.5450  -21.4040  -12.1620 S.2     1  UNL1       -0.0740
      7  C         20.6680  -22.3490  -10.7500 C.ar    1  UNL1        0.0200
      8  C         21.9290  -22.8950  -10.5830 C.ar    1  UNL1       -0.0240
      9  C         22.8130  -22.4900  -11.6300 C.ar    1  UNL1        0.0570
     10  C         22.2200  -23.7550   -9.3930 C.3     1  UNL1        0.0710
     11  C         20.9130  -24.2210   -8.7080 C.3     1  UNL1        0.2780
     12  N         19.9500  -23.1130   -8.5210 N.3     1  UNL1        0.0970
     13  C         19.5010  -22.5770   -9.8310 C.3     1  UNL1        0.3190
     14  H         22.3690  -20.4370  -14.1400 H       1  UNL1        0.1620
     15  C         24.7600  -21.2610  -15.0310 C.2     1  UNL1        0.0090
     16  C         24.4120  -22.3930  -15.8020 C.2     1  UNL1        0.0130
     17  C         24.8370  -22.5350  -17.1210 C.2     1  UNL1        0.0020
     18  C         25.6230  -21.5440  -17.7000 C.2     1  UNL1        0.0260
     19  C         25.9820  -20.4130  -16.9600 C.2     1  UNL1        0.0560
     20 CL         26.9610  -19.2300  -17.7640 Cl      1  UNL1       -0.0830
     21  C         25.5540  -20.2620  -15.6280 C.2     1  UNL1        0.0660
     22 CL         26.0040  -18.8390  -14.7360 Cl      1  UNL1       -0.0820
     23  O         24.7870  -23.6910  -11.0830 O.2     1  UNL1       -0.3440
     24  H         24.1710  -24.4380  -11.0190 H       1  UNL1        0.2190
     25  C         18.8010  -23.5670   -7.7190 C.3     1  UNL1        0.3110
     26  C         18.6030  -22.7750   -6.4430 C.2     1  UNL1       -0.0300
     27  C         19.2790  -21.5620   -6.2470 C.2     1  UNL1        0.0090
     28  C         19.1050  -20.8350   -5.0690 C.2     1  UNL1        0.0010
     29  C         18.2570  -21.3140   -4.0730 C.2     1  UNL1        0.0000
     30  C         17.5820  -22.5200   -4.2540 C.2     1  UNL1        0.0010
     31  C         17.7550  -23.2490   -5.4320 C.2     1  UNL1        0.0090
@<TRIPOS>BOND
     1    20    19    1
     2    18    17    2
     3    18    19    1
     4    17    16    1
     5    19    21    2
     6    16    15    2
     7    21    15    1
     8    21    22    1
     9    15     3    1
    10    14     4    1
    11     4     3    1
    12     4     5    1
    13     3     2    1
    14     2     1    2
    15     5     6   ar
    16     5     9   ar
    17     6     7   ar
    18     1     9    1
    19     1    23    1
    20     9     8   ar
    21    23    24    1
    22     7     8   ar
    23     7    13    1
    24     8    10    1
    25    13    12    1
    26    10    11    1
    27    11    12    1
    28    12    25    1
    29    25    26    1
    30    26    27    2
    31    26    31    1
    32    27    28    1
    33    31    30    2
    34    28    29    2
    35    30    29    1
