@<TRIPOS>MOLECULE
66641_out_ligand_01.pdbqt
 31 33 0 0 0
SMALL
GASTEIGER

@<TRIPOS>ATOM
      1  C         19.8480  -22.4500   -9.0960 C.2     1  UNL1        0.0350
      2  C         20.2950  -22.1460   -7.8090 C.2     1  UNL1        0.0300
      3  C         19.4500  -22.3030   -6.7080 C.2     1  UNL1        0.0150
      4  C         18.1320  -22.7650   -6.8610 C.2     1  UNL1       -0.0110
      5  C         17.6690  -23.0670   -8.1590 C.2     1  UNL1        0.0610
      6  C         18.5390  -22.9040   -9.2610 C.2     1  UNL1        0.0460
      7  N         20.7600  -22.2610  -10.1550 N.am    1  UNL1       -0.3230
      8  C         21.9250  -22.9670  -10.3940 C.2     1  UNL1        0.2560
      9  O         22.4120  -23.8410   -9.6870 O.2     1  UNL1       -0.2670
     10  H         20.5720  -21.4720  -10.7580 H       1  UNL1        0.1690
     11  C         22.6600  -22.5690  -11.6280 C.2     1  UNL1        0.0320
     12  C         22.0560  -21.6570  -12.5020 C.2     1  UNL1        0.0180
     13  C         22.7170  -21.2560  -13.6660 C.2     1  UNL1        0.0180
     14  C         23.9890  -21.7590  -13.9650 C.2     1  UNL1        0.0310
     15  C         24.6080  -22.6470  -13.0760 C.2     1  UNL1        0.0180
     16  C         23.9460  -23.0510  -11.9090 C.2     1  UNL1        0.0180
     17  C         24.6540  -21.2960  -15.2140 C.2     1  UNL1        0.2490
     18  N         23.9700  -20.4190  -16.0090 N.am    1  UNL1       -0.3660
     19  H         23.1840  -19.8820  -15.6730 H       1  UNL1        0.1590
     20  H         24.4970  -20.0300  -16.7820 H       1  UNL1        0.1590
     21  O         25.7860  -21.6550  -15.5100 O.2     1  UNL1       -0.2680
     22  C         16.2600  -23.5640   -8.3970 C.3     1  UNL1        0.4180
     23  F         15.3100  -22.6250   -8.1230 F       1  UNL1       -0.1660
     24  F         15.9470  -24.6580   -7.6460 F       1  UNL1       -0.1660
     25  F         16.0260  -23.9380   -9.6870 F       1  UNL1       -0.1660
     26  C         17.2940  -22.9130   -5.6660 C.2     1  UNL1       -0.0250
     27  C         16.1660  -22.1010   -5.4770 C.2     1  UNL1        0.0120
     28  C         15.3640  -22.2470   -4.3440 C.2     1  UNL1        0.0010
     29  C         15.6780  -23.2100   -3.3870 C.2     1  UNL1        0.0000
     30  C         16.7920  -24.0270   -3.5620 C.2     1  UNL1        0.0010
     31  C         17.5950  -23.8800   -4.6960 C.2     1  UNL1        0.0120
@<TRIPOS>BOND
     1    20    18    1
     2    18    19    1
     3    18    17   am
     4    21    17    2
     5    17    14    1
     6    14    13    2
     7    14    15    1
     8    13    12    1
     9    15    16    2
    10    12    11    2
    11    16    11    1
    12    11     8    1
    13    10     7    1
    14     8     7   am
    15     8     9    2
    16     7     1    1
    17    25    22    1
    18     6     1    2
    19     6     5    1
    20     1     2    1
    21    22     5    1
    22    22    23    1
    23    22    24    1
    24     5     4    2
    25     2     3    2
    26     4     3    1
    27     4    26    1
    28    26    27    2
    29    26    31    1
    30    27    28    1
    31    31    30    2
    32    28    29    2
    33    30    29    1
