@<TRIPOS>MOLECULE
66646_out_ligand_01.pdbqt
 33 36 0 0 0
SMALL
GASTEIGER

@<TRIPOS>ATOM
      1  C         19.3020  -22.4270  -10.3920 C.2     1  UNL1        0.0160
      2  C         19.7960  -21.7490  -11.5170 C.2     1  UNL1        0.0150
      3  C         19.0090  -20.8130  -12.1970 C.2     1  UNL1        0.0010
      4  C         17.7140  -20.5380  -11.7630 C.2     1  UNL1        0.0010
      5  C         17.2010  -21.2000  -10.6510 C.2     1  UNL1        0.0180
      6  C         17.9940  -22.1370   -9.9660 C.2     1  UNL1        0.0450
      7  C         20.1600  -23.3630   -9.6840 C.2     1  UNL1        0.1220
      8  O         19.5190  -24.4370   -9.1170 O.2     1  UNL1       -0.3010
      9  C         20.5130  -25.1590   -8.5370 C.2     1  UNL1        0.2590
     10  N         21.7160  -24.6430   -8.6410 N.2     1  UNL1       -0.2280
     11  C         21.5050  -23.4820   -9.3860 C.2     1  UNL1        0.1610
     12  C         22.6010  -22.5880   -9.7630 C.2     1  UNL1        0.2770
     13  N         23.3820  -23.1600  -10.7490 N.am    1  UNL1       -0.3210
     14  H         23.0560  -24.0780  -11.0350 H       1  UNL1        0.1690
     15  O         22.7700  -21.4980   -9.2310 O.2     1  UNL1       -0.2660
     16  C         24.5290  -22.6430  -11.3860 C.2     1  UNL1        0.0410
     17  C         25.8180  -22.8340  -10.8740 C.2     1  UNL1        0.0300
     18  C         26.9360  -22.3090  -11.5310 C.2     1  UNL1        0.0020
     19  C         26.7800  -21.5870  -12.7060 C.2     1  UNL1        0.0010
     20  C         25.5040  -21.3870  -13.2290 C.2     1  UNL1        0.0090
     21  C         24.3690  -21.9070  -12.5800 C.2     1  UNL1       -0.0350
     22  C         23.0190  -21.6560  -13.1960 C.3     1  UNL1        0.0500
     23  C         17.3880  -22.8400   -8.8080 C.2     1  UNL1        0.2570
     24  O         16.6580  -23.7990   -9.0200 O.2     1  UNL1       -0.2670
     25  N         17.7430  -22.2970   -7.5870 N.am    1  UNL1       -0.3230
     26  H         18.4110  -21.5350   -7.6090 H       1  UNL1        0.1690
     27  C         17.3300  -22.7240   -6.3090 C.2     1  UNL1        0.0370
     28  C         18.0480  -23.6260   -5.5180 C.2     1  UNL1        0.0290
     29  C         17.5730  -24.0060   -4.2570 C.2     1  UNL1        0.0050
     30  C         16.3740  -23.4860   -3.7770 C.2     1  UNL1        0.0420
     31  C         15.6620  -22.5920   -4.5640 C.2     1  UNL1        0.1180
     32  F         14.5070  -22.0880   -4.1090 F       1  UNL1       -0.2060
     33  C         16.1260  -22.2090   -5.8200 C.2     1  UNL1        0.0710
@<TRIPOS>BOND
     1    20    19    2
     2    20    21    1
     3    22    21    1
     4    19    18    1
     5    21    16    2
     6     3     4    2
     7     3     2    1
     8     4     5    1
     9    18    17    2
    10     2     1    2
    11    16    17    1
    12    16    13    1
    13    14    13    1
    14    13    12   am
    15     5     6    2
    16     1     6    1
    17     1     7    1
    18     6    23    1
    19    12    11    1
    20    12    15    2
    21     7    11    2
    22     7     8    1
    23    11    10    1
    24     8     9    1
    25    24    23    2
    26    23    25   am
    27    10     9    2
    28    26    25    1
    29    25    27    1
    30    27    33    2
    31    27    28    1
    32    33    31    1
    33    28    29    2
    34    31    32    1
    35    31    30    2
    36    29    30    1
