@<TRIPOS>MOLECULE
66659_out_ligand_01.pdbqt
 38 41 0 0 0
SMALL
GASTEIGER

@<TRIPOS>ATOM
      1  N         21.5640  -23.3080   -9.2260 N.3     1  UNL1        0.1040
      2  C         21.1290  -23.4210  -10.6330 C.3     1  UNL1        0.3120
      3  C         19.9740  -22.4910  -10.9720 C.2     1  UNL1       -0.0240
      4  C         20.1230  -21.3700  -11.8160 C.2     1  UNL1       -0.0540
      5  C         19.0120  -20.5480  -12.0660 C.2     1  UNL1        0.0080
      6  C         21.4380  -21.0200  -12.4560 C.3     1  UNL1        0.0490
      7  C         17.7690  -20.8240  -11.4940 C.2     1  UNL1        0.0070
      8  C         17.6050  -21.9330  -10.6630 C.2     1  UNL1       -0.0610
      9  C         16.2790  -22.2220  -10.0230 C.3     1  UNL1        0.0480
     10  C         18.7130  -22.7480  -10.3980 C.2     1  UNL1        0.0160
     11  C         20.7600  -24.1700   -8.3450 C.3     1  UNL1        0.3110
     12  C         19.7280  -23.3960   -7.5510 C.2     1  UNL1       -0.0290
     13  C         20.0510  -22.1690   -6.9590 C.2     1  UNL1        0.0090
     14  C         19.0960  -21.4680   -6.2220 C.2     1  UNL1        0.0010
     15  C         17.8080  -21.9850   -6.0700 C.2     1  UNL1        0.0160
     16  C         17.4580  -23.2090   -6.6600 C.2     1  UNL1        0.0480
     17  C         18.4280  -23.9070   -7.3950 C.2     1  UNL1        0.0250
     18  C         16.0740  -23.7840   -6.5020 C.3     1  UNL1        0.4170
     19  F         15.8850  -24.3700   -5.2870 F       1  UNL1       -0.1660
     20  F         15.0820  -22.8570   -6.6240 F       1  UNL1       -0.1660
     21  F         15.7970  -24.7440   -7.4280 F       1  UNL1       -0.1660
     22  C         23.0190  -23.5570   -9.1010 C.3     1  UNL1        0.3590
     23  C         23.9080  -22.8090  -10.0490 C.2     1  UNL1        0.1740
     24  N         24.6350  -23.2700  -11.0480 N.2     1  UNL1       -0.2190
     25  C         25.2310  -22.1450  -11.5960 C.2     1  UNL1        0.1490
     26  C         24.8370  -21.0430  -10.8640 C.2     1  UNL1        0.1810
     27  O         23.9940  -21.4520   -9.8760 O.2     1  UNL1       -0.3030
     28  C         26.1240  -22.1950  -12.7550 C.2     1  UNL1        0.2720
     29  O         26.8300  -21.2460  -13.0850 O.2     1  UNL1       -0.2660
     30  N         26.1340  -23.3860  -13.4500 N.am    1  UNL1       -0.3510
     31  H         25.5030  -24.1370  -13.2090 H       1  UNL1        0.1630
     32  C         26.9480  -23.5500  -14.6330 C.3     1  UNL1        0.1610
     33  C         26.1350  -23.2860  -15.8730 C.2     1  UNL1       -0.0410
     34  C         26.6340  -22.4770  -16.9050 C.2     1  UNL1        0.0090
     35  C         25.8600  -22.2240  -18.0400 C.2     1  UNL1        0.0010
     36  C         24.5810  -22.7690  -18.1520 C.2     1  UNL1        0.0000
     37  C         24.0750  -23.5740  -17.1330 C.2     1  UNL1        0.0010
     38  C         24.8480  -23.8300  -15.9990 C.2     1  UNL1        0.0090
@<TRIPOS>BOND
     1    36    35    2
     2    36    37    1
     3    35    34    1
     4    37    38    2
     5    34    33    2
     6    38    33    1
     7    33    32    1
     8    32    30    1
     9    30    31    1
    10    30    28   am
    11    29    28    2
    12    28    25    1
    13     6     4    1
    14     5     4    1
    15     5     7    2
    16     4     3    2
    17    25    24    1
    18    25    26    2
    19     7     8    1
    20    24    23    2
    21     3     2    1
    22     3    10    1
    23    26    27    1
    24     8    10    2
    25     8     9    1
    26     2     1    1
    27    23    27    1
    28    23    22    1
    29     1    22    1
    30     1    11    1
    31    11    12    1
    32    12    17    2
    33    12    13    1
    34    21    18    1
    35    17    16    1
    36    13    14    2
    37    16    18    1
    38    16    15    2
    39    20    18    1
    40    18    19    1
    41    14    15    1
