@<TRIPOS>MOLECULE
66655_out_ligand_01.pdbqt
 33 36 0 0 0
SMALL
GASTEIGER

@<TRIPOS>ATOM
      1  C         22.0210  -22.8850   -8.9960 C.2     1  UNL1        0.0320
      2  C         21.2270  -22.1080   -8.1430 C.2     1  UNL1        0.0200
      3  C         20.0520  -22.6340   -7.5980 C.2     1  UNL1        0.0380
      4  C         19.6650  -23.9400   -7.9040 C.2     1  UNL1        0.0780
      5  C         20.4780  -24.7310   -8.7220 C.2     1  UNL1        0.0380
      6  C         21.6510  -24.2070   -9.2710 C.2     1  UNL1        0.0200
      7  O         18.5320  -24.5550   -7.4180 O.2     1  UNL1       -0.2900
      8  C         17.5780  -23.7350   -6.8570 C.2     1  UNL1        0.2060
      9  N         17.7970  -23.3740   -5.5640 N.2     1  UNL1       -0.2330
     10  C         16.8330  -22.6060   -5.0090 C.2     1  UNL1        0.1380
     11  C         15.7010  -22.2200   -5.7050 C.2     1  UNL1        0.1370
     12  N         15.4700  -22.5870   -6.9860 N.2     1  UNL1       -0.2480
     13  C         16.4240  -23.3680   -7.5630 C.2     1  UNL1        0.1510
     14  S         16.0940  -23.8700   -9.2400 S.3     1  UNL1       -0.0660
     15  C         17.0610  -22.6670  -10.1340 C.2     1  UNL1        0.0070
     16  C         16.5510  -21.3790  -10.3290 C.2     1  UNL1        0.0190
     17  C         17.2930  -20.4260  -11.0270 C.2     1  UNL1        0.0010
     18  C         18.5450  -20.7570  -11.5430 C.2     1  UNL1        0.0000
     19  C         19.0540  -22.0430  -11.3660 C.2     1  UNL1        0.0010
     20  C         18.3120  -22.9960  -10.6670 C.2     1  UNL1        0.0190
     21  C         23.2600  -22.2790   -9.5600 C.2     1  UNL1        0.2510
     22  N         24.1550  -23.1510  -10.1390 N.am    1  UNL1       -0.3530
     23  H         23.8560  -24.0900  -10.3630 H       1  UNL1        0.1630
     24  O         23.4260  -21.0660   -9.5290 O.2     1  UNL1       -0.2680
     25  C         25.3250  -22.6470  -10.8200 C.3     1  UNL1        0.1610
     26  C         25.1900  -22.8350  -12.3070 C.2     1  UNL1       -0.0380
     27  C         25.5410  -24.0560  -12.8980 C.2     1  UNL1        0.0090
     28  C         25.3830  -24.2450  -14.2690 C.2     1  UNL1        0.0030
     29  C         24.8640  -23.2160  -15.0550 C.2     1  UNL1        0.0370
     30  C         24.5020  -21.9950  -14.4840 C.2     1  UNL1        0.0680
     31  C         24.6620  -21.8090  -13.1090 C.2     1  UNL1        0.0450
     32  O         24.0040  -21.0760  -15.3680 O.2     1  UNL1       -0.3560
     33  C         24.8310  -20.7260  -16.4690 C.3     1  UNL1        0.2100
@<TRIPOS>BOND
     1    33    32    1
     2    32    30    1
     3    29    30    2
     4    29    28    1
     5    30    31    1
     6    28    27    2
     7    31    26    2
     8    27    26    1
     9    26    25    1
    10    18    19    2
    11    18    17    1
    12    19    20    1
    13    17    16    2
    14    25    22    1
    15    20    15    2
    16    23    22    1
    17    16    15    1
    18    22    21   am
    19    15    14    1
    20    21    24    2
    21    21     1    1
    22     6     1    2
    23     6     5    1
    24    14    13    1
    25     1     2    1
    26     5     4    2
    27     2     3    2
    28     4     3    1
    29     4     7    1
    30    13    12    2
    31    13     8    1
    32     7     8    1
    33    12    11    1
    34     8     9    2
    35    11    10    2
    36     9    10    1
