@<TRIPOS>MOLECULE
66650_out_ligand_01.pdbqt
 36 41 0 0 0
SMALL
GASTEIGER

@<TRIPOS>ATOM
      1  C         23.4670  -22.6700  -11.5040 C.2     1  UNL1        0.0320
      2  C         23.3040  -23.2930  -10.2640 C.2     1  UNL1        0.0180
      3  C         22.0520  -23.2840   -9.6380 C.2     1  UNL1        0.0150
      4  C         20.9480  -22.6600  -10.2380 C.2     1  UNL1       -0.0080
      5  C         21.1210  -22.0510  -11.4890 C.2     1  UNL1        0.0150
      6  C         22.3700  -22.0620  -12.1220 C.2     1  UNL1        0.0180
      7  C         19.6530  -22.6460   -9.5580 C.2     1  UNL1        0.0620
      8  C         19.2800  -23.0330   -8.2840 C.2     1  UNL1        0.0660
      9  C         17.8890  -22.7740   -8.1850 C.2     1  UNL1        0.0900
     10  N         17.4120  -22.2750   -9.3300 N.2     1  UNL1       -0.1740
     11  N         18.4830  -22.2150  -10.1350 N.pl3   1  UNL1       -0.2770
     12  H         18.3450  -21.8810  -11.0810 H       1  UNL1        0.1890
     13  C         17.0350  -23.0040   -7.0260 C.2     1  UNL1        0.0050
     14  C         15.8940  -23.7990   -7.2090 C.2     1  UNL1        0.0150
     15  C         15.0540  -24.0780   -6.1370 C.2     1  UNL1        0.0020
     16  C         15.3490  -23.5680   -4.8740 C.2     1  UNL1        0.0120
     17  C         16.4830  -22.7660   -4.6640 C.2     1  UNL1       -0.0250
     18  C         16.7640  -22.2590   -3.3840 C.2     1  UNL1        0.0120
     19  C         17.3470  -22.4670   -5.7480 C.2     1  UNL1       -0.0130
     20  C         17.8840  -21.4610   -3.1560 C.2     1  UNL1        0.0010
     21  C         18.7380  -21.1550   -4.2070 C.2     1  UNL1        0.0010
     22  C         18.4740  -21.6500   -5.4850 C.2     1  UNL1        0.0130
     23  C         24.7810  -22.6360  -12.1990 C.2     1  UNL1        0.2520
     24  O         25.6550  -23.4390  -11.8950 O.2     1  UNL1       -0.2680
     25  N         24.9030  -21.6990  -13.2020 N.am    1  UNL1       -0.3480
     26  H         24.0510  -21.2900  -13.5630 H       1  UNL1        0.1630
     27  C         26.0390  -21.7060  -14.1170 C.3     1  UNL1        0.1180
     28  C         26.8580  -20.4170  -13.9500 C.3     1  UNL1        0.0300
     29  C         26.1550  -19.2200  -14.5840 C.3     1  UNL1        0.0070
     30  C         25.9770  -19.4350  -16.0850 C.3     1  UNL1        0.0390
     31  C         25.4660  -20.8090  -16.4430 C.2     1  UNL1       -0.0500
     32  C         24.9710  -21.0290  -17.7390 C.2     1  UNL1        0.0070
     33  C         25.5370  -21.8860  -15.5380 C.2     1  UNL1       -0.0290
     34  C         24.5320  -22.2940  -18.1310 C.2     1  UNL1        0.0010
     35  C         24.5910  -23.3560  -17.2360 C.2     1  UNL1        0.0010
     36  C         25.0900  -23.1550  -15.9500 C.2     1  UNL1        0.0100
@<TRIPOS>BOND
     1    34    32    1
     2    34    35    2
     3    32    31    2
     4    35    36    1
     5    31    30    1
     6    31    33    1
     7    30    29    1
     8    36    33    2
     9    33    27    1
    10    29    28    1
    11    27    28    1
    12    27    25    1
    13    26    25    1
    14    25    23   am
    15    23    24    2
    16    23     1    1
    17     6     1    2
    18     6     5    1
    19     1     2    1
    20     5     4    2
    21    12    11    1
    22     2     3    2
    23     4     3    1
    24     4     7    1
    25    11     7    1
    26    11    10    1
    27     7     8    2
    28    10     9    2
    29     8     9    1
    30     9    13    1
    31    14    13    2
    32    14    15    1
    33    13    19    1
    34    15    16    2
    35    19    22    1
    36    19    17    2
    37    22    21    2
    38    16    17    1
    39    17    18    1
    40    21    20    1
    41    18    20    2
