@<TRIPOS>MOLECULE
66663_out_ligand_01.pdbqt
 30 32 0 0 0
SMALL
GASTEIGER

@<TRIPOS>ATOM
      1  S         20.6000  -23.8030   -8.9800 S.O2    1  UNL1        0.2630
      2  O         19.4510  -24.6820   -8.9750 O.2     1  UNL1       -0.2000
      3  O         21.9390  -24.3510   -8.9410 O.2     1  UNL1       -0.2000
      4  C         20.4920  -22.6990  -10.3790 C.2     1  UNL1        0.0860
      5  C         19.3030  -22.0250  -10.7090 C.2     1  UNL1       -0.0390
      6  C         19.3190  -21.1670  -11.8180 C.2     1  UNL1        0.0090
      7  C         18.0300  -22.1460   -9.9180 C.3     1  UNL1        0.0500
      8  C         20.4790  -20.9960  -12.5830 C.2     1  UNL1        0.0150
      9  C         21.6640  -21.6680  -12.2630 C.2     1  UNL1        0.0010
     10  C         21.6570  -22.5170  -11.1480 C.2     1  UNL1        0.0400
     11  C         22.8650  -21.4800  -13.0710 C.2     1  UNL1        0.1130
     12  C         24.2100  -21.7010  -12.8820 C.2     1  UNL1        0.0690
     13  C         24.8160  -21.2870  -14.0900 C.2     1  UNL1        0.0610
     14  C         26.2510  -21.2950  -14.4520 C.3     1  UNL1        0.0720
     15  N         23.9050  -20.8440  -14.9610 N.2     1  UNL1       -0.1330
     16  O         22.6860  -20.9650  -14.3210 O.2     1  UNL1       -0.2120
     17  N         20.4800  -22.7500   -7.6560 N.pl3   1  UNL1       -0.2810
     18  H         21.3660  -22.7240   -7.1540 H       1  UNL1        0.1790
     19  C         19.2890  -22.7980   -6.8820 C.2     1  UNL1        0.0420
     20  C         18.5290  -23.9690   -6.8670 C.2     1  UNL1        0.0310
     21  C         17.3750  -24.0400   -6.0840 C.2     1  UNL1        0.0270
     22  C         16.9930  -22.9340   -5.3200 C.2     1  UNL1        0.0740
     23  C         17.7640  -21.7680   -5.3140 C.2     1  UNL1        0.0270
     24  C         18.9160  -21.7020   -6.1020 C.2     1  UNL1        0.0310
     25  S         15.5290  -23.0300   -4.3210 S.O2    1  UNL1        0.2390
     26  O         15.1170  -24.4100   -4.2420 O.2     1  UNL1       -0.2060
     27  O         15.7150  -22.2010   -3.1530 O.2     1  UNL1       -0.2060
     28  N         14.4160  -22.2110   -5.2840 N.3     1  UNL1       -0.2250
     29  H         14.7430  -22.0480   -6.2340 H       1  UNL1        0.1360
     30  H         14.1500  -21.3450   -4.8140 H       1  UNL1        0.1360
@<TRIPOS>BOND
     1    15    16    1
     2    15    13    2
     3    14    13    1
     4    16    11    1
     5    13    12    1
     6    11    12    2
     7    11     9    1
     8     8     9    2
     9     8     6    1
    10     9    10    1
    11     6     5    2
    12    10     4    2
    13     5     4    1
    14     5     7    1
    15     4     1    1
    16     1     2    2
    17     1     3    2
    18     1    17    1
    19    17    18    1
    20    17    19    1
    21    19    20    2
    22    19    24    1
    23    20    21    1
    24    29    28    1
    25    24    23    2
    26    21    22    2
    27    22    23    1
    28    22    25    1
    29    28    30    1
    30    28    25    1
    31    25    26    2
    32    25    27    2
