@<TRIPOS>MOLECULE
6667_out_ligand_01.pdbqt
 33 38 0 0 0
SMALL
GASTEIGER

@<TRIPOS>ATOM
      1  O         22.6010  -23.9850   -9.2420 O.2     1  UNL1       -0.2670
      2  C         22.2910  -23.2470  -10.1730 C.2     1  UNL1        0.2560
      3  N         23.2200  -22.8700  -11.1120 N.am    1  UNL1       -0.3310
      4  C         23.0500  -21.6720  -11.8940 C.3     1  UNL1        0.2200
      5  N         21.6840  -21.6170  -12.3870 N.pl3   1  UNL1       -0.3580
      6  C         20.7160  -21.9440  -11.4960 C.ar    1  UNL1        0.0880
      7  S         19.1000  -21.4310  -11.6120 S.2     1  UNL1       -0.0740
      8  C         18.6920  -22.2380  -10.1710 C.ar    1  UNL1        0.0200
      9  C         19.7660  -22.9090   -9.6140 C.ar    1  UNL1       -0.0230
     10  C         20.9530  -22.7300  -10.3900 C.ar    1  UNL1        0.0730
     11  C         19.6030  -23.6770   -8.3360 C.3     1  UNL1        0.0710
     12  C         18.1070  -23.8880   -7.9930 C.3     1  UNL1        0.2780
     13  N         17.3190  -22.6570   -8.1910 N.3     1  UNL1        0.0970
     14  C         17.2980  -22.2470   -9.6090 C.3     1  UNL1        0.3190
     15  H         24.1590  -23.1460  -10.8700 H       1  UNL1        0.1650
     16  H         21.4940  -20.8410  -13.0130 H       1  UNL1        0.1620
     17  C         24.0280  -21.6580  -13.0540 C.2     1  UNL1        0.0040
     18  C         23.5660  -22.0400  -14.3360 C.2     1  UNL1        0.0520
     19  C         24.4510  -22.0460  -15.3930 C.2     1  UNL1        0.1050
     20  C         25.7680  -21.7010  -15.2290 C.2     1  UNL1        0.1060
     21  O         24.1570  -22.3820  -16.6760 O.2     1  UNL1       -0.3230
     22  C         26.2730  -21.3360  -14.0020 C.2     1  UNL1        0.0590
     23  O         26.4710  -21.7740  -16.3910 O.2     1  UNL1       -0.3230
     24  C         25.3980  -21.3200  -12.9070 C.2     1  UNL1        0.0240
     25 BR         26.1590  -20.8420  -11.2310 Br      1  UNL1       -0.0500
     26  C         25.4430  -22.2070  -17.3050 C.3     1  UNL1        0.3520
     27  C         15.9850  -22.6960   -7.5810 C.3     1  UNL1        0.3110
     28  C         15.9150  -22.9280   -6.0860 C.2     1  UNL1       -0.0300
     29  C         15.0110  -23.8530   -5.5440 C.2     1  UNL1        0.0090
     30  C         14.9500  -24.0620   -4.1650 C.2     1  UNL1        0.0010
     31  C         15.7940  -23.3540   -3.3130 C.2     1  UNL1        0.0000
     32  C         16.7020  -22.4380   -3.8360 C.2     1  UNL1        0.0010
     33  C         16.7640  -22.2260   -5.2160 C.2     1  UNL1        0.0090
@<TRIPOS>BOND
     1    26    21    1
     2    26    23    1
     3    21    19    1
     4    23    20    1
     5    19    20    2
     6    19    18    1
     7    20    22    1
     8    18    17    2
     9    22    24    2
    10    17    24    1
    11    17     4    1
    12    16     5    1
    13    24    25    1
    14     5     4    1
    15     5     6    1
    16     4     3    1
    17     7     6   ar
    18     7     8   ar
    19     6    10   ar
    20     3    15    1
    21     3     2   am
    22    10     2    1
    23    10     9   ar
    24     2     1    2
    25     8     9   ar
    26     8    14    1
    27     9    11    1
    28    14    13    1
    29    11    12    1
    30    13    12    1
    31    13    27    1
    32    27    28    1
    33    28    29    2
    34    28    33    1
    35    29    30    1
    36    33    32    2
    37    30    31    2
    38    32    31    1
