@<TRIPOS>MOLECULE
66679_out_ligand_01.pdbqt
 33 36 0 0 0
SMALL
GASTEIGER

@<TRIPOS>ATOM
      1  C         19.5810  -22.2390  -10.7910 C.2     1  UNL1        0.0620
      2  C         19.8760  -21.4080  -11.8800 C.2     1  UNL1        0.0320
      3  C         21.1850  -21.2800  -12.3720 C.2     1  UNL1        0.0190
      4  C         22.2350  -21.9900  -11.7870 C.2     1  UNL1        0.0320
      5  C         21.9710  -22.8120  -10.6900 C.2     1  UNL1        0.0190
      6  C         20.6610  -22.9350  -10.2070 C.2     1  UNL1        0.0320
      7  N         18.2520  -22.3870  -10.2500 N.am    1  UNL1       -0.1950
      8  C         17.1250  -21.6910  -10.7200 C.2     1  UNL1        0.2680
      9  C         15.8530  -21.9430   -9.9960 C.2     1  UNL1        0.0810
     10  O         17.0620  -20.9040  -11.6630 O.2     1  UNL1       -0.2660
     11  C         15.7840  -22.7910   -8.9720 C.2     1  UNL1        0.0650
     12  C         17.0360  -23.4450   -8.6200 C.2     1  UNL1        0.1840
     13  N         18.1790  -23.2870   -9.1900 N.2     1  UNL1       -0.1390
     14  O         16.8130  -24.2720   -7.5720 O.2     1  UNL1       -0.3290
     15  C         17.9150  -24.5420   -6.6890 C.3     1  UNL1        0.2160
     16  C         17.9940  -23.4880   -5.6150 C.2     1  UNL1       -0.0340
     17  C         17.3960  -23.7020   -4.3660 C.2     1  UNL1        0.0090
     18  C         17.4520  -22.7190   -3.3780 C.2     1  UNL1        0.0010
     19  C         18.1080  -21.5140   -3.6270 C.2     1  UNL1        0.0070
     20  C         18.7210  -21.2840   -4.8640 C.2     1  UNL1       -0.0610
     21  C         19.3900  -19.9720   -5.1540 C.3     1  UNL1        0.0480
     22  C         18.6510  -22.2720   -5.8540 C.2     1  UNL1        0.0160
     23  C         23.6090  -21.8170  -12.3370 C.2     1  UNL1        0.2560
     24  O         24.5610  -22.0290  -11.5960 O.2     1  UNL1       -0.2670
     25  N         23.6620  -21.3890  -13.6520 N.am    1  UNL1       -0.3230
     26  H         22.7860  -21.1320  -14.0860 H       1  UNL1        0.1690
     27  C         24.8190  -21.1780  -14.4340 C.2     1  UNL1        0.0370
     28  C         25.3870  -19.8950  -14.3970 C.2     1  UNL1        0.0290
     29  C         26.5360  -19.5980  -15.1380 C.2     1  UNL1        0.0050
     30  C         27.1210  -20.5820  -15.9290 C.2     1  UNL1        0.0420
     31  C         26.5540  -21.8500  -15.9680 C.2     1  UNL1        0.1180
     32  F         27.1210  -22.7950  -16.7300 F       1  UNL1       -0.2060
     33  C         25.4140  -22.1570  -15.2300 C.2     1  UNL1        0.0710
@<TRIPOS>BOND
     1    32    31    1
     2    31    30    2
     3    31    33    1
     4    30    29    1
     5    33    27    2
     6    29    28    2
     7    27    28    1
     8    27    25    1
     9    26    25    1
    10    25    23   am
    11     3     2    1
    12     3     4    2
    13    23     4    1
    14    23    24    2
    15     2     1    2
    16     4     5    1
    17    10     8    2
    18     1     7    1
    19     1     6    1
    20     8     7   am
    21     8     9    1
    22     5     6    2
    23     7    13    1
    24     9    11    2
    25    13    12    2
    26    11    12    1
    27    12    14    1
    28    14    15    1
    29    15    16    1
    30    22    16    2
    31    22    20    1
    32    16    17    1
    33    21    20    1
    34    20    19    2
    35    17    18    2
    36    19    18    1
