@<TRIPOS>MOLECULE
66676_out_ligand_01.pdbqt
 29 31 0 0 0
SMALL
GASTEIGER

@<TRIPOS>ATOM
      1  C         21.0020  -23.1550   -8.3810 C.2     1  UNL1        0.0320
      2  C         20.1030  -24.2270   -8.4210 C.2     1  UNL1        0.0180
      3  C         18.9570  -24.2080   -7.6190 C.2     1  UNL1        0.0150
      4  C         18.6860  -23.1280   -6.7610 C.2     1  UNL1       -0.0050
      5  C         19.6170  -22.0790   -6.7030 C.2     1  UNL1        0.0150
      6  C         20.7630  -22.0900   -7.5050 C.2     1  UNL1        0.0180
      7  C         22.2400  -23.1240   -9.2160 C.2     1  UNL1        0.2560
      8  N         22.3310  -22.0560  -10.0910 N.am    1  UNL1       -0.3230
      9  H         21.6180  -21.3430  -10.0280 H       1  UNL1        0.1690
     10  O         23.0780  -23.9990   -9.0390 O.2     1  UNL1       -0.2670
     11  C         23.3620  -21.7960  -11.0190 C.2     1  UNL1        0.0370
     12  C         24.6770  -21.5030  -10.6640 C.2     1  UNL1        0.0290
     13  C         25.6380  -21.2640  -11.6520 C.2     1  UNL1        0.0050
     14  C         25.2930  -21.3160  -13.0030 C.2     1  UNL1        0.0370
     15  C         23.9840  -21.6100  -13.3730 C.2     1  UNL1        0.0700
     16  C         23.0270  -21.8500  -12.3790 C.2     1  UNL1        0.0660
     17  O         23.5080  -21.6960  -14.6530 O.2     1  UNL1       -0.3560
     18  C         24.3470  -22.3360  -15.6080 C.3     1  UNL1        0.2100
     19  C         17.4730  -23.1270   -5.9220 C.2     1  UNL1        0.0930
     20  N         17.6930  -23.5870   -4.6600 N.2     1  UNL1       -0.2580
     21  C         16.6500  -23.5900   -3.8060 C.2     1  UNL1        0.1170
     22  C         15.3830  -23.1620   -4.1490 C.2     1  UNL1        0.0220
     23  C         15.1630  -22.7110   -5.4490 C.2     1  UNL1        0.0330
     24  C         16.2080  -22.6910   -6.3740 C.2     1  UNL1        0.0640
     25  N         16.0330  -22.2840   -7.7240 N.am    1  UNL1       -0.3250
     26  C         15.7620  -23.0800   -8.8210 C.2     1  UNL1        0.2180
     27  C         15.6660  -22.2800  -10.0960 C.3     1  UNL1        0.1170
     28  O         15.6260  -24.2980   -8.8320 O.2     1  UNL1       -0.2740
     29  H         16.1460  -21.2940   -7.9050 H       1  UNL1        0.1690
@<TRIPOS>BOND
     1    18    17    1
     2    17    15    1
     3    15    14    2
     4    15    16    1
     5    14    13    1
     6    16    11    2
     7    13    12    2
     8    11    12    1
     9    11     8    1
    10    27    26    1
    11     8     9    1
    12     8     7   am
    13     7    10    2
    14     7     1    1
    15    28    26    2
    16    26    25   am
    17     2     1    2
    18     2     3    1
    19     1     6    1
    20    29    25    1
    21    25    24    1
    22     3     4    2
    23     6     5    2
    24     4     5    1
    25     4    19    1
    26    24    19    2
    27    24    23    1
    28    19    20    1
    29    23    22    2
    30    20    21    2
    31    22    21    1
