@<TRIPOS>MOLECULE
66670_out_ligand_01.pdbqt
 40 44 0 0 0
SMALL
GASTEIGER

@<TRIPOS>ATOM
      1  C         20.6050  -22.0860  -11.1630 C.2     1  UNL1        0.0320
      2  C         21.1560  -21.6050  -12.3570 C.2     1  UNL1        0.0170
      3  C         22.4890  -21.8770  -12.6750 C.2     1  UNL1        0.0090
      4  C         23.2880  -22.6390  -11.8080 C.2     1  UNL1       -0.0480
      5  C         22.7190  -23.1420  -10.6290 C.2     1  UNL1        0.0090
      6  C         21.3860  -22.8700  -10.3070 C.2     1  UNL1        0.0170
      7  C         24.7300  -22.9310  -12.1530 C.3     1  UNL1        0.1210
      8  S         25.8990  -22.0680  -11.0640 S.3     1  UNL1       -0.0850
      9  C         26.1700  -20.5930  -11.9420 C.ar    1  UNL1        0.1970
     10  N         26.4630  -19.4400  -11.3830 N.ar    1  UNL1       -0.1220
     11  N         26.8140  -18.5670  -12.3760 N.ar    1  UNL1       -0.1260
     12  C         26.6730  -19.1840  -13.5350 C.ar    1  UNL1        0.1930
     13  N         26.2680  -20.4960  -13.3220 N.ar    1  UNL1       -0.2670
     14  C         26.8450  -18.5150  -14.7900 C.2     1  UNL1        0.1230
     15  C         27.0260  -19.0440  -16.0610 C.2     1  UNL1        0.0430
     16  C         27.1210  -17.9550  -16.9620 C.2     1  UNL1        0.0270
     17  C         26.9810  -16.8210  -16.1990 C.2     1  UNL1        0.1420
     18  O         26.8110  -17.1460  -14.8940 O.2     1  UNL1       -0.3190
     19  C         26.1000  -21.5150  -14.2910 C.2     1  UNL1        0.0820
     20  C         27.1120  -22.4650  -14.4950 C.2     1  UNL1        0.0330
     21  C         26.9320  -23.4740  -15.4460 C.2     1  UNL1        0.0020
     22  C         25.7550  -23.5360  -16.1940 C.2     1  UNL1        0.0030
     23  C         24.7560  -22.5810  -16.0010 C.2     1  UNL1        0.0440
     24  C         24.9330  -21.5750  -15.0550 C.2     1  UNL1        0.1430
     25  F         23.9950  -20.6230  -14.9610 F       1  UNL1       -0.2040
     26  C         19.1860  -21.7590  -10.8530 C.2     1  UNL1        0.2510
     27  O         18.6950  -20.7070  -11.2470 O.2     1  UNL1       -0.2680
     28  N         18.5080  -22.6820  -10.0840 N.am    1  UNL1       -0.3530
     29  H         19.0360  -23.4030   -9.6160 H       1  UNL1        0.1630
     30  C         17.1790  -22.4120   -9.5830 C.3     1  UNL1        0.1610
     31  C         17.1620  -22.4330   -8.0750 C.2     1  UNL1       -0.0400
     32  C         18.3670  -22.4680   -7.3590 C.2     1  UNL1        0.0090
     33  C         18.3640  -22.5120   -5.9650 C.2     1  UNL1        0.0010
     34  C         17.1550  -22.5310   -5.2700 C.2     1  UNL1        0.0160
     35  C         15.9340  -22.5170   -5.9630 C.2     1  UNL1        0.0480
     36  C         15.9500  -22.4610   -7.3670 C.2     1  UNL1        0.0250
     37  C         14.6220  -22.5320   -5.2150 C.3     1  UNL1        0.4170
     38  F         14.7590  -22.1380   -3.9170 F       1  UNL1       -0.1660
     39  F         14.0360  -23.7630   -5.1730 F       1  UNL1       -0.1660
     40  F         13.6910  -21.7010   -5.7600 F       1  UNL1       -0.1660
@<TRIPOS>BOND
     1    16    17    2
     2    16    15    1
     3    17    18    1
     4    22    23    2
     5    22    21    1
     6    15    14    2
     7    23    24    1
     8    21    20    2
     9    24    25    1
    10    24    19    2
    11    18    14    1
    12    14    12    1
    13    20    19    1
    14    19    13    1
    15    12    13   ar
    16    12    11   ar
    17    13     9   ar
    18     3     2    1
    19     3     4    2
    20    11    10   ar
    21     2     1    2
    22     7     4    1
    23     7     8    1
    24     9    10   ar
    25     9     8    1
    26     4     5    1
    27    27    26    2
    28     1    26    1
    29     1     6    1
    30    26    28   am
    31     5     6    2
    32    28    29    1
    33    28    30    1
    34    30    31    1
    35    31    36    2
    36    31    32    1
    37    36    35    1
    38    32    33    2
    39    33    34    1
    40    35    34    2
    41    35    37    1
    42    40    37    1
    43    37    39    1
    44    37    38    1
