@<TRIPOS>MOLECULE
66687_out_ligand_01.pdbqt
 36 39 0 0 0
SMALL
GASTEIGER

@<TRIPOS>ATOM
      1  C         20.1380  -22.5320   -8.9450 C.2     1  UNL1        0.0780
      2  C         21.1240  -23.3480   -8.3860 C.2     1  UNL1        0.0390
      3  C         22.2780  -23.6440   -9.1160 C.2     1  UNL1        0.0330
      4  C         22.4520  -23.1130  -10.3940 C.2     1  UNL1        0.0420
      5  C         21.4820  -22.2690  -10.9360 C.2     1  UNL1        0.0330
      6  C         20.3270  -21.9740  -10.2100 C.2     1  UNL1        0.0390
      7  O         19.0060  -22.1580   -8.2610 O.2     1  UNL1       -0.2910
      8  C         17.8150  -22.7720   -8.6200 C.2     1  UNL1        0.1850
      9  N         17.4050  -22.6310   -9.9100 N.2     1  UNL1       -0.2360
     10  C         16.2380  -23.2110  -10.2550 C.2     1  UNL1        0.1190
     11  C         15.4460  -23.9220   -9.3710 C.2     1  UNL1        0.0200
     12  C         15.8760  -24.0380   -8.0500 C.2     1  UNL1        0.0230
     13  C         17.0790  -23.4440   -7.6450 C.2     1  UNL1        0.0850
     14  C         17.4840  -23.5960   -6.2220 C.2     1  UNL1        0.2560
     15  N         17.4590  -22.4760   -5.4180 N.am    1  UNL1       -0.3530
     16  H         17.1010  -21.6040   -5.7930 H       1  UNL1        0.1630
     17  O         17.7930  -24.7080   -5.8020 O.2     1  UNL1       -0.2680
     18  C         17.7110  -22.5480   -3.9810 C.3     1  UNL1        0.0800
     19  C         18.5380  -21.3380   -3.5510 C.3     1  UNL1        0.0320
     20  C         16.3770  -22.6460   -3.2200 C.3     1  UNL1        0.0200
     21  C         15.1620  -22.3730   -4.0920 C.3     1  UNL1        0.0070
     22  N         23.6330  -23.4420  -11.1130 N.pl3   1  UNL1       -0.2810
     23  H         23.5350  -23.9590  -11.9850 H       1  UNL1        0.1790
     24  S         24.9160  -22.3460  -11.1790 S.O2    1  UNL1        0.2630
     25  O         24.5830  -21.1650  -10.4100 O.2     1  UNL1       -0.2000
     26  O         26.1090  -23.1160  -10.8850 O.2     1  UNL1       -0.2000
     27  C         24.9780  -21.8950  -12.8990 C.2     1  UNL1        0.0800
     28  C         25.2360  -20.5720  -13.2590 C.2     1  UNL1        0.0260
     29  C         25.2970  -20.2290  -14.6090 C.2     1  UNL1        0.0090
     30  C         25.1210  -21.2040  -15.6040 C.2     1  UNL1       -0.0520
     31  C         24.8620  -22.5390  -15.2350 C.2     1  UNL1       -0.0500
     32  C         25.1600  -20.7810  -17.0500 C.3     1  UNL1        0.0390
     33  C         24.8080  -22.8810  -13.8760 C.2     1  UNL1        0.0330
     34  C         24.7090  -23.6260  -16.2690 C.3     1  UNL1        0.0390
     35  C         24.4120  -23.0900  -17.6710 C.3     1  UNL1        0.0050
     36  C         25.3580  -21.9470  -18.0150 C.3     1  UNL1        0.0050
@<TRIPOS>BOND
     1    36    35    1
     2    36    32    1
     3    35    34    1
     4    32    30    1
     5    34    31    1
     6    30    31    2
     7    30    29    1
     8    31    33    1
     9    29    28    2
    10    33    27    2
    11    28    27    1
    12    27    24    1
    13    23    22    1
    14    24    22    1
    15    24    26    2
    16    24    25    2
    17    22     4    1
    18     5     4    2
    19     5     6    1
    20     4     3    1
    21    10     9    1
    22    10    11    2
    23     6     1    2
    24     9     8    2
    25    11    12    1
    26     3     2    2
    27     1     2    1
    28     1     7    1
    29     8     7    1
    30     8    13    1
    31    12    13    2
    32    13    14    1
    33    14    17    2
    34    14    15   am
    35    16    15    1
    36    15    18    1
    37    21    20    1
    38    18    19    1
    39    18    20    1
