@<TRIPOS>MOLECULE
66706_out_ligand_01.pdbqt
 30 33 0 0 0
SMALL
GASTEIGER

@<TRIPOS>ATOM
      1  C         22.6600  -23.0500   -8.9570 C.2     1  UNL1       -0.0580
      2  C         22.3630  -21.9730   -8.1170 C.2     1  UNL1        0.0090
      3  C         21.1430  -21.9180   -7.4370 C.2     1  UNL1        0.0300
      4  C         20.1960  -22.9380   -7.5850 C.2     1  UNL1        0.0350
      5  C         20.4910  -24.0120   -8.4250 C.2     1  UNL1        0.0300
      6  C         21.7140  -24.0690   -9.1060 C.2     1  UNL1        0.0090
      7  C         23.9650  -23.0880   -9.7190 C.3     1  UNL1        0.0460
      8  C         24.1620  -21.8730  -10.6320 C.3     1  UNL1        0.0830
      9  C         24.4030  -22.2670  -12.0500 C.ar    1  UNL1        0.1050
     10  N         24.8710  -23.5140  -12.3940 N.ar    1  UNL1       -0.3430
     11  C         24.9480  -23.5820  -13.7600 C.ar    1  UNL1        0.0620
     12  H         25.0660  -24.2660  -11.7490 H       1  UNL1        0.1670
     13  C         25.3410  -24.5980  -14.6310 C.2     1  UNL1        0.0320
     14  C         24.5220  -22.3300  -14.1890 C.ar    1  UNL1        0.0860
     15  C         25.2920  -24.3050  -16.0010 C.2     1  UNL1        0.0090
     16  C         24.8590  -23.0580  -16.4750 C.2     1  UNL1       -0.0600
     17  C         24.8570  -22.7630  -17.9470 C.3     1  UNL1        0.0480
     18  C         24.4800  -22.0550  -15.5650 C.2     1  UNL1        0.0400
     19  N         24.1980  -21.5280  -13.1210 N.ar    1  UNL1       -0.2330
     20  N         18.9850  -22.8000   -6.8730 N.am    1  UNL1       -0.3230
     21  C         17.7260  -22.5670   -7.3970 C.2     1  UNL1        0.2560
     22  O         17.4240  -22.4930   -8.5810 O.2     1  UNL1       -0.2670
     23  H         19.0500  -22.9600   -5.8770 H       1  UNL1        0.1690
     24  C         16.6390  -22.4290   -6.3870 C.2     1  UNL1        0.0350
     25  C         16.9490  -22.6470   -5.0360 C.2     1  UNL1        0.0170
     26  C         15.9590  -22.5280   -4.0570 C.2     1  UNL1        0.0040
     27  C         14.6540  -22.2060   -4.4270 C.2     1  UNL1        0.0420
     28  C         14.3500  -22.0110   -5.7710 C.2     1  UNL1        0.1170
     29  F         13.0910  -21.7250   -6.1260 F       1  UNL1       -0.2060
     30  C         15.3250  -22.1220   -6.7570 C.2     1  UNL1        0.0590
@<TRIPOS>BOND
     1    17    16    1
     2    16    15    2
     3    16    18    1
     4    15    13    1
     5    18    14    2
     6    13    11    2
     7    14    11   ar
     8    14    19   ar
     9    11    10   ar
    10    19     9   ar
    11    10     9   ar
    12    10    12    1
    13     9     8    1
    14     8     7    1
    15     7     1    1
    16     6     1    2
    17     6     5    1
    18     1     2    1
    19    22    21    2
    20     5     4    2
    21     2     3    2
    22     4     3    1
    23     4    20    1
    24    21    20   am
    25    21    24    1
    26    20    23    1
    27    30    24    2
    28    30    28    1
    29    24    25    1
    30    29    28    1
    31    28    27    2
    32    25    26    2
    33    27    26    1
