@<TRIPOS>MOLECULE
66708_out_ligand_01.pdbqt
 36 39 0 0 0
SMALL
GASTEIGER

@<TRIPOS>ATOM
      1  C         18.2390  -22.0480   -9.9210 C.3     1  UNL1        0.0500
      2  C         19.5110  -21.9850  -10.7170 C.2     1  UNL1       -0.0390
      3  C         19.5110  -21.2250  -11.9000 C.2     1  UNL1        0.0090
      4  C         20.6520  -21.1210  -12.7000 C.2     1  UNL1        0.0160
      5  C         21.8330  -21.7800  -12.3460 C.2     1  UNL1        0.0150
      6  C         21.8450  -22.5480  -11.1770 C.2     1  UNL1        0.0410
      7  C         20.7030  -22.6400  -10.3560 C.2     1  UNL1        0.0860
      8  S         20.8950  -23.6230   -8.8710 S.O2    1  UNL1        0.2630
      9  O         19.9420  -24.7110   -8.8610 O.2     1  UNL1       -0.2000
     10  O         22.3120  -23.8760   -8.7160 O.2     1  UNL1       -0.2000
     11  N         20.4790  -22.5330   -7.6440 N.pl3   1  UNL1       -0.2810
     12  H         20.7100  -21.5740   -7.8970 H       1  UNL1        0.1790
     13  C         19.3140  -22.7670   -6.8650 C.2     1  UNL1        0.0420
     14  C         18.9210  -21.8020   -5.9350 C.2     1  UNL1        0.0310
     15  C         17.7600  -21.9880   -5.1820 C.2     1  UNL1        0.0270
     16  C         17.0050  -23.1510   -5.3570 C.2     1  UNL1        0.0740
     17  C         17.3920  -24.1200   -6.2870 C.2     1  UNL1        0.0270
     18  C         18.5550  -23.9260   -7.0360 C.2     1  UNL1        0.0310
     19  S         15.5170  -23.3720   -4.4170 S.O2    1  UNL1        0.2390
     20  O         14.3950  -23.0280   -5.2570 O.2     1  UNL1       -0.2060
     21  O         15.6040  -24.6290   -3.7110 O.2     1  UNL1       -0.2060
     22  N         15.6780  -22.1770   -3.2440 N.3     1  UNL1       -0.2250
     23  H         15.7160  -21.2650   -3.7020 H       1  UNL1        0.1360
     24  H         14.9590  -22.2110   -2.5240 H       1  UNL1        0.1360
     25  C         23.0280  -21.6520  -13.1750 C.ar    1  UNL1        0.1890
     26  N         24.2730  -21.8800  -12.7270 N.ar    1  UNL1       -0.1050
     27  O         25.0750  -21.6200  -13.8360 O.2     1  UNL1       -0.1850
     28  C         24.2380  -21.2600  -14.8550 C.ar    1  UNL1        0.2640
     29  N         22.9700  -21.2580  -14.4940 N.ar    1  UNL1       -0.1950
     30  C         24.8270  -20.9220  -16.1420 C.2     1  UNL1        0.2990
     31  O         24.7100  -21.6590  -17.1250 O.2     1  UNL1       -0.2630
     32  N         25.5490  -19.7350  -16.2590 N.am    1  UNL1       -0.3450
     33  C         26.2080  -19.3820  -17.5030 C.3     1  UNL1        0.1260
     34  C         25.7260  -18.6960  -15.2540 C.3     1  UNL1        0.1260
     35  C         27.1210  -18.2240  -17.1310 C.3     1  UNL1        0.0210
     36  C         26.3490  -17.5330  -16.0160 C.3     1  UNL1        0.0210
@<TRIPOS>BOND
     1    33    35    1
     2    33    32    1
     3    35    36    1
     4    31    30    2
     5    32    30   am
     6    32    34    1
     7    30    28    1
     8    36    34    1
     9    28    29   ar
    10    28    27   ar
    11    29    25   ar
    12    27    26   ar
    13    25    26   ar
    14    25     5    1
    15     4     5    2
    16     4     3    1
    17     5     6    1
    18     3     2    2
    19     6     7    2
    20     2     7    1
    21     2     1    1
    22     7     8    1
    23     8     9    2
    24     8    10    2
    25     8    11    1
    26    12    11    1
    27    11    13    1
    28    18    13    2
    29    18    17    1
    30    13    14    1
    31    17    16    2
    32    14    15    2
    33    16    15    1
    34    16    19    1
    35    20    19    2
    36    19    21    2
    37    19    22    1
    38    23    22    1
    39    22    24    1
