@<TRIPOS>MOLECULE
66737_out_ligand_01.pdbqt
 33 36 0 0 0
SMALL
GASTEIGER

@<TRIPOS>ATOM
      1  N         23.4410  -22.6670  -11.0160 N.ar    1  UNL1       -0.2180
      2  N         22.5320  -22.0380  -11.8900 N.ar    1  UNL1       -0.1730
      3  C         21.2810  -21.8710  -11.5590 C.ar    1  UNL1        0.0660
      4  C         20.3770  -21.1620  -12.5280 C.3     1  UNL1        0.0730
      5  C         20.8070  -22.3820  -10.2960 C.ar    1  UNL1        0.0500
      6  C         19.5690  -22.4340   -9.6790 C.ar    1  UNL1        0.0470
      7  C         18.2260  -22.0670  -10.2000 C.3     1  UNL1        0.0710
      8  N         19.8070  -22.9880   -8.4130 N.ar    1  UNL1       -0.2370
      9  N         21.0740  -23.4760   -8.3320 N.ar    1  UNL1       -0.1610
     10  C         21.6870  -23.0460   -9.4360 C.ar    1  UNL1        0.1610
     11  C         23.0890  -23.2470   -9.7750 C.ar    1  UNL1        0.2960
     12  O         23.8830  -23.8500   -9.0590 O.2     1  UNL1       -0.2640
     13  C         24.8400  -22.8120  -11.4810 C.3     1  UNL1        0.2050
     14  C         25.6390  -21.5110  -11.2940 C.3     1  UNL1        0.0320
     15  C         27.1210  -21.6840  -11.5970 C.3     1  UNL1        0.0070
     16  C         24.8390  -23.2500  -12.9630 C.2     1  UNL1        0.2470
     17  O         25.0770  -24.4120  -13.2800 O.2     1  UNL1       -0.2710
     18  N         24.7120  -22.1840  -13.8390 N.am    1  UNL1       -0.3250
     19  H         24.5880  -21.2840  -13.3800 H       1  UNL1        0.1690
     20  C         24.7180  -22.1980  -15.2440 C.2     1  UNL1        0.0370
     21  C         24.4710  -23.3390  -16.0150 C.2     1  UNL1        0.0290
     22  C         24.4920  -23.2710  -17.4140 C.2     1  UNL1        0.0050
     23  C         24.7580  -22.0620  -18.0500 C.2     1  UNL1        0.0420
     24  C         25.0010  -20.9320  -17.2830 C.2     1  UNL1        0.1180
     25  F         25.2590  -19.7650  -17.8890 F       1  UNL1       -0.2060
     26  C         24.9830  -20.9880  -15.8920 C.2     1  UNL1        0.0710
     27  C         18.9580  -23.1000   -7.2690 C.2     1  UNL1        0.0580
     28  C         18.1420  -24.2130   -7.0420 C.2     1  UNL1        0.0320
     29  C         17.3210  -24.2700   -5.9080 C.2     1  UNL1        0.0090
     30  C         17.2970  -23.2190   -4.9860 C.2     1  UNL1       -0.0620
     31  C         16.3890  -23.2710   -3.7930 C.3     1  UNL1        0.0480
     32  C         18.0810  -22.0890   -5.2310 C.2     1  UNL1        0.0090
     33  C         18.9020  -22.0280   -6.3610 C.2     1  UNL1        0.0320
@<TRIPOS>BOND
     1    23    22    2
     2    23    24    1
     3    25    24    1
     4    22    21    1
     5    24    26    2
     6    21    20    2
     7    26    20    1
     8    20    18    1
     9    18    19    1
    10    18    16   am
    11    17    16    2
    12    16    13    1
    13     4     3    1
    14     2     3   ar
    15     2     1   ar
    16    15    14    1
    17     3     5   ar
    18    13    14    1
    19    13     1    1
    20     1    11   ar
    21     5     6   ar
    22     5    10   ar
    23     7     6    1
    24    11    10   ar
    25    11    12    2
    26     6     8   ar
    27    10     9   ar
    28     8     9   ar
    29     8    27    1
    30    27    28    2
    31    27    33    1
    32    28    29    1
    33    33    32    2
    34    29    30    2
    35    32    30    1
    36    30    31    1
