@<TRIPOS>MOLECULE
66739_out_ligand_01.pdbqt
 29 31 0 0 0
SMALL
GASTEIGER

@<TRIPOS>ATOM
      1  C         18.6780  -22.7510   -6.5410 C.2     1  UNL1       -0.0050
      2  C         18.8820  -23.8470   -7.3960 C.2     1  UNL1        0.0150
      3  C         20.0150  -23.9200   -8.2140 C.2     1  UNL1        0.0180
      4  C         20.9710  -22.8980   -8.1880 C.2     1  UNL1        0.0320
      5  C         20.8020  -21.8190   -7.3130 C.2     1  UNL1        0.0180
      6  C         19.6630  -21.7500   -6.5010 C.2     1  UNL1        0.0150
      7  C         22.1650  -23.0190   -9.0770 C.2     1  UNL1        0.2560
      8  O         22.8280  -24.0460   -9.0080 O.2     1  UNL1       -0.2670
      9  N         22.3640  -21.9500   -9.9340 N.am    1  UNL1       -0.3220
     10  H         21.6340  -21.2560   -9.9560 H       1  UNL1        0.1690
     11  C         23.4260  -21.7560  -10.8550 C.2     1  UNL1        0.0410
     12  C         24.7550  -21.6430  -10.4330 C.2     1  UNL1        0.0300
     13  C         25.7840  -21.4460  -11.3510 C.2     1  UNL1        0.0030
     14  C         25.5000  -21.3570  -12.7070 C.2     1  UNL1        0.0070
     15  C         24.1800  -21.4600  -13.1700 C.2     1  UNL1       -0.0540
     16  C         23.9400  -21.3500  -14.6530 C.3     1  UNL1        0.0490
     17  C         23.1270  -21.6600  -12.2410 C.2     1  UNL1       -0.0290
     18  C         21.6980  -21.7710  -12.7200 C.3     1  UNL1        0.0510
     19  C         17.4850  -22.6610   -5.6780 C.2     1  UNL1        0.0930
     20  N         17.7750  -22.7650   -4.3520 N.2     1  UNL1       -0.2580
     21  C         16.7450  -22.7300   -3.4830 C.2     1  UNL1        0.1170
     22  C         15.4270  -22.5830   -3.8690 C.2     1  UNL1        0.0220
     23  C         15.1420  -22.4550   -5.2270 C.2     1  UNL1        0.0330
     24  C         16.1730  -22.4830   -6.1690 C.2     1  UNL1        0.0640
     25  N         15.9470  -22.3120   -7.5600 N.am    1  UNL1       -0.3250
     26  C         15.6840  -23.2880   -8.5030 C.2     1  UNL1        0.2180
     27  C         15.4890  -22.7140   -9.8840 C.3     1  UNL1        0.1170
     28  O         15.6320  -24.4980   -8.3150 O.2     1  UNL1       -0.2740
     29  H         15.9740  -21.3570   -7.8970 H       1  UNL1        0.1690
@<TRIPOS>BOND
     1    16    15    1
     2    15    14    2
     3    15    17    1
     4    18    17    1
     5    14    13    1
     6    17    11    2
     7    13    12    2
     8    11    12    1
     9    11     9    1
    10    10     9    1
    11     9     7   am
    12    27    26    1
    13     7     8    2
    14     7     4    1
    15    26    28    2
    16    26    25   am
    17     3     4    2
    18     3     2    1
    19     4     5    1
    20    29    25    1
    21    25    24    1
    22     2     1    2
    23     5     6    2
    24     1     6    1
    25     1    19    1
    26    24    19    2
    27    24    23    1
    28    19    20    1
    29    23    22    2
    30    20    21    2
    31    22    21    1
