@<TRIPOS>MOLECULE
66746_out_ligand_01.pdbqt
 32 35 0 0 0
SMALL
GASTEIGER

@<TRIPOS>ATOM
      1  C         21.3380  -23.1130  -10.2300 C.2     1  UNL1       -0.0380
      2  C         22.1970  -23.5500   -9.1960 C.2     1  UNL1        0.0090
      3  C         23.5820  -23.3920   -9.2960 C.2     1  UNL1        0.0100
      4  C         24.0980  -22.8210  -10.4500 C.2     1  UNL1       -0.0300
      5  C         23.2650  -22.4090  -11.4910 C.2     1  UNL1        0.0440
      6  C         21.8880  -22.5430  -11.3930 C.2     1  UNL1        0.0390
      7  N         24.0330  -21.9190  -12.5660 N.am    1  UNL1       -0.3130
      8  C         23.5250  -21.3690  -13.7320 C.2     1  UNL1        0.2580
      9  O         22.3520  -21.0710  -13.9410 O.2     1  UNL1       -0.2670
     10  C         25.4590  -22.0910  -12.2270 C.2     1  UNL1        0.1370
     11  C         25.5310  -22.5250  -10.7580 C.2     1  UNL1        0.0610
     12  C         19.8420  -23.2790  -10.1050 C.3     1  UNL1        0.1630
     13  N         19.4650  -23.6730   -8.7610 N.am    1  UNL1       -0.3390
     14  C         18.3670  -23.1240   -8.1370 C.2     1  UNL1        0.3210
     15  O         17.7180  -22.2090   -8.6240 O.2     1  UNL1       -0.2470
     16  N         18.1260  -23.7400   -6.9280 N.am    1  UNL1       -0.3060
     17  H         18.8100  -24.4200   -6.6160 H       1  UNL1        0.1710
     18  H         19.7430  -24.6010   -8.4850 H       1  UNL1        0.1640
     19  C         17.0640  -23.5010   -6.0300 C.2     1  UNL1        0.0780
     20  C         15.8120  -24.1160   -6.1020 C.2     1  UNL1        0.0750
     21  C         14.8410  -23.8100   -5.1480 C.2     1  UNL1        0.1180
     22  F         13.6410  -24.4000   -5.2230 F       1  UNL1       -0.2060
     23  C         15.0870  -22.9060   -4.1190 C.2     1  UNL1        0.0450
     24  C         16.3320  -22.2870   -4.0380 C.2     1  UNL1        0.0470
     25  C         17.3030  -22.5890   -4.9910 C.2     1  UNL1        0.1430
     26  F         18.5040  -21.9930   -4.8990 F       1  UNL1       -0.2040
     27  C         24.4870  -21.1050  -14.8260 C.2     1  UNL1        0.0320
     28  C         25.2450  -19.9270  -14.8230 C.2     1  UNL1        0.0170
     29  C         26.1600  -19.6930  -15.8490 C.2     1  UNL1        0.0010
     30  C         26.3320  -20.6410  -16.8610 C.2     1  UNL1        0.0000
     31  C         25.5930  -21.8270  -16.8480 C.2     1  UNL1        0.0010
     32  C         24.6710  -22.0650  -15.8260 C.2     1  UNL1        0.0170
@<TRIPOS>BOND
     1    30    31    2
     2    30    29    1
     3    31    32    1
     4    29    28    2
     5    32    27    2
     6    27    28    1
     7    27     8    1
     8     9     8    2
     9     8     7   am
    10     7    10    1
    11     7     5    1
    12    10    11    2
    13     5     6    1
    14     5     4    2
    15     6     1    2
    16    11     4    1
    17     4     3    1
    18     1    12    1
    19     1     2    1
    20    12    13    1
    21     3     2    2
    22    13    18    1
    23    13    14   am
    24    15    14    2
    25    14    16   am
    26    16    17    1
    27    16    19    1
    28    20    19    2
    29    20    21    1
    30    19    25    1
    31    22    21    1
    32    21    23    2
    33    25    26    1
    34    25    24    2
    35    23    24    1
