@<TRIPOS>MOLECULE
66747_out_ligand_01.pdbqt
 31 33 0 0 0
SMALL
GASTEIGER

@<TRIPOS>ATOM
      1  C         20.8690  -23.4170   -8.3420 C.2     1  UNL1        0.0790
      2  C         21.0450  -22.2200   -7.6460 C.2     1  UNL1        0.0370
      3  C         22.2110  -21.4800   -7.8280 C.2     1  UNL1        0.0050
      4  C         23.2000  -21.9420   -8.6980 C.2     1  UNL1        0.0240
      5  C         23.0280  -23.1530   -9.3700 C.2     1  UNL1        0.0250
      6  C         21.8720  -23.9070   -9.1830 C.2     1  UNL1        0.0610
      7  O         19.7110  -24.1200   -8.1100 O.2     1  UNL1       -0.2910
      8  C         18.5250  -23.5780   -8.5950 C.2     1  UNL1        0.1850
      9  N         18.4670  -23.2730   -9.9220 N.2     1  UNL1       -0.2360
     10  C         17.3180  -22.7420  -10.3870 C.2     1  UNL1        0.1190
     11  C         16.2220  -22.4760   -9.5870 C.2     1  UNL1        0.0200
     12  C         16.3120  -22.7720   -8.2290 C.2     1  UNL1        0.0230
     13  C         17.4840  -23.3350   -7.7000 C.2     1  UNL1        0.0850
     14  C         17.5060  -23.6270   -6.2370 C.2     1  UNL1        0.2560
     15  N         17.5190  -22.5700   -5.3530 N.am    1  UNL1       -0.3530
     16  H         17.6260  -21.6280   -5.7120 H       1  UNL1        0.1630
     17  O         17.5130  -24.7950   -5.8560 O.2     1  UNL1       -0.2680
     18  C         17.6520  -22.7610   -3.9160 C.3     1  UNL1        0.0760
     19  C         18.4790  -21.6370   -3.2980 C.3     1  UNL1        0.0320
     20  C         16.2720  -22.8360   -3.2690 C.3     1  UNL1        0.0320
     21  N         24.0410  -23.5600  -10.2950 N.pl3   1  UNL1       -0.1810
     22  H         24.0760  -24.5730  -10.4240 H       1  UNL1        0.1460
     23  S         23.9320  -22.8680  -11.8490 S.O2    1  UNL1        0.2520
     24  O         24.4080  -23.8540  -12.7930 O.2     1  UNL1       -0.2050
     25  O         22.6100  -22.2940  -11.9900 O.2     1  UNL1       -0.2050
     26  C         25.0480  -21.4880  -11.9360 C.2     1  UNL1        0.1170
     27  C         25.8310  -20.8730  -10.9740 C.2     1  UNL1        0.0340
     28  C         26.6100  -19.8070  -11.5110 C.2     1  UNL1        0.0330
     29  C         26.3860  -19.6660  -12.8560 C.2     1  UNL1        0.0750
     30 CL         27.1170  -18.5160  -13.9000 Cl      1  UNL1       -0.0760
     31  S         25.2740  -20.7790  -13.4790 S.3     1  UNL1       -0.0650
@<TRIPOS>BOND
     1    30    29    1
     2    31    29    1
     3    31    26    1
     4    29    28    2
     5    24    23    2
     6    25    23    2
     7    26    23    1
     8    26    27    2
     9    23    21    1
    10    28    27    1
    11    22    21    1
    12    10     9    1
    13    10    11    2
    14    21     5    1
    15     9     8    2
    16    11    12    1
    17     5     6    1
    18     5     4    2
    19     6     1    2
    20     4     3    1
    21     8     7    1
    22     8    13    1
    23     1     7    1
    24     1     2    1
    25    12    13    2
    26     3     2    2
    27    13    14    1
    28    14    17    2
    29    14    15   am
    30    16    15    1
    31    15    18    1
    32    18    19    1
    33    18    20    1
