@<TRIPOS>MOLECULE
66762_out_ligand_01.pdbqt
 32 35 0 0 0
SMALL
GASTEIGER

@<TRIPOS>ATOM
      1  C         19.0280  -22.1220  -10.6540 C.2     1  UNL1        0.0320
      2  C         19.9880  -22.9550  -10.0690 C.2     1  UNL1        0.0190
      3  C         21.3210  -22.8960  -10.4870 C.2     1  UNL1        0.0300
      4  C         21.7150  -22.0130  -11.5010 C.2     1  UNL1        0.0340
      5  C         20.7510  -21.1950  -12.0920 C.2     1  UNL1        0.0300
      6  C         19.4130  -21.2510  -11.6770 C.2     1  UNL1        0.0190
      7  N         23.0780  -22.0160  -11.8570 N.am    1  UNL1       -0.3250
      8  C         24.1590  -21.5760  -11.1030 C.2     1  UNL1        0.2550
      9  O         24.0830  -21.1090   -9.9660 O.2     1  UNL1       -0.2700
     10  H         23.2840  -22.3470  -12.7920 H       1  UNL1        0.1690
     11  C         25.5490  -21.7570  -11.7860 C.3     1  UNL1        0.2470
     12  O         26.5260  -22.2510  -10.8600 O.3     1  UNL1       -0.3710
     13  C         26.5250  -23.6700  -10.7360 C.3     1  UNL1        0.1730
     14  C         26.9700  -24.3080  -12.0460 C.3     1  UNL1        0.0650
     15  C         26.1460  -23.7920  -13.1970 C.2     1  UNL1       -0.0470
     16  C         26.0760  -24.5140  -14.3940 C.2     1  UNL1        0.0080
     17  C         25.5020  -22.5460  -13.0920 C.2     1  UNL1       -0.0140
     18  C         25.3550  -24.0110  -15.4770 C.2     1  UNL1        0.0010
     19  C         24.7130  -22.7790  -15.3770 C.2     1  UNL1        0.0010
     20  C         24.7890  -22.0470  -14.1930 C.2     1  UNL1        0.0110
     21  C         17.6210  -22.2190  -10.1760 C.2     1  UNL1        0.2510
     22  O         16.7540  -21.5070  -10.6700 O.2     1  UNL1       -0.2680
     23  N         17.3650  -23.1630   -9.2030 N.am    1  UNL1       -0.3570
     24  H         18.0720  -23.8510   -8.9790 H       1  UNL1        0.1620
     25  C         16.0180  -23.3930   -8.7140 C.3     1  UNL1        0.1270
     26  C         15.9830  -24.4010   -7.5630 C.3     1  UNL1        0.0580
     27  C         16.0570  -23.7170   -6.2210 C.2     1  UNL1       -0.0570
     28  C         14.9440  -23.0420   -5.6990 C.2     1  UNL1        0.0070
     29  C         15.0140  -22.4280   -4.4480 C.2     1  UNL1        0.0010
     30  C         16.1930  -22.4850   -3.7060 C.2     1  UNL1        0.0000
     31  C         17.3040  -23.1570   -4.2140 C.2     1  UNL1        0.0010
     32  C         17.2360  -23.7720   -5.4650 C.2     1  UNL1        0.0070
@<TRIPOS>BOND
     1    18    19    2
     2    18    16    1
     3    19    20    1
     4    16    15    2
     5    20    17    2
     6    15    17    1
     7    15    14    1
     8    17    11    1
     9    10     7    1
    10     5     6    1
    11     5     4    2
    12    14    13    1
    13     7     4    1
    14     7     8   am
    15    11     8    1
    16    11    12    1
    17     6     1    2
    18     4     3    1
    19     8     9    2
    20    12    13    1
    21    22    21    2
    22     1    21    1
    23     1     2    1
    24     3     2    2
    25    21    23   am
    26    23    24    1
    27    23    25    1
    28    25    26    1
    29    26    27    1
    30    27    28    2
    31    27    32    1
    32    28    29    1
    33    32    31    2
    34    29    30    2
    35    31    30    1
