@<TRIPOS>MOLECULE
66785_out_ligand_01.pdbqt
 37 40 0 0 0
SMALL
GASTEIGER

@<TRIPOS>ATOM
      1  C         25.1310  -22.5450  -12.3290 C.3     1  UNL1        0.1660
      2  N         23.8130  -21.8690  -12.3600 N.pl3   1  UNL1       -0.2770
      3  C         22.8370  -22.3450  -11.4810 C.2     1  UNL1        0.0360
      4  C         21.4960  -22.0140  -11.6930 C.2     1  UNL1        0.0270
      5  C         20.5140  -22.3820  -10.7670 C.2     1  UNL1        0.0190
      6  C         20.8780  -23.0560   -9.5940 C.2     1  UNL1        0.0340
      7  C         22.2190  -23.3780   -9.3600 C.2     1  UNL1        0.0480
      8  C         23.1870  -23.0140  -10.2960 C.2     1  UNL1        0.0570
      9  N         24.5310  -23.3030  -10.0360 N.am    1  UNL1       -0.3240
     10  C         25.5360  -23.0320  -10.9290 C.2     1  UNL1        0.2410
     11  O         26.7050  -23.2870  -10.6350 O.2     1  UNL1       -0.2710
     12  H         23.4650  -21.6910  -13.3050 H       1  UNL1        0.1280
     13  H         24.8070  -23.6990   -9.1490 H       1  UNL1        0.1690
     14  C         25.1630  -23.7600  -13.2480 C.3     1  UNL1        0.1700
     15  S         25.4220  -23.2450  -14.9300 S.O2    1  UNL1        0.1500
     16  O         24.3140  -22.3760  -15.2920 O.2     1  UNL1       -0.2280
     17  O         25.6800  -24.4390  -15.7190 O.2     1  UNL1       -0.2280
     18  C         26.8980  -22.2250  -14.9230 C.3     1  UNL1        0.1790
     19  C         26.7710  -21.0470  -15.8590 C.2     1  UNL1       -0.0380
     20  C         26.8830  -21.2650  -17.2450 C.2     1  UNL1        0.0080
     21  C         26.7920  -20.2060  -18.1490 C.2     1  UNL1        0.0010
     22  C         26.5780  -18.9150  -17.6850 C.2     1  UNL1        0.0010
     23  C         26.4380  -18.6830  -16.3170 C.2     1  UNL1        0.0070
     24  C         26.5210  -19.7360  -15.3920 C.2     1  UNL1       -0.0550
     25  C         26.3410  -19.4170  -13.9300 C.3     1  UNL1        0.0490
     26  C         19.8710  -23.4640   -8.5810 C.2     1  UNL1        0.2520
     27  O         19.7330  -24.6510   -8.3100 O.2     1  UNL1       -0.2680
     28  N         19.1620  -22.4460   -7.9780 N.am    1  UNL1       -0.3520
     29  H         19.3540  -21.4850   -8.2270 H       1  UNL1        0.1630
     30  C         18.0870  -22.7110   -7.0180 C.3     1  UNL1        0.0840
     31  C         18.2790  -21.8170   -5.7820 C.3     1  UNL1        0.0250
     32  C         17.8810  -22.4670   -4.4480 C.3     1  UNL1        0.0020
     33  C         16.4230  -22.2730   -4.0390 C.3     1  UNL1        0.0000
     34  C         15.4600  -23.3840   -4.4560 C.3     1  UNL1        0.0000
     35  C         15.4390  -23.7870   -5.9290 C.3     1  UNL1        0.0000
     36  C         15.4680  -22.6110   -6.9010 C.3     1  UNL1        0.0020
     37  C         16.7410  -22.5210   -7.7410 C.3     1  UNL1        0.0250
@<TRIPOS>BOND
     1    21    22    2
     2    21    20    1
     3    22    23    1
     4    20    19    2
     5    23    24    2
     6    19    24    1
     7    19    18    1
     8    17    15    2
     9    24    25    1
    10    16    15    2
    11    15    18    1
    12    15    14    1
    13    12     2    1
    14    14     1    1
    15     2     1    1
    16     2     3    1
    17     1    10    1
    18     4     3    2
    19     4     5    1
    20     3     8    1
    21    10    11    2
    22    10     9   am
    23     5     6    2
    24     8     9    1
    25     8     7    2
    26     9    13    1
    27     6     7    1
    28     6    26    1
    29    26    27    2
    30    26    28   am
    31    29    28    1
    32    28    30    1
    33    37    30    1
    34    37    36    1
    35    30    31    1
    36    36    35    1
    37    35    34    1
    38    31    32    1
    39    34    33    1
    40    32    33    1
