@<TRIPOS>MOLECULE
66783_out_ligand_01.pdbqt
 30 32 0 0 0
SMALL
GASTEIGER

@<TRIPOS>ATOM
      1  C         21.4900  -22.4310  -10.1080 C.2     1  UNL1        0.0800
      2  C         20.9080  -21.8300  -11.2260 C.2     1  UNL1        0.0280
      3  C         19.5210  -21.7060  -11.2870 C.2     1  UNL1        0.0450
      4  C         18.7310  -22.1800  -10.2380 C.2     1  UNL1        0.1320
      5  F         17.4030  -22.0290  -10.3430 F       1  UNL1       -0.2050
      6  C         19.3000  -22.7900   -9.1160 C.2     1  UNL1        0.0720
      7  C         20.6980  -22.9190   -9.0600 C.2     1  UNL1        0.0450
      8  S         23.2540  -22.6060  -10.0080 S.O2    1  UNL1        0.2590
      9  O         23.5610  -23.5730   -8.9780 O.2     1  UNL1       -0.2010
     10  O         23.8160  -21.2750   -9.9990 O.2     1  UNL1       -0.2010
     11  N         23.6180  -23.2760  -11.4970 N.3     1  UNL1       -0.3100
     12  H         22.8920  -23.8860  -11.8700 H       1  UNL1        0.1720
     13  C         24.5370  -22.5970  -12.4180 C.3     1  UNL1        0.0970
     14  C         23.7280  -21.7970  -13.4410 C.3     1  UNL1        0.0260
     15  C         24.6380  -21.0160  -14.3910 C.3     1  UNL1        0.0020
     16  C         25.9780  -21.7050  -14.6510 C.3     1  UNL1        0.0010
     17  C         25.8680  -23.2200  -14.5280 C.3     1  UNL1        0.0060
     18  C         25.4170  -23.6610  -13.1210 C.3     1  UNL1        0.0050
     19  C         26.6280  -24.0140  -12.2500 C.3     1  UNL1        0.0120
     20  C         18.4980  -23.2980   -7.9620 C.2     1  UNL1        0.2590
     21  O         18.6730  -24.4630   -7.6200 O.2     1  UNL1       -0.2670
     22  N         17.6200  -22.4080   -7.3740 N.am    1  UNL1       -0.3220
     23  H         17.5800  -21.4640   -7.7510 H       1  UNL1        0.1690
     24  C         16.7440  -22.6340   -6.2820 C.2     1  UNL1        0.0520
     25  C         15.5390  -23.3330   -6.4000 C.2     1  UNL1        0.0310
     26  C         14.7110  -23.5270   -5.2880 C.2     1  UNL1        0.0020
     27  C         15.0760  -23.0250   -4.0420 C.2     1  UNL1        0.0020
     28  C         16.2710  -22.3250   -3.9030 C.2     1  UNL1        0.0210
     29  C         17.0980  -22.1300   -5.0150 C.2     1  UNL1        0.0370
     30 BR         18.7150  -21.1620   -4.7430 Br      1  UNL1       -0.0490
@<TRIPOS>BOND
     1    16    17    1
     2    16    15    1
     3    17    18    1
     4    15    14    1
     5    14    13    1
     6    18    13    1
     7    18    19    1
     8    13    11    1
     9    12    11    1
    10    11     8    1
    11     3     2    1
    12     3     4    2
    13     2     1    2
    14     5     4    1
    15     4     6    1
    16     1     8    1
    17     1     7    1
    18     8    10    2
    19     8     9    2
    20     6     7    2
    21     6    20    1
    22    20    21    2
    23    20    22   am
    24    23    22    1
    25    22    24    1
    26    25    24    2
    27    25    26    1
    28    24    29    1
    29    26    27    2
    30    29    30    1
    31    29    28    2
    32    27    28    1
