@<TRIPOS>MOLECULE
66800_out_ligand_01.pdbqt
 30 33 0 0 0
SMALL
GASTEIGER

@<TRIPOS>ATOM
      1  C         21.0850  -22.8870  -10.4310 C.2     1  UNL1        0.1430
      2  C         20.7280  -21.8930  -11.3260 C.2     1  UNL1        0.0450
      3  C         21.8430  -21.6770  -12.1730 C.2     1  UNL1        0.0360
      4  C         22.8340  -22.5320  -11.7390 C.2     1  UNL1        0.0680
      5  O         22.3720  -23.2770  -10.6970 O.2     1  UNL1       -0.3080
      6  C         20.3930  -23.5440   -9.3360 C.2     1  UNL1        0.2760
      7  O         20.7240  -24.6360   -8.8800 O.2     1  UNL1       -0.2650
      8  N         19.3020  -22.8550   -8.8380 N.am    1  UNL1       -0.3470
      9  H         18.9490  -22.0640   -9.3530 H       1  UNL1        0.1630
     10  C         18.4240  -23.4400   -7.8360 C.3     1  UNL1        0.1180
     11  C         17.0310  -23.6700   -8.4600 C.3     1  UNL1        0.0300
     12  C         15.8710  -23.8290   -7.4710 C.3     1  UNL1        0.0070
     13  C         16.3020  -23.9370   -6.0140 C.3     1  UNL1        0.0390
     14  C         17.2860  -22.8500   -5.6770 C.2     1  UNL1       -0.0500
     15  C         17.1970  -22.1440   -4.4730 C.2     1  UNL1        0.0070
     16  C         18.3450  -22.5960   -6.5730 C.2     1  UNL1       -0.0290
     17  C         18.1550  -21.1860   -4.1500 C.2     1  UNL1        0.0010
     18  C         19.2180  -20.9460   -5.0160 C.2     1  UNL1        0.0010
     19  C         19.3220  -21.6550   -6.2140 C.2     1  UNL1        0.0100
     20  C         24.2200  -22.8290  -12.1710 C.3     1  UNL1        0.2100
     21  S         25.3650  -21.7740  -11.2930 S.O2    1  UNL1        0.1810
     22  O         24.6430  -21.0300  -10.2750 O.2     1  UNL1       -0.2220
     23  O         26.5660  -22.5160  -10.9560 O.2     1  UNL1       -0.2220
     24  C         25.8340  -20.5960  -12.5500 C.2     1  UNL1        0.0590
     25  C         25.2430  -20.6620  -13.8150 C.2     1  UNL1        0.0250
     26  C         25.6060  -19.7320  -14.7900 C.2     1  UNL1        0.0200
     27  C         26.5450  -18.7430  -14.4900 C.2     1  UNL1        0.0110
     28 BR         27.0320  -17.4840  -15.8140 Br      1  UNL1       -0.0510
     29  C         27.1210  -18.6690  -13.2220 C.2     1  UNL1        0.0200
     30  C         26.7620  -19.5970  -12.2420 C.2     1  UNL1        0.0250
@<TRIPOS>BOND
     1    28    27    1
     2    26    27    2
     3    26    25    1
     4    27    29    1
     5    25    24    2
     6    29    30    2
     7    24    30    1
     8    24    21    1
     9     3     4    2
    10     3     2    1
    11    20     4    1
    12    20    21    1
    13     4     5    1
    14     2     1    2
    15    21    23    2
    16    21    22    2
    17     5     1    1
    18     1     6    1
    19     9     8    1
    20     6     7    2
    21     6     8   am
    22     8    10    1
    23    11    10    1
    24    11    12    1
    25    10    16    1
    26    12    13    1
    27    16    19    1
    28    16    14    2
    29    19    18    2
    30    13    14    1
    31    14    15    1
    32    18    17    1
    33    15    17    2
