@<TRIPOS>MOLECULE
66810_out_ligand_01.pdbqt
 34 38 0 0 0
SMALL
GASTEIGER

@<TRIPOS>ATOM
      1  C         17.9290  -23.7340   -7.9250 C.2     1  UNL1        0.2240
      2  O         18.8380  -24.2980   -7.3070 O.2     1  UNL1       -0.2730
      3  N         18.1110  -23.2750   -9.2190 N.am    1  UNL1       -0.3470
      4  C         17.0320  -22.8310  -10.1290 C.3     1  UNL1        0.1320
      5  C         17.2800  -21.4000  -10.6560 C.3     1  UNL1        0.0790
      6  C         18.6940  -21.3300  -11.0960 C.ar    1  UNL1        0.0400
      7  N         19.2680  -20.4140  -11.9150 N.ar    1  UNL1       -0.2810
      8  N         20.5750  -20.6540  -12.1330 N.ar    1  UNL1       -0.1690
      9  C         20.8430  -21.7630  -11.4000 C.ar    1  UNL1        0.1540
     10  C         19.6840  -22.2090  -10.7180 C.ar    1  UNL1        0.0200
     11  C         19.4700  -23.3670   -9.8000 C.3     1  UNL1        0.1690
     12  H         18.8420  -19.6110  -12.3650 H       1  UNL1        0.1890
     13  C         22.1850  -22.3680  -11.3740 C.2     1  UNL1        0.2730
     14  O         22.4850  -23.2950  -10.6290 O.2     1  UNL1       -0.2660
     15  N         23.0540  -21.7880  -12.2680 N.am    1  UNL1       -0.3470
     16  H         22.6990  -20.9710  -12.7560 H       1  UNL1        0.1630
     17  C         24.4620  -22.1220  -12.3370 C.3     1  UNL1        0.1180
     18  C         25.2070  -21.4300  -11.1840 C.3     1  UNL1        0.0300
     19  C         26.7140  -21.5160  -11.3780 C.3     1  UNL1        0.0070
     20  C         27.1200  -20.7730  -12.6440 C.3     1  UNL1        0.0390
     21  C         26.2960  -21.1710  -13.8440 C.2     1  UNL1       -0.0500
     22  C         26.7910  -20.8850  -15.1270 C.2     1  UNL1        0.0070
     23  C         25.0330  -21.7810  -13.7050 C.2     1  UNL1       -0.0290
     24  C         26.0660  -21.2330  -16.2650 C.2     1  UNL1        0.0010
     25  C         24.8360  -21.8690  -16.1340 C.2     1  UNL1        0.0010
     26  C         24.3270  -22.1450  -14.8660 C.2     1  UNL1        0.0100
     27  C         16.5770  -23.5470   -7.2490 C.3     1  UNL1        0.1420
     28  C         16.6240  -23.0820   -5.8050 C.2     1  UNL1       -0.0430
     29  C         17.7180  -22.2930   -5.3940 C.2     1  UNL1        0.0080
     30  C         17.8330  -21.8390   -4.0800 C.2     1  UNL1        0.0010
     31  C         16.8480  -22.1560   -3.1530 C.2     1  UNL1        0.0010
     32  C         15.7420  -22.9080   -3.5450 C.2     1  UNL1        0.0070
     33  C         15.6040  -23.3590   -4.8700 C.2     1  UNL1       -0.0550
     34  C         14.3710  -24.1480   -5.2230 C.3     1  UNL1        0.0490
@<TRIPOS>BOND
     1    24    25    2
     2    24    22    1
     3    25    26    1
     4    22    21    2
     5    26    23    2
     6    21    23    1
     7    21    20    1
     8    23    17    1
     9    16    15    1
    10    20    19    1
    11    12     7    1
    12    17    15    1
    13    17    18    1
    14    15    13   am
    15     8     7   ar
    16     8     9   ar
    17     7     6   ar
    18     9    13    1
    19     9    10   ar
    20    19    18    1
    21    13    14    2
    22     6    10   ar
    23     6     5    1
    24    10    11    1
    25     5     4    1
    26     4     3    1
    27    11     3    1
    28     3     1   am
    29     1     2    2
    30     1    27    1
    31    27    28    1
    32    28    29    2
    33    28    33    1
    34    29    30    1
    35    34    33    1
    36    33    32    2
    37    30    31    2
    38    32    31    1
