@<TRIPOS>MOLECULE
66812_out_ligand_01.pdbqt
 34 38 0 0 0
SMALL
GASTEIGER

@<TRIPOS>ATOM
      1  C         15.8240  -23.7400   -9.5530 C.3     1  UNL1        0.0330
      2  C         16.5140  -22.4100   -9.2350 C.3     1  UNL1        0.0930
      3  C         16.9740  -21.7150  -10.5340 C.3     1  UNL1        0.0660
      4  C         18.4530  -21.9200  -10.4840 C.2     1  UNL1       -0.0290
      5  C         19.3740  -21.6190  -11.4750 C.2     1  UNL1        0.0100
      6  C         20.7300  -21.8110  -11.2020 C.2     1  UNL1        0.0090
      7  C         21.1550  -22.2900   -9.9470 C.2     1  UNL1       -0.0380
      8  C         20.2030  -22.5890   -8.9600 C.2     1  UNL1        0.0390
      9  C         18.8580  -22.4050   -9.2420 C.2     1  UNL1        0.0440
     10  N         17.7380  -22.6160   -8.4110 N.am    1  UNL1       -0.3090
     11  C         17.8050  -23.0600   -7.0960 C.2     1  UNL1        0.2580
     12  O         18.8120  -23.4750   -6.5270 O.2     1  UNL1       -0.2670
     13  C         22.6240  -22.5050   -9.6750 C.3     1  UNL1        0.1630
     14  N         23.2190  -23.3410  -10.6930 N.am    1  UNL1       -0.3390
     15  C         23.9880  -22.7940  -11.6990 C.2     1  UNL1        0.3200
     16  O         24.2730  -21.6030  -11.7380 O.2     1  UNL1       -0.2470
     17  N         24.3810  -23.7640  -12.5950 N.am    1  UNL1       -0.3090
     18  H         24.1630  -24.7130  -12.3270 H       1  UNL1        0.1700
     19  H         22.6950  -24.1670  -10.9270 H       1  UNL1        0.1640
     20  C         25.1500  -23.6010  -13.7660 C.2     1  UNL1        0.0390
     21  C         26.3890  -24.2330  -13.9830 C.2     1  UNL1        0.0320
     22  C         27.1060  -24.0360  -15.1730 C.2     1  UNL1        0.0420
     23  C         26.5620  -23.2010  -16.1190 C.2     1  UNL1        0.1050
     24  C         25.3590  -22.5730  -15.9140 C.2     1  UNL1        0.1070
     25  O         27.1090  -22.8960  -17.3270 O.2     1  UNL1       -0.3230
     26  C         24.6320  -22.7510  -14.7540 C.2     1  UNL1        0.0690
     27  O         24.9990  -21.7840  -16.9630 O.2     1  UNL1       -0.3230
     28  C         26.1060  -22.0070  -17.8620 C.3     1  UNL1        0.3520
     29  C         16.5640  -23.0230   -6.2870 C.2     1  UNL1        0.0320
     30  C         15.6490  -21.9750   -6.4400 C.2     1  UNL1        0.0170
     31  C         14.5010  -21.9340   -5.6500 C.2     1  UNL1        0.0010
     32  C         14.2780  -22.9290   -4.6950 C.2     1  UNL1        0.0000
     33  C         15.2040  -23.9620   -4.5250 C.2     1  UNL1        0.0010
     34  C         16.3530  -24.0060   -5.3150 C.2     1  UNL1        0.0170
@<TRIPOS>BOND
     1    28    25    1
     2    28    27    1
     3    25    23    1
     4    27    24    1
     5    23    24    2
     6    23    22    1
     7    24    26    1
     8    22    21    2
     9    26    20    2
    10    21    20    1
    11    20    17    1
    12    17    18    1
    13    17    15   am
    14    16    15    2
    15    15    14   am
    16     5     6    1
    17     5     4    2
    18     6     7    2
    19    19    14    1
    20    14    13    1
    21     3     4    1
    22     3     2    1
    23     4     9    1
    24     7    13    1
    25     7     8    1
    26     1     2    1
    27     9     8    2
    28     9    10    1
    29     2    10    1
    30    10    11   am
    31    11    12    2
    32    11    29    1
    33    30    29    2
    34    30    31    1
    35    29    34    1
    36    31    32    2
    37    34    33    2
    38    32    33    1
