@<TRIPOS>MOLECULE
66821_out_ligand_01.pdbqt
 32 34 0 0 0
SMALL
GASTEIGER

@<TRIPOS>ATOM
      1  C         18.5150  -22.2740  -10.2810 C.2     1  UNL1        0.0810
      2  C         19.8030  -22.8190  -10.1530 C.2     1  UNL1        0.0420
      3  C         20.8490  -22.3590  -10.9620 C.2     1  UNL1        0.0330
      4  C         20.6160  -21.3220  -11.8690 C.2     1  UNL1        0.0170
      5  C         19.3360  -20.7740  -11.9900 C.2     1  UNL1        0.0090
      6  C         18.2630  -21.2480  -11.2110 C.2     1  UNL1       -0.0390
      7  C         16.9220  -20.5940  -11.3850 C.3     1  UNL1        0.0500
      8  S         17.2410  -22.9140   -9.1970 S.O2    1  UNL1        0.2460
      9  O         16.5650  -21.7840   -8.5940 O.2     1  UNL1       -0.2060
     10  O         16.5070  -23.9420   -9.8970 O.2     1  UNL1       -0.2060
     11  N         18.1960  -23.6200   -7.9590 N.pl3   1  UNL1       -0.1810
     12  H         19.1690  -23.5920   -8.2710 H       1  UNL1        0.1460
     13  C         18.0440  -22.9810   -6.6780 C.2     1  UNL1        0.0310
     14  C         16.9410  -23.3170   -5.8840 C.2     1  UNL1        0.0600
     15  C         16.8070  -22.7430   -4.6140 C.2     1  UNL1        0.1040
     16  C         17.7660  -21.8510   -4.1270 C.2     1  UNL1        0.0370
     17  C         18.8660  -21.5270   -4.9240 C.2     1  UNL1        0.0110
     18  C         19.0130  -22.0790   -6.2070 C.2     1  UNL1       -0.0400
     19  C         20.2130  -21.6990   -7.0300 C.3     1  UNL1        0.0500
     20  N         15.6430  -23.0800   -3.7880 N.pl3   1  UNL1       -0.1160
     21  O         15.5180  -24.2570   -3.4230 O.2     1  UNL1       -0.5320
     22  O         14.8440  -22.1710   -3.5210 O.2     1  UNL1       -0.5320
     23  C         22.1990  -22.9740  -10.7990 C.2     1  UNL1        0.2560
     24  O         22.3640  -23.7510   -9.8680 O.2     1  UNL1       -0.2670
     25  N         23.1230  -22.6220  -11.7650 N.am    1  UNL1       -0.3230
     26  H         22.7930  -22.0650  -12.5420 H       1  UNL1        0.1690
     27  C         24.4720  -23.0310  -11.8470 C.2     1  UNL1        0.0350
     28  C         25.4260  -22.7780  -10.8600 C.2     1  UNL1        0.0290
     29  C         26.7450  -23.2170  -11.0200 C.2     1  UNL1        0.0020
     30  C         27.1200  -23.9090  -12.1680 C.2     1  UNL1        0.0000
     31  C         26.1790  -24.1630  -13.1600 C.2     1  UNL1        0.0020
     32  C         24.8610  -23.7250  -13.0010 C.2     1  UNL1        0.0290
@<TRIPOS>BOND
     1    31    32    1
     2    31    30    2
     3    32    27    2
     4    26    25    1
     5    30    29    1
     6     5     4    2
     7     5     6    1
     8     4     3    1
     9    27    25    1
    10    27    28    1
    11    25    23   am
    12     7     6    1
    13     6     1    2
    14    29    28    2
    15     3    23    1
    16     3     2    2
    17    23    24    2
    18     1     2    1
    19     1     8    1
    20    10     8    2
    21     8     9    2
    22     8    11    1
    23    12    11    1
    24    11    13    1
    25    19    18    1
    26    13    18    2
    27    13    14    1
    28    18    17    1
    29    14    15    2
    30    17    16    2
    31    15    16    1
    32    15    20    1
    33    20    22    2
    34    20    21    2
