@<TRIPOS>MOLECULE
66820_out_ligand_01.pdbqt
 33 35 0 0 0
SMALL
GASTEIGER

@<TRIPOS>ATOM
      1  N         18.5420  -24.4400   -7.2710 N.pl3   1  UNL1       -0.3490
      2  H         18.7330  -25.0360   -6.4560 H       1  UNL1        0.1660
      3  C         19.7500  -23.9860   -7.8430 C.2     1  UNL1        0.0320
      4  C         20.1740  -22.6850   -7.5360 C.2     1  UNL1        0.0300
      5  C         21.3650  -22.1660   -8.0550 C.2     1  UNL1        0.0190
      6  C         22.1520  -22.9460   -8.9060 C.2     1  UNL1        0.0320
      7  C         21.7460  -24.2490   -9.2120 C.2     1  UNL1        0.0190
      8  C         20.5530  -24.7600   -8.6880 C.2     1  UNL1        0.0300
      9  C         23.4310  -22.4490   -9.4850 C.2     1  UNL1        0.2510
     10  N         24.3210  -23.4080   -9.9220 N.am    1  UNL1       -0.3570
     11  H         24.1650  -24.3740   -9.6690 H       1  UNL1        0.1620
     12  O         23.6600  -21.2450   -9.5230 O.2     1  UNL1       -0.2680
     13  C         25.6380  -23.0480  -10.4110 C.3     1  UNL1        0.1230
     14  C         25.7560  -23.2740  -11.9190 C.3     1  UNL1        0.0230
     15  C         25.5850  -21.9890  -12.7450 C.3     1  UNL1       -0.0210
     16  C         26.1000  -20.7870  -11.9480 C.3     1  UNL1        0.0090
     17  C         24.1320  -21.7500  -13.1570 C.3     1  UNL1        0.0090
     18  C         17.3740  -23.7050   -7.0590 C.2     1  UNL1        0.1390
     19  C         16.4690  -23.3220   -7.9740 C.2     1  UNL1        0.1270
     20  C         15.3250  -22.5170   -7.4980 C.2     1  UNL1        0.1780
     21  N         15.0510  -22.2340   -6.2680 N.2     1  UNL1       -0.1790
     22  N         15.9070  -22.7280   -5.3170 N.am    1  UNL1       -0.2370
     23  C         15.5790  -22.3940   -3.9430 C.3     1  UNL1        0.1830
     24  C         17.0710  -23.4250   -5.6060 C.2     1  UNL1        0.2920
     25  O         17.8660  -23.8340   -4.7560 O.2     1  UNL1       -0.2640
     26  O         16.6180  -23.5970   -9.3250 O.2     1  UNL1       -0.3070
     27  C         17.2380  -22.6600  -10.1170 C.2     1  UNL1        0.0770
     28  C         16.5160  -21.5020  -10.4090 C.2     1  UNL1        0.0370
     29  C         17.0950  -20.4990  -11.1870 C.2     1  UNL1        0.0040
     30  C         18.4000  -20.6490  -11.6570 C.2     1  UNL1        0.0240
     31  C         19.1240  -21.7980  -11.3390 C.2     1  UNL1        0.0360
     32 CL         20.7400  -21.9710  -11.9040 Cl      1  UNL1       -0.0840
     33  C         18.5530  -22.8060  -10.5630 C.2     1  UNL1        0.0610
@<TRIPOS>BOND
     1    17    15    1
     2    15    16    1
     3    15    14    1
     4    14    13    1
     5    32    31    1
     6    30    31    2
     7    30    29    1
     8    31    33    1
     9    29    28    2
    10    33    27    2
    11    13    10    1
    12    28    27    1
    13    27    26    1
    14    10    11    1
    15    10     9   am
    16    12     9    2
    17     9     6    1
    18    26    19    1
    19     7     6    2
    20     7     8    1
    21     6     5    1
    22     8     3    2
    23     5     4    2
    24    19    20    1
    25    19    18    2
    26     3     4    1
    27     3     1    1
    28    20    21    2
    29     1    18    1
    30     1     2    1
    31    18    24    1
    32    21    22    1
    33    24    22   am
    34    24    25    2
    35    22    23    1
