@<TRIPOS>MOLECULE
66822_out_ligand_01.pdbqt
 29 31 0 0 0
SMALL
GASTEIGER

@<TRIPOS>ATOM
      1  C         19.2130  -21.4000  -11.4450 C.2     1  UNL1        0.1430
      2  C         19.9220  -20.6200  -12.3430 C.2     1  UNL1        0.0450
      3  C         21.2470  -21.1230  -12.3770 C.2     1  UNL1        0.0360
      4  C         21.2890  -22.1710  -11.4820 C.2     1  UNL1        0.0680
      5  O         20.0560  -22.3510  -10.9310 O.2     1  UNL1       -0.3080
      6  C         22.3300  -23.1290  -11.0400 C.3     1  UNL1        0.2100
      7  S         22.8530  -22.7320   -9.3780 S.O2    1  UNL1        0.1810
      8  O         23.8060  -23.7300   -8.9250 O.2     1  UNL1       -0.2220
      9  O         23.1600  -21.3170   -9.2780 O.2     1  UNL1       -0.2220
     10  C         21.3580  -22.9920   -8.4380 C.2     1  UNL1        0.0600
     11  C         20.6380  -24.1780   -8.6050 C.2     1  UNL1        0.0230
     12  C         19.4820  -24.3870   -7.8550 C.2     1  UNL1        0.0020
     13  C         19.0540  -23.4200   -6.9420 C.2     1  UNL1        0.0160
     14  C         19.7770  -22.2290   -6.7620 C.2     1  UNL1        0.0490
     15  C         20.9460  -22.0260   -7.5130 C.2     1  UNL1        0.0390
     16  C         19.3300  -21.2040   -5.7470 C.3     1  UNL1        0.4170
     17  F         20.2990  -20.2890   -5.4730 F       1  UNL1       -0.1660
     18  F         18.9830  -21.7540   -4.5500 F       1  UNL1       -0.1660
     19  F         18.2430  -20.4930   -6.1570 F       1  UNL1       -0.1660
     20  C         17.8360  -21.3960  -10.9820 C.2     1  UNL1        0.2750
     21  O         16.9940  -20.5880  -11.3660 O.2     1  UNL1       -0.2650
     22  N         17.5280  -22.3730  -10.0490 N.am    1  UNL1       -0.3510
     23  H         18.2810  -22.9100   -9.6460 H       1  UNL1        0.1630
     24  C         16.2280  -22.4240   -9.3920 C.3     1  UNL1        0.0840
     25  C         15.6370  -23.8420   -9.4790 C.3     1  UNL1        0.0250
     26  C         15.9900  -24.6800   -8.2560 C.3     1  UNL1        0.0020
     27  C         15.4450  -24.0620   -6.9670 C.3     1  UNL1        0.0000
     28  C         15.3000  -22.5410   -7.0320 C.3     1  UNL1        0.0020
     29  C         16.3470  -21.9150   -7.9440 C.3     1  UNL1        0.0250
@<TRIPOS>BOND
     1     3     2    1
     2     3     4    2
     3     2     1    2
     4     4     6    1
     5     4     5    1
     6     1    20    1
     7     1     5    1
     8    21    20    2
     9     6     7    1
    10    20    22   am
    11    22    23    1
    12    22    24    1
    13    25    24    1
    14    25    26    1
    15    24    29    1
    16     7     9    2
    17     7     8    2
    18     7    10    1
    19    11    10    2
    20    11    12    1
    21    10    15    1
    22    26    27    1
    23    29    28    1
    24    12    13    2
    25    15    14    2
    26    28    27    1
    27    13    14    1
    28    14    16    1
    29    19    16    1
    30    16    17    1
    31    16    18    1
