@<TRIPOS>MOLECULE
66839_out_ligand_01.pdbqt
 34 37 0 0 0
SMALL
GASTEIGER

@<TRIPOS>ATOM
      1  C         18.6850  -22.3870  -10.3820 C.2     1  UNL1        0.0320
      2  C         19.0180  -21.3890  -11.3040 C.2     1  UNL1        0.0190
      3  C         20.3370  -21.2660  -11.7550 C.2     1  UNL1        0.0300
      4  C         21.3400  -22.1260  -11.2860 C.2     1  UNL1        0.0360
      5  C         21.0020  -23.1170  -10.3620 C.2     1  UNL1        0.0300
      6  C         19.6830  -23.2410   -9.9050 C.2     1  UNL1        0.0190
      7  C         17.2970  -22.5470   -9.8650 C.2     1  UNL1        0.2510
      8  O         16.4110  -21.7860  -10.2350 O.2     1  UNL1       -0.2680
      9  N         17.1060  -23.5650   -8.9510 N.am    1  UNL1       -0.3570
     10  H         17.9230  -23.9120   -8.4690 H       1  UNL1        0.1620
     11  C         15.8290  -23.7170   -8.2720 C.3     1  UNL1        0.1240
     12  C         16.0100  -24.4150   -6.9270 C.3     1  UNL1        0.0500
     13  C         15.8080  -23.4680   -5.7380 C.3     1  UNL1        0.2740
     14  N         16.9490  -22.5690   -5.5030 N.3     1  UNL1        0.0880
     15  C         16.9640  -22.1320   -4.1010 C.3     1  UNL1        0.2720
     16  C         18.1880  -21.3390   -3.6310 C.3     1  UNL1        0.0300
     17  C         18.7450  -20.3620   -4.6630 C.3     1  UNL1        0.0020
     18  C         19.7170  -21.0370   -5.6290 C.3     1  UNL1        0.0020
     19  C         19.0900  -22.0450   -6.5900 C.3     1  UNL1        0.0300
     20  C         18.2280  -23.1350   -5.9470 C.3     1  UNL1        0.2720
     21  N         22.6360  -21.9370  -11.7990 N.am    1  UNL1       -0.3090
     22  C         23.7660  -21.5160  -11.1250 C.2     1  UNL1        0.3270
     23  O         23.7720  -21.0980   -9.9690 O.2     1  UNL1       -0.2460
     24  N         24.9240  -21.4950  -11.9180 N.am    1  UNL1       -0.2960
     25  C         25.9920  -20.5720  -11.5290 C.3     1  UNL1        0.1440
     26  C         25.2270  -22.3920  -12.9970 C.2     1  UNL1        0.0740
     27  C         26.3650  -19.6480  -12.6760 C.3     1  UNL1        0.1010
     28  S         27.1210  -20.5680  -14.0420 S.3     1  UNL1       -0.1060
     29  C         26.1820  -22.0850  -13.9840 C.2     1  UNL1        0.1200
     30  N         26.4830  -22.9260  -15.0070 N.2     1  UNL1       -0.2520
     31  C         25.8590  -24.1180  -15.0540 C.2     1  UNL1        0.1180
     32  C         24.9360  -24.5280  -14.1150 C.2     1  UNL1        0.0220
     33  C         24.6250  -23.6570  -13.0750 C.2     1  UNL1        0.0340
     34  H         22.7260  -21.9470  -12.8050 H       1  UNL1        0.1700
@<TRIPOS>BOND
     1    31    30    2
     2    31    32    1
     3    30    29    1
     4    32    33    2
     5    28    29    1
     6    28    27    1
     7    29    26    2
     8    33    26    1
     9    26    24    1
    10    34    21    1
    11    27    25    1
    12    24    25    1
    13    24    22   am
    14    21     4    1
    15    21    22   am
    16     3     2    1
    17     3     4    2
    18     2     1    2
    19     4     5    1
    20    22    23    2
    21     1     6    1
    22     1     7    1
    23     5     6    2
    24     8     7    2
    25     7     9   am
    26     9    10    1
    27     9    11    1
    28    11    12    1
    29    12    13    1
    30    19    20    1
    31    19    18    1
    32    20    14    1
    33    13    14    1
    34    18    17    1
    35    14    15    1
    36    17    16    1
    37    15    16    1
