@<TRIPOS>MOLECULE
66844_out_ligand_01.pdbqt
 35 38 0 0 0
SMALL
GASTEIGER

@<TRIPOS>ATOM
      1  N         19.6140  -23.9850   -8.4940 N.3     1  UNL1        0.1040
      2  C         21.0230  -24.4100   -8.6920 C.3     1  UNL1        0.3590
      3  C         21.9970  -23.3290   -9.0600 C.2     1  UNL1        0.1740
      4  O         22.1780  -22.3160   -8.1580 O.2     1  UNL1       -0.3030
      5  C         23.1080  -21.5110   -8.7410 C.2     1  UNL1        0.1810
      6  C         23.4600  -22.0490   -9.9610 C.2     1  UNL1        0.1490
      7  N         22.7320  -23.2150  -10.1480 N.2     1  UNL1       -0.2190
      8  C         24.4180  -21.5370  -10.9430 C.2     1  UNL1        0.2720
      9  O         25.3780  -20.8410  -10.6230 O.2     1  UNL1       -0.2660
     10  N         24.1740  -21.8840  -12.2550 N.am    1  UNL1       -0.3530
     11  H         23.4130  -22.5010  -12.5040 H       1  UNL1        0.1620
     12  C         25.0530  -21.4980  -13.3460 C.3     1  UNL1        0.1550
     13  C         25.6160  -22.7160  -14.0830 C.3     1  UNL1        0.1390
     14  C         25.1460  -24.0660  -13.5620 C.3     1  UNL1        0.0350
     15  C         25.3820  -24.9450  -14.7680 C.3     1  UNL1        0.0290
     16  C         24.9940  -24.0290  -15.9130 C.3     1  UNL1        0.1680
     17  O         25.2340  -22.6770  -15.4780 O.3     1  UNL1       -0.3840
     18  C         19.5710  -22.6030   -7.9700 C.3     1  UNL1        0.3110
     19  C         18.9460  -22.4940   -6.5940 C.2     1  UNL1       -0.0300
     20  C         18.1450  -23.5300   -6.0900 C.2     1  UNL1        0.0090
     21  C         17.5590  -23.4240   -4.8280 C.2     1  UNL1        0.0010
     22  C         17.7630  -22.2810   -4.0570 C.2     1  UNL1        0.0000
     23  C         18.5530  -21.2410   -4.5500 C.2     1  UNL1        0.0010
     24  C         19.1390  -21.3460   -5.8120 C.2     1  UNL1        0.0090
     25  C         18.7850  -24.1290   -9.6980 C.3     1  UNL1        0.3120
     26  C         18.4930  -22.8100  -10.3980 C.2     1  UNL1       -0.0150
     27  C         19.5330  -22.1960  -11.1270 C.2     1  UNL1        0.0100
     28  C         19.3260  -21.0020  -11.8170 C.2     1  UNL1        0.0010
     29  C         18.0780  -20.3950  -11.7880 C.2     1  UNL1        0.0010
     30  C         17.0390  -20.9760  -11.0610 C.2     1  UNL1        0.0170
     31  C         17.2280  -22.1800  -10.3490 C.2     1  UNL1        0.0550
     32  C         16.0600  -22.7520   -9.5690 C.3     1  UNL1        0.4180
     33  F         15.9640  -24.1080   -9.6470 F       1  UNL1       -0.1660
     34  F         16.0800  -22.4260   -8.2480 F       1  UNL1       -0.1660
     35  F         14.8530  -22.2900  -10.0220 F       1  UNL1       -0.1660
@<TRIPOS>BOND
     1    16    17    1
     2    16    15    1
     3    17    13    1
     4    15    14    1
     5    13    14    1
     6    13    12    1
     7    12    10    1
     8    11    10    1
     9    10     8   am
    10    28    29    2
    11    28    27    1
    12    29    30    1
    13    27    26    2
    14    30    31    2
    15     8     9    2
    16     8     6    1
    17    26    31    1
    18    26    25    1
    19    31    32    1
    20     7     6    1
    21     7     3    2
    22    35    32    1
    23     6     5    2
    24    25     1    1
    25    33    32    1
    26    32    34    1
    27     3     2    1
    28     3     4    1
    29     5     4    1
    30     2     1    1
    31     1    18    1
    32    18    19    1
    33    19    20    2
    34    19    24    1
    35    20    21    1
    36    24    23    2
    37    21    22    2
    38    23    22    1
