@<TRIPOS>MOLECULE
66849_out_ligand_01.pdbqt
 36 39 0 0 0
SMALL
GASTEIGER

@<TRIPOS>ATOM
      1  C         17.6740  -23.2370   -8.8910 C.2     1  UNL1        0.0810
      2  C         16.9830  -22.5660   -9.9040 C.2     1  UNL1        0.0270
      3  C         17.6920  -21.9100  -10.9140 C.2     1  UNL1        0.0320
      4  C         19.0900  -21.9070  -10.9070 C.2     1  UNL1        0.0460
      5  N         19.8170  -21.2880  -11.9300 N.pl3   1  UNL1       -0.3640
      6  C         21.1880  -21.2470  -11.8900 C.2     1  UNL1        0.1090
      7  C         21.9580  -21.8560  -10.9720 C.2     1  UNL1        0.0980
      8  C         21.2560  -22.6330   -9.9110 C.2     1  UNL1        0.2010
      9  O         21.8710  -23.2990   -9.0810 O.2     1  UNL1       -0.2860
     10  C         19.7700  -22.5970   -9.8860 C.2     1  UNL1        0.0430
     11  C         19.0700  -23.2460   -8.8640 C.2     1  UNL1        0.0430
     12  H         19.3360  -20.6660  -12.5710 H       1  UNL1        0.1650
     13  S         16.7760  -24.0570   -7.5920 S.O2    1  UNL1        0.2630
     14  O         15.5980  -24.6470   -8.1940 O.2     1  UNL1       -0.2000
     15  O         17.7140  -24.8640   -6.8420 O.2     1  UNL1       -0.2000
     16  N         16.2290  -22.7820   -6.6360 N.pl3   1  UNL1       -0.2800
     17  H         15.6750  -22.1080   -7.1600 H       1  UNL1        0.1790
     18  C         17.0040  -22.3220   -5.5330 C.2     1  UNL1        0.0480
     19  C         18.1200  -21.5100   -5.7590 C.2     1  UNL1        0.0300
     20  C         18.8780  -21.0350   -4.6900 C.2     1  UNL1        0.0020
     21  C         18.5280  -21.3740   -3.3870 C.2     1  UNL1        0.0010
     22  C         17.4250  -22.1960   -3.1530 C.2     1  UNL1        0.0090
     23  C         16.6530  -22.6850   -4.2200 C.2     1  UNL1       -0.0350
     24  C         15.4880  -23.5870   -3.9220 C.3     1  UNL1        0.0500
     25  C         23.4390  -21.7170  -11.0830 C.2     1  UNL1        0.2570
     26  O         24.1210  -21.3170  -10.1440 O.2     1  UNL1       -0.2670
     27  N         23.9670  -22.0630  -12.3020 N.am    1  UNL1       -0.3520
     28  H         23.3120  -22.2730  -13.0570 H       1  UNL1        0.1630
     29  C         25.3710  -21.8670  -12.6410 C.3     1  UNL1        0.0880
     30  C         25.6020  -20.3820  -12.9810 C.3     1  UNL1        0.0250
     31  C         26.7120  -20.1860  -14.0020 C.3     1  UNL1        0.0020
     32  C         26.3950  -20.8930  -15.3200 C.3     1  UNL1        0.0050
     33  C         25.5790  -22.1940  -15.1560 C.3     1  UNL1       -0.0130
     34  C         25.8690  -23.1300  -16.3320 C.3     1  UNL1        0.0100
     35  C         25.8450  -22.8260  -13.7700 C.3     1  UNL1        0.0080
     36  C         25.2660  -24.2370  -13.6110 C.3     1  UNL1        0.0120
@<TRIPOS>BOND
     1    34    33    1
     2    32    33    1
     3    32    31    1
     4    33    35    1
     5    31    30    1
     6    35    36    1
     7    35    29    1
     8    28    27    1
     9    30    29    1
    10    29    27    1
    11    12     5    1
    12    27    25   am
    13     5     6    1
    14     5     4    1
    15     6     7    2
    16    25     7    1
    17    25    26    2
    18     7     8    1
    19     3     4    2
    20     3     2    1
    21     4    10    1
    22     8    10    1
    23     8     9    2
    24     2     1    2
    25    10    11    2
    26     1    11    1
    27     1    13    1
    28    14    13    2
    29    13    15    2
    30    13    16    1
    31    17    16    1
    32    16    18    1
    33    19    18    2
    34    19    20    1
    35    18    23    1
    36    20    21    2
    37    23    24    1
    38    23    22    2
    39    21    22    1
