@<TRIPOS>MOLECULE
66842_out_ligand_01.pdbqt
 34 37 0 0 0
SMALL
GASTEIGER

@<TRIPOS>ATOM
      1  N         19.1560  -23.8860   -8.3450 N.3     1  UNL1       -0.3930
      2  C         18.4340  -23.9950   -9.6120 C.3     1  UNL1        0.1570
      3  C         18.3900  -22.6740  -10.3670 C.2     1  UNL1       -0.0350
      4  C         19.5850  -22.2070  -10.9490 C.2     1  UNL1        0.0090
      5  C         19.6300  -20.9970  -11.6390 C.2     1  UNL1        0.0010
      6  C         18.4810  -20.2260  -11.7510 C.2     1  UNL1        0.0010
      7  C         17.2910  -20.6640  -11.1690 C.2     1  UNL1        0.0070
      8  C         17.2270  -21.8840  -10.4740 C.2     1  UNL1       -0.0540
      9  C         15.9200  -22.2920   -9.8600 C.3     1  UNL1        0.0490
     10  C         20.5080  -24.4690   -8.3730 C.3     1  UNL1        0.2040
     11  C         21.6190  -23.5360   -8.7490 C.2     1  UNL1        0.1630
     12  N         22.5080  -23.6710   -9.7160 N.2     1  UNL1       -0.2190
     13  C         23.2830  -22.5220   -9.6160 C.2     1  UNL1        0.1490
     14  C         22.8110  -21.7440   -8.5840 C.2     1  UNL1        0.1810
     15  O         21.7500  -22.3850   -8.0180 O.2     1  UNL1       -0.3040
     16  C         24.4130  -22.2380  -10.4880 C.2     1  UNL1        0.2720
     17  O         24.9570  -21.1420  -10.5540 O.2     1  UNL1       -0.2660
     18  N         24.7950  -23.3440  -11.2080 N.am    1  UNL1       -0.3510
     19  H         24.2390  -24.1840  -11.0760 H       1  UNL1        0.1630
     20  C         25.8880  -23.3410  -12.1410 C.3     1  UNL1        0.1630
     21  C         25.4220  -23.3880  -13.5650 C.2     1  UNL1       -0.0230
     22  C         24.7730  -22.3020  -14.1550 C.2     1  UNL1        0.0120
     23  C         24.4040  -22.3590  -15.4980 C.2     1  UNL1        0.0200
     24  C         24.6820  -23.5160  -16.2050 C.2     1  UNL1        0.1160
     25  N         25.2900  -24.5970  -15.6660 N.2     1  UNL1       -0.2730
     26  C         25.6410  -24.5100  -14.3610 C.2     1  UNL1        0.1240
     27  C         18.3900  -24.1720   -7.1210 C.3     1  UNL1        0.1090
     28  C         16.9470  -24.6670   -7.3310 C.3     1  UNL1        0.0370
     29  C         18.4770  -22.9720   -6.1760 C.2     1  UNL1       -0.0360
     30  C         17.8190  -23.0340   -4.9340 C.2     1  UNL1        0.0090
     31  C         17.8950  -21.9750   -4.0280 C.2     1  UNL1        0.0010
     32  C         18.6390  -20.8420   -4.3390 C.2     1  UNL1        0.0000
     33  C         19.3070  -20.7670   -5.5590 C.2     1  UNL1        0.0010
     34  C         19.2290  -21.8240   -6.4690 C.2     1  UNL1        0.0090
@<TRIPOS>BOND
     1    24    25    2
     2    24    23    1
     3    25    26    1
     4    23    22    2
     5    26    21    2
     6    22    21    1
     7    21    20    1
     8    20    18    1
     9     6     5    2
    10     6     7    1
    11     5     4    1
    12    18    19    1
    13    18    16   am
    14     7     8    2
    15     4     3    2
    16    17    16    2
    17    16    13    1
    18     8     3    1
    19     8     9    1
    20     3     2    1
    21    12    13    1
    22    12    11    2
    23    13    14    2
    24     2     1    1
    25    11    10    1
    26    11    15    1
    27    14    15    1
    28    10     1    1
    29     1    27    1
    30    28    27    1
    31    27    29    1
    32    34    29    2
    33    34    33    1
    34    29    30    1
    35    33    32    2
    36    30    31    2
    37    32    31    1
