@<TRIPOS>MOLECULE
66884_out_ligand_01.pdbqt
 32 35 0 0 0
SMALL
GASTEIGER

@<TRIPOS>ATOM
      1  C         18.1040  -21.9530  -10.5090 C.2     1  UNL1       -0.0400
      2  C         18.6450  -21.2810  -11.6260 C.2     1  UNL1        0.0110
      3  C         19.9990  -21.4010  -11.9580 C.2     1  UNL1        0.0310
      4  C         20.8080  -22.1880  -11.1590 C.2     1  UNL1        0.0430
      5  C         20.2840  -22.8480  -10.0460 C.2     1  UNL1       -0.0290
      6  C         18.9420  -22.7420   -9.7070 C.2     1  UNL1        0.0180
      7  C         21.3300  -23.6570   -9.3510 C.2     1  UNL1        0.0610
      8  C         22.5920  -23.3110  -10.1510 C.2     1  UNL1        0.1370
      9  N         22.1840  -22.4550  -11.2810 N.am    1  UNL1       -0.3130
     10  C         22.9950  -22.0310  -12.3210 C.2     1  UNL1        0.2580
     11  O         22.6420  -21.4090  -13.3200 O.2     1  UNL1       -0.2670
     12  C         16.6460  -21.7840  -10.1680 C.3     1  UNL1        0.1610
     13  N         16.4510  -21.8460   -8.7370 N.am    1  UNL1       -0.3530
     14  C         15.8390  -22.9170   -8.1330 C.2     1  UNL1        0.2520
     15  O         15.4890  -23.9360   -8.7160 O.2     1  UNL1       -0.2680
     16  H         16.7410  -21.0370   -8.2010 H       1  UNL1        0.1630
     17  C         15.6610  -22.8220   -6.6630 C.2     1  UNL1        0.0470
     18  C         14.5160  -22.1440   -6.2160 C.2     1  UNL1        0.0180
     19  C         14.2620  -22.0100   -4.8520 C.2     1  UNL1        0.0010
     20  C         15.1540  -22.5460   -3.9260 C.2     1  UNL1        0.0010
     21  C         16.3070  -23.2020   -4.3640 C.2     1  UNL1        0.0170
     22  C         16.5860  -23.3390   -5.7380 C.2     1  UNL1        0.0630
     23  C         17.8580  -24.0100   -6.1790 C.3     1  UNL1        0.4180
     24  F         18.4090  -24.8070   -5.2290 F       1  UNL1       -0.1660
     25  F         18.8100  -23.1020   -6.5360 F       1  UNL1       -0.1660
     26  F         17.6910  -24.8060   -7.2740 F       1  UNL1       -0.1660
     27  C         24.4270  -22.3840  -12.2330 C.2     1  UNL1        0.0320
     28  C         25.3200  -21.5380  -11.5670 C.2     1  UNL1        0.0170
     29  C         26.6700  -21.8830  -11.5010 C.2     1  UNL1        0.0010
     30  C         27.1210  -23.0570  -12.1090 C.2     1  UNL1        0.0000
     31  C         26.2290  -23.8870  -12.7920 C.2     1  UNL1        0.0010
     32  C         24.8770  -23.5480  -12.8610 C.2     1  UNL1        0.0170
@<TRIPOS>BOND
     1    11    10    2
     2    32    31    1
     3    32    27    2
     4    31    30    2
     5    10    27    1
     6    10     9   am
     7    27    28    1
     8    30    29    1
     9     3     2    1
    10     3     4    2
    11     2     1    2
    12    28    29    2
    13     9     4    1
    14     9     8    1
    15     4     5    1
    16     1    12    1
    17     1     6    1
    18    12    13    1
    19     8     7    2
    20     5     6    2
    21     5     7    1
    22    13    16    1
    23    13    14   am
    24    15    14    2
    25    14    17    1
    26    26    23    1
    27    17    18    2
    28    17    22    1
    29    25    23    1
    30    18    19    1
    31    23    22    1
    32    23    24    1
    33    22    21    2
    34    19    20    2
    35    21    20    1
