@<TRIPOS>MOLECULE
66887_out_ligand_01.pdbqt
 38 42 0 0 0
SMALL
GASTEIGER

@<TRIPOS>ATOM
      1  C         22.5000  -22.5710   -9.0670 C.2     1  UNL1        0.0810
      2  C         22.6830  -23.9370   -9.0300 C.2     1  UNL1        0.0370
      3  C         21.4280  -24.4980   -8.6920 C.2     1  UNL1        0.0390
      4  C         20.5460  -23.4420   -8.5330 C.2     1  UNL1        0.0970
      5  O         21.2130  -22.2640   -8.7400 O.2     1  UNL1       -0.3140
      6  C         19.0580  -23.3260   -8.2260 C.3     1  UNL1        0.1610
      7  O         18.5430  -24.6730   -8.1850 O.3     1  UNL1       -0.3730
      8  H         17.5830  -24.5840   -8.0410 H       1  UNL1        0.2120
      9  C         18.3300  -22.5680   -9.3530 C.2     1  UNL1       -0.0100
     10  C         16.9390  -22.3530   -9.3180 C.2     1  UNL1        0.0110
     11  C         16.2840  -21.6500  -10.3370 C.2     1  UNL1        0.0040
     12  C         17.0090  -21.1450  -11.4110 C.2     1  UNL1        0.0420
     13  C         18.3810  -21.3440  -11.4570 C.2     1  UNL1        0.1170
     14  F         19.0840  -20.8580  -12.4910 F       1  UNL1       -0.2060
     15  C         19.0420  -22.0380  -10.4470 C.2     1  UNL1        0.0530
     16  C         18.7780  -22.7920   -6.8110 C.2     1  UNL1       -0.0100
     17  C         18.0420  -23.5700   -5.8880 C.2     1  UNL1        0.0110
     18  C         17.7600  -23.1050   -4.5980 C.2     1  UNL1        0.0040
     19  C         18.1830  -21.8400   -4.2090 C.2     1  UNL1        0.0420
     20  C         18.8730  -21.0470   -5.1160 C.2     1  UNL1        0.1170
     21  F         19.2490  -19.8160   -4.7540 F       1  UNL1       -0.2060
     22  C         19.1630  -21.5020   -6.4020 C.2     1  UNL1        0.0530
     23  C         23.3810  -21.4180   -9.4120 C.3     1  UNL1        0.3370
     24  N         24.0090  -21.5330  -10.7370 N.3     1  UNL1        0.1040
     25  C         23.4780  -22.6860  -11.4790 C.3     1  UNL1        0.3120
     26  C         24.0760  -22.8340  -12.8680 C.2     1  UNL1       -0.0240
     27  C         25.0460  -23.8350  -13.0700 C.2     1  UNL1        0.0090
     28  C         25.6360  -24.0290  -14.3160 C.2     1  UNL1        0.0010
     29  C         25.2710  -23.2190  -15.3850 C.2     1  UNL1        0.0010
     30  C         24.3150  -22.2200  -15.2070 C.2     1  UNL1        0.0070
     31  C         23.7040  -22.0170  -13.9580 C.2     1  UNL1       -0.0540
     32  C         22.6630  -20.9390  -13.8270 C.3     1  UNL1        0.0490
     33  C         25.4850  -21.4670  -10.7330 C.3     1  UNL1        0.3370
     34  C         26.1460  -20.3530  -11.4870 C.2     1  UNL1        0.0800
     35  C         26.4810  -20.1060  -12.8050 C.2     1  UNL1        0.0360
     36  C         27.1200  -18.8430  -12.8360 C.2     1  UNL1        0.0270
     37  C         27.1110  -18.3790  -11.5430 C.2     1  UNL1        0.1420
     38  O         26.5210  -19.2810  -10.7200 O.2     1  UNL1       -0.3250
@<TRIPOS>BOND
     1    29    30    2
     2    29    28    1
     3    30    31    1
     4    28    27    2
     5    31    32    1
     6    31    26    2
     7    27    26    1
     8    26    25    1
     9    36    35    1
    10    36    37    2
    11    35    34    2
    12    14    13    1
    13    37    38    1
    14    34    33    1
    15    34    38    1
    16    25    24    1
    17    13    12    2
    18    13    15    1
    19    12    11    1
    20    24    33    1
    21    24    23    1
    22    15     9    2
    23    11    10    2
    24    23     1    1
    25     9    10    1
    26     9     6    1
    27     1     2    2
    28     1     5    1
    29     2     3    1
    30     5     4    1
    31     3     4    2
    32     4     6    1
    33     6     7    1
    34     6    16    1
    35     7     8    1
    36    16    22    2
    37    16    17    1
    38    22    20    1
    39    17    18    2
    40    20    21    1
    41    20    19    2
    42    18    19    1
