@<TRIPOS>MOLECULE
66895_out_ligand_01.pdbqt
 34 36 0 0 0
SMALL
GASTEIGER

@<TRIPOS>ATOM
      1  C         22.8170  -22.8610   -9.3360 C.2     1  UNL1       -0.0400
      2  C         22.5020  -21.9100   -8.3520 C.2     1  UNL1        0.0100
      3  C         21.3110  -22.0060   -7.6300 C.2     1  UNL1        0.0170
      4  C         20.4110  -23.0460   -7.8890 C.2     1  UNL1        0.0320
      5  C         20.7230  -24.0040   -8.8620 C.2     1  UNL1        0.0170
      6  C         21.9170  -23.9080   -9.5840 C.2     1  UNL1        0.0100
      7  C         24.1040  -22.7440  -10.1160 C.3     1  UNL1        0.1700
      8  N         23.9610  -23.3370  -11.4370 N.3     1  UNL1       -0.3110
      9  H         23.2250  -24.0230  -11.5920 H       1  UNL1        0.1720
     10  S         25.3340  -23.5790  -12.3550 S.O2    1  UNL1        0.2590
     11  O         26.4430  -23.7770  -11.4480 O.2     1  UNL1       -0.2010
     12  O         24.9900  -24.5500  -13.3690 O.2     1  UNL1       -0.2010
     13  C         25.5190  -22.0090  -13.1570 C.2     1  UNL1        0.0790
     14  C         24.8450  -21.7730  -14.3570 C.2     1  UNL1        0.0270
     15  C         24.9700  -20.5320  -14.9880 C.2     1  UNL1        0.0310
     16  C         25.7690  -19.5280  -14.4330 C.2     1  UNL1        0.0340
     17  C         26.4470  -19.7860  -13.2330 C.2     1  UNL1        0.0310
     18  C         26.3260  -21.0220  -12.5910 C.2     1  UNL1        0.0270
     19  N         25.9440  -18.2520  -15.0070 N.am    1  UNL1       -0.3280
     20  C         26.5730  -17.9460  -16.2010 C.2     1  UNL1        0.2180
     21  C         26.5700  -16.4620  -16.4740 C.3     1  UNL1        0.1170
     22  O         27.0940  -18.7310  -16.9860 O.2     1  UNL1       -0.2740
     23  H         25.5620  -17.4730  -14.4860 H       1  UNL1        0.1690
     24  C         19.1580  -23.1090   -7.0910 C.2     1  UNL1        0.2520
     25  O         18.8240  -22.1520   -6.4010 O.2     1  UNL1       -0.2680
     26  N         18.4170  -24.2680   -7.2010 N.am    1  UNL1       -0.3520
     27  H         18.7410  -25.0130   -7.8010 H       1  UNL1        0.1630
     28  C         17.2110  -24.4980   -6.4050 C.3     1  UNL1        0.0840
     29  C         17.3850  -23.8420   -5.0290 C.3     1  UNL1        0.0250
     30  C         16.0970  -23.6510   -4.2320 C.3     1  UNL1        0.0020
     31  C         15.3960  -22.3330   -4.5560 C.3     1  UNL1        0.0000
     32  C         14.7140  -22.2730   -5.9190 C.3     1  UNL1        0.0000
     33  C         15.6080  -22.6000   -7.1140 C.3     1  UNL1        0.0020
     34  C         15.9630  -24.0830   -7.1970 C.3     1  UNL1        0.0250
@<TRIPOS>BOND
     1    22    20    2
     2    21    20    1
     3    20    19   am
     4    19    23    1
     5    19    16    1
     6    15    16    2
     7    15    14    1
     8    16    17    1
     9    14    13    2
    10    12    10    2
    11    17    18    2
    12    13    18    1
    13    13    10    1
    14    10    11    2
    15    10     8    1
    16     9     8    1
    17     8     7    1
    18     7     1    1
    19     6     1    2
    20     6     5    1
    21     1     2    1
    22     5     4    2
    23     2     3    2
    24     4     3    1
    25     4    24    1
    26    27    26    1
    27    26    24   am
    28    26    28    1
    29    34    33    1
    30    34    28    1
    31    33    32    1
    32    24    25    2
    33    28    29    1
    34    32    31    1
    35    29    30    1
    36    31    30    1
