@<TRIPOS>MOLECULE
668_out_ligand_01.pdbqt
 32 34 0 0 0
SMALL
GASTEIGER

@<TRIPOS>ATOM
      1  C         20.2870  -22.5650   -8.8550 C.3     1  UNL1        0.1860
      2  C         21.6500  -22.9160   -9.5310 C.2     1  UNL1        0.2440
      3  N         22.1990  -21.8420  -10.2250 N.am    1  UNL1       -0.3250
      4  H         21.6270  -21.0090  -10.3000 H       1  UNL1        0.1690
      5  O         22.1320  -24.0460   -9.4550 O.2     1  UNL1       -0.2710
      6  C         23.4350  -21.8000  -10.9040 C.2     1  UNL1        0.0360
      7  C         24.6540  -21.5080  -10.2930 C.2     1  UNL1        0.0300
      8  C         25.8370  -21.4770  -11.0430 C.2     1  UNL1        0.0110
      9  C         25.8250  -21.7350  -12.4200 C.2     1  UNL1       -0.0400
     10  C         27.1120  -21.6890  -13.1940 C.3     1  UNL1        0.0500
     11  C         24.5980  -22.0230  -13.0290 C.2     1  UNL1        0.0420
     12  C         23.4160  -22.0550  -12.2790 C.2     1  UNL1        0.0530
     13 CL         24.4850  -22.3470  -14.7230 Cl      1  UNL1       -0.0840
     14  N         19.7310  -23.7340   -8.1480 N.pl3   1  UNL1       -0.2760
     15  H         20.5130  -24.3100   -7.8280 H       1  UNL1        0.1290
     16  C         18.8290  -23.5230   -7.0950 C.2     1  UNL1        0.0090
     17  C         17.7570  -24.4160   -6.9390 C.2     1  UNL1        0.0240
     18  C         16.7890  -24.2270   -5.9480 C.2     1  UNL1        0.0190
     19  C         16.8510  -23.1120   -5.1100 C.2     1  UNL1        0.0310
     20  C         17.8940  -22.1940   -5.2720 C.2     1  UNL1        0.0190
     21  C         18.8590  -22.3930   -6.2700 C.2     1  UNL1        0.0240
     22  C         15.8010  -22.9470   -4.0700 C.2     1  UNL1        0.2490
     23  N         15.6550  -23.9530   -3.1530 N.am    1  UNL1       -0.3660
     24  H         16.3860  -24.6280   -2.9820 H       1  UNL1        0.1590
     25  H         15.0260  -23.7500   -2.3860 H       1  UNL1        0.1590
     26  O         15.1110  -21.9370   -4.0030 O.2     1  UNL1       -0.2680
     27  C         19.2550  -22.0870   -9.8720 C.2     1  UNL1       -0.0310
     28  C         19.6900  -21.4830  -11.0640 C.2     1  UNL1        0.0090
     29  C         18.7710  -21.0280  -12.0120 C.2     1  UNL1        0.0010
     30  C         17.4050  -21.1590  -11.7750 C.2     1  UNL1        0.0000
     31  C         16.9550  -21.7320  -10.5880 C.2     1  UNL1        0.0010
     32  C         17.8730  -22.1870   -9.6380 C.2     1  UNL1        0.0090
@<TRIPOS>BOND
     1    13    11    1
     2    10     9    1
     3    11     9    2
     4    11    12    1
     5     9     8    1
     6    12     6    2
     7    29    30    2
     8    29    28    1
     9    30    31    1
    10    28    27    2
    11     8     7    2
    12     6     7    1
    13     6     3    1
    14    31    32    2
    15     4     3    1
    16     3     2   am
    17    27    32    1
    18    27     1    1
    19     2     5    2
    20     2     1    1
    21     1    14    1
    22    14    15    1
    23    14    16    1
    24    16    17    2
    25    16    21    1
    26    17    18    1
    27    21    20    2
    28    18    19    2
    29    20    19    1
    30    19    22    1
    31    22    26    2
    32    22    23   am
    33    23    24    1
    34    23    25    1
