@<TRIPOS>MOLECULE
6690_out_ligand_01.pdbqt
 29 32 0 0 0
SMALL
GASTEIGER

@<TRIPOS>ATOM
      1  C         22.2910  -21.7790  -12.3360 C.2     1  UNL1        0.0320
      2  C         22.5520  -22.5890  -11.2330 C.2     1  UNL1        0.0190
      3  C         21.5370  -22.8700  -10.3090 C.2     1  UNL1        0.0310
      4  C         20.2370  -22.3590  -10.4590 C.2     1  UNL1        0.0430
      5  C         19.9860  -21.5280  -11.5720 C.2     1  UNL1       -0.0300
      6  C         21.0130  -21.2360  -12.4900 C.2     1  UNL1        0.0260
      7  C         18.6410  -20.8950  -11.8080 C.3     1  UNL1        0.0420
      8  C         17.5470  -21.6640  -11.0950 C.3     1  UNL1        0.0250
      9  C         17.9460  -21.8610   -9.6440 C.3     1  UNL1        0.1330
     10  N         19.1950  -22.6230   -9.4970 N.am    1  UNL1       -0.3130
     11  C         19.3310  -23.5880   -8.4820 C.2     1  UNL1        0.2580
     12  O         20.1230  -24.5280   -8.4730 O.2     1  UNL1       -0.2670
     13  C         23.3380  -21.4400  -13.3410 C.2     1  UNL1        0.2510
     14  O         23.0180  -21.0290  -14.4510 O.2     1  UNL1       -0.2680
     15  N         24.6430  -21.6430  -12.9540 N.am    1  UNL1       -0.3540
     16  H         24.8260  -22.2600  -12.1710 H       1  UNL1        0.1620
     17  C         25.7360  -21.5220  -13.9060 C.3     1  UNL1        0.1550
     18  C         26.0070  -22.8390  -14.6320 C.3     1  UNL1        0.1390
     19  C         25.4810  -24.0750  -13.9170 C.3     1  UNL1        0.0350
     20  C         25.3380  -25.0450  -15.0640 C.3     1  UNL1        0.0290
     21  C         24.8430  -24.1460  -16.1770 C.3     1  UNL1        0.1680
     22  O         25.3830  -22.8370  -15.9350 O.3     1  UNL1       -0.3840
     23  C         18.4400  -23.4970   -7.3000 C.2     1  UNL1        0.0340
     24  C         17.3510  -24.3690   -7.2030 C.2     1  UNL1        0.0170
     25  C         16.5150  -24.3140   -6.0880 C.2     1  UNL1        0.0030
     26  C         16.7770  -23.3990   -5.0670 C.2     1  UNL1        0.0240
     27  C         17.8810  -22.5490   -5.1600 C.2     1  UNL1        0.0350
     28 CL         18.2060  -21.4330   -3.8910 Cl      1  UNL1       -0.0840
     29  C         18.7230  -22.5960   -6.2680 C.2     1  UNL1        0.0410
@<TRIPOS>BOND
     1    21    22    1
     2    21    20    1
     3    22    18    1
     4    20    19    1
     5    18    19    1
     6    18    17    1
     7    14    13    2
     8    17    15    1
     9    13    15   am
    10    13     1    1
    11    15    16    1
    12     6     1    2
    13     6     5    1
    14     1     2    1
    15     7     5    1
    16     7     8    1
    17     5     4    2
    18     2     3    2
    19     8     9    1
    20     4     3    1
    21     4    10    1
    22     9    10    1
    23    10    11   am
    24    11    12    2
    25    11    23    1
    26    23    24    2
    27    23    29    1
    28    24    25    1
    29    29    27    2
    30    25    26    2
    31    27    26    1
    32    27    28    1
