@<TRIPOS>MOLECULE
66911_out_ligand_01.pdbqt
 34 37 0 0 0
SMALL
GASTEIGER

@<TRIPOS>ATOM
      1  N         18.8920  -23.7740   -8.1140 N.3     1  UNL1        0.1080
      2  C         18.1960  -23.9440   -9.4030 C.3     1  UNL1        0.3130
      3  C         18.3170  -22.7320  -10.3130 C.2     1  UNL1       -0.0240
      4  C         17.2480  -21.8400  -10.5480 C.2     1  UNL1       -0.0540
      5  C         17.4560  -20.7340  -11.3870 C.2     1  UNL1        0.0080
      6  C         15.8920  -22.0330   -9.9280 C.3     1  UNL1        0.0490
      7  C         18.6950  -20.5070  -11.9900 C.2     1  UNL1        0.0070
      8  C         19.7590  -21.3800  -11.7630 C.2     1  UNL1       -0.0610
      9  C         21.0980  -21.1550  -12.4020 C.3     1  UNL1        0.0480
     10  C         19.5620  -22.4840  -10.9260 C.2     1  UNL1        0.0160
     11  C         20.2220  -24.4230   -8.1450 C.3     1  UNL1        0.3590
     12  C         21.3670  -23.5240   -8.5170 C.2     1  UNL1        0.1740
     13  N         22.2700  -23.6960   -9.4670 N.2     1  UNL1       -0.2190
     14  C         23.0870  -22.5780   -9.3510 C.2     1  UNL1        0.1490
     15  C         22.6310  -21.7860   -8.3230 C.2     1  UNL1        0.1810
     16  O         21.5270  -22.3730   -7.7870 O.2     1  UNL1       -0.3030
     17  C         24.2320  -22.3090  -10.2090 C.2     1  UNL1        0.2720
     18  O         24.6590  -21.1780  -10.4220 O.2     1  UNL1       -0.2660
     19  N         24.7620  -23.4500  -10.7650 N.am    1  UNL1       -0.3530
     20  H         24.1910  -24.2870  -10.6730 H       1  UNL1        0.1620
     21  C         25.7190  -23.4070  -11.8510 C.3     1  UNL1        0.1550
     22  C         25.0600  -23.5380  -13.2310 C.3     1  UNL1        0.1390
     23  C         25.6180  -22.5900  -14.2880 C.3     1  UNL1        0.0350
     24  C         26.5520  -23.4620  -15.0880 C.3     1  UNL1        0.0290
     25  C         25.8630  -24.8040  -15.0230 C.3     1  UNL1        0.1680
     26  O         25.2560  -24.8820  -13.7270 O.3     1  UNL1       -0.3840
     27  C         18.0610  -24.1730   -6.9520 C.3     1  UNL1        0.2530
     28  C         16.6160  -24.5710   -7.3050 C.3     1  UNL1        0.0480
     29  C         18.1840  -23.1380   -5.8270 C.2     1  UNL1       -0.0250
     30  C         17.7440  -23.3650   -4.5140 C.2     1  UNL1        0.0090
     31  C         17.8780  -22.3760   -3.5360 C.2     1  UNL1        0.0010
     32  C         18.4480  -21.1440   -3.8540 C.2     1  UNL1        0.0000
     33  C         18.8850  -20.8990   -5.1500 C.2     1  UNL1        0.0010
     34  C         18.7550  -21.8870   -6.1290 C.2     1  UNL1        0.0090
@<TRIPOS>BOND
     1    24    25    1
     2    24    23    1
     3    25    26    1
     4    23    22    1
     5    26    22    1
     6    22    21    1
     7     9     8    1
     8     7     8    2
     9     7     5    1
    10    21    19    1
    11     8    10    1
    12     5     4    2
    13    10     3    2
    14    19    20    1
    15    19    17   am
    16     4     3    1
    17     4     6    1
    18    18    17    2
    19     3     2    1
    20    17    14    1
    21    13    14    1
    22    13    12    2
    23     2     1    1
    24    14    15    2
    25    12    11    1
    26    12    16    1
    27    15    16    1
    28    11     1    1
    29     1    27    1
    30    28    27    1
    31    27    29    1
    32    34    29    2
    33    34    33    1
    34    29    30    1
    35    33    32    2
    36    30    31    2
    37    32    31    1
