@<TRIPOS>MOLECULE
66919_out_ligand_01.pdbqt
 32 36 0 0 0
SMALL
GASTEIGER

@<TRIPOS>ATOM
      1  C         16.0190  -23.2610   -7.7650 C.ar    1  UNL1        0.1700
      2  N         15.1810  -22.5530   -7.0450 N.ar    1  UNL1       -0.2220
      3  C         15.6220  -22.6770   -5.7520 C.ar    1  UNL1        0.0890
      4  C         15.0980  -22.1250   -4.5830 C.2     1  UNL1        0.0530
      5  C         15.7770  -22.4320   -3.4160 C.2     1  UNL1        0.1180
      6  N         16.8850  -23.2070   -3.3480 N.2     1  UNL1       -0.2710
      7  C         17.3950  -23.7390   -4.4830 C.2     1  UNL1        0.1480
      8  C         16.7590  -23.4760   -5.6870 C.ar    1  UNL1        0.0830
      9  N         16.9900  -23.8540   -6.9940 N.ar    1  UNL1       -0.3190
     10  S         15.9340  -23.4350   -9.4850 S.3     1  UNL1       -0.0870
     11  C         16.3570  -21.7460  -10.0090 C.3     1  UNL1        0.1210
     12  C         17.7330  -21.6990  -10.6310 C.2     1  UNL1       -0.0480
     13  C         18.2900  -20.4800  -11.0380 C.2     1  UNL1        0.0090
     14  C         19.5710  -20.4370  -11.5950 C.2     1  UNL1        0.0170
     15  C         20.3170  -21.6110  -11.7360 C.2     1  UNL1        0.0320
     16  C         19.7630  -22.8350  -11.3440 C.2     1  UNL1        0.0170
     17  C         18.4800  -22.8760  -10.7900 C.2     1  UNL1        0.0090
     18  C         21.6820  -21.5180  -12.3220 C.2     1  UNL1        0.2520
     19  O         21.8490  -20.9610  -13.4020 O.2     1  UNL1       -0.2680
     20  N         22.7050  -22.0490  -11.5570 N.am    1  UNL1       -0.3520
     21  H         22.5080  -22.3330  -10.6060 H       1  UNL1        0.1630
     22  C         24.0730  -21.9900  -11.9670 C.3     1  UNL1        0.0840
     23  C         25.1120  -21.3720  -11.0700 C.3     1  UNL1        0.0270
     24  C         25.1040  -22.8570  -11.2960 C.3     1  UNL1        0.0270
     25  C         18.1000  -24.6780   -7.4480 C.3     1  UNL1        0.1700
     26  C         19.3600  -23.8770   -7.6800 C.2     1  UNL1       -0.0400
     27  C         20.4290  -24.4380   -8.4000 C.2     1  UNL1        0.0120
     28  C         21.5940  -23.7060   -8.6280 C.2     1  UNL1        0.0430
     29  C         21.6950  -22.4090   -8.1430 C.2     1  UNL1        0.1160
     30  F         22.8160  -21.7060   -8.3610 F       1  UNL1       -0.2060
     31  C         20.6500  -21.8280   -7.4370 C.2     1  UNL1        0.0430
     32  C         19.4830  -22.5590   -7.2050 C.2     1  UNL1        0.0120
@<TRIPOS>BOND
     1    19    18    2
     2    18    15    1
     3    18    20   am
     4    22    20    1
     5    22    24    1
     6    22    23    1
     7    15    14    2
     8    15    16    1
     9    14    13    1
    10    20    21    1
    11    16    17    2
    12    24    23    1
    13    13    12    2
    14    17    12    1
    15    12    11    1
    16    11    10    1
    17    10     1    1
    18    28    27    1
    19    28    29    2
    20    27    26    2
    21    30    29    1
    22    29    31    1
    23     1     2   ar
    24     1     9   ar
    25    26    25    1
    26    26    32    1
    27    25     9    1
    28    31    32    2
    29     2     3   ar
    30     9     8   ar
    31     3     8   ar
    32     3     4    1
    33     8     7    1
    34     4     5    2
    35     7     6    2
    36     5     6    1
