@<TRIPOS>MOLECULE
66924_out_ligand_01.pdbqt
 32 35 0 0 0
SMALL
GASTEIGER

@<TRIPOS>ATOM
      1  C         20.6340  -22.4260   -9.7760 C.2     1  UNL1        0.0720
      2  C         22.0290  -22.4230   -9.9460 C.2     1  UNL1        0.0450
      3  C         22.5870  -22.0410  -11.1720 C.2     1  UNL1        0.0800
      4  C         21.7710  -21.6160  -12.2240 C.2     1  UNL1        0.0280
      5  C         20.3870  -21.6060  -12.0560 C.2     1  UNL1        0.0450
      6  C         19.8300  -22.0130  -10.8430 C.2     1  UNL1        0.1320
      7  F         18.4930  -21.9920  -10.7310 F       1  UNL1       -0.2050
      8  S         24.3620  -22.0180  -11.3580 S.O2    1  UNL1        0.2610
      9  O         24.8590  -20.9390  -10.5290 O.2     1  UNL1       -0.2000
     10  O         24.8220  -23.3760  -11.1710 O.2     1  UNL1       -0.2000
     11  N         24.5870  -21.5840  -12.9750 N.3     1  UNL1       -0.3020
     12  C         25.5490  -20.5010  -13.2740 C.3     1  UNL1        0.1400
     13  C         25.2010  -19.8750  -14.6240 C.3     1  UNL1        0.0600
     14  C         25.1260  -20.9160  -15.7130 C.2     1  UNL1       -0.0490
     15  C         25.2960  -20.5440  -17.0530 C.2     1  UNL1        0.0080
     16  C         24.8280  -22.2520  -15.3910 C.2     1  UNL1       -0.0330
     17  C         25.1990  -21.4970  -18.0660 C.2     1  UNL1        0.0010
     18  C         24.9210  -22.8250  -17.7510 C.2     1  UNL1        0.0010
     19  C         24.7360  -23.2010  -16.4200 C.2     1  UNL1        0.0090
     20  C         24.6340  -22.6940  -13.9540 C.3     1  UNL1        0.1740
     21  C         20.0820  -22.8870   -8.4660 C.2     1  UNL1        0.2590
     22  N         19.4190  -21.9420   -7.7060 N.am    1  UNL1       -0.3230
     23  H         19.3350  -21.0100   -8.0980 H       1  UNL1        0.1690
     24  O         20.2530  -24.0640   -8.1640 O.2     1  UNL1       -0.2670
     25  C         18.8160  -22.1140   -6.4400 C.2     1  UNL1        0.0370
     26  C         19.1060  -21.1500   -5.4650 C.2     1  UNL1        0.0290
     27  C         18.5550  -21.2430   -4.1880 C.2     1  UNL1        0.0050
     28  C         17.7090  -22.3040   -3.8760 C.2     1  UNL1        0.0370
     29  C         17.4100  -23.2750   -4.8320 C.2     1  UNL1        0.0700
     30  C         17.9660  -23.1770   -6.1130 C.2     1  UNL1        0.0660
     31  O         16.5690  -24.2620   -4.3940 O.2     1  UNL1       -0.3560
     32  C         15.1900  -23.9300   -4.2860 C.3     1  UNL1        0.2100
@<TRIPOS>BOND
     1    17    18    2
     2    17    15    1
     3    18    19    1
     4    15    14    2
     5    19    16    2
     6    14    16    1
     7    14    13    1
     8    16    20    1
     9    13    12    1
    10    20    11    1
    11    12    11    1
    12    11     8    1
    13     4     5    2
    14     4     3    1
    15     5     6    1
    16     8     3    1
    17     8    10    2
    18     8     9    2
    19     3     2    2
    20     6     7    1
    21     6     1    2
    22     2     1    1
    23     1    21    1
    24    21    24    2
    25    21    22   am
    26    23    22    1
    27    22    25    1
    28    25    30    2
    29    25    26    1
    30    30    29    1
    31    26    27    2
    32    29    31    1
    33    29    28    2
    34    31    32    1
    35    27    28    1
