@<TRIPOS>MOLECULE
66925_out_ligand_01.pdbqt
 27 30 0 0 0
SMALL
GASTEIGER

@<TRIPOS>ATOM
      1  C         20.2160  -23.2080   -7.8660 C.2     1  UNL1        0.0320
      2  C         20.8960  -22.0490   -7.4830 C.2     1  UNL1        0.0170
      3  C         22.1280  -21.7360   -8.0610 C.2     1  UNL1        0.0100
      4  C         22.7040  -22.5860   -9.0170 C.2     1  UNL1       -0.0300
      5  C         22.0250  -23.7590   -9.3820 C.2     1  UNL1        0.0100
      6  C         20.7900  -24.0730   -8.8070 C.2     1  UNL1        0.0170
      7  C         24.0430  -22.2460   -9.6410 C.3     1  UNL1        0.3110
      8  N         24.4940  -23.2460  -10.6190 N.3     1  UNL1        0.0970
      9  C         25.9540  -23.2280  -10.7950 C.3     1  UNL1        0.2770
     10  C         26.5070  -21.9310  -11.4080 C.3     1  UNL1        0.0690
     11  C         25.6640  -21.4150  -12.5470 C.2     1  UNL1       -0.0490
     12  C         26.1410  -20.3730  -13.3530 C.2     1  UNL1        0.0070
     13  C         24.3740  -21.9330  -12.7660 C.2     1  UNL1       -0.0240
     14  C         25.3530  -19.8630  -14.3840 C.2     1  UNL1        0.0010
     15  C         24.0820  -20.3860  -14.6150 C.2     1  UNL1        0.0010
     16  C         23.5960  -21.4180  -13.8130 C.2     1  UNL1        0.0090
     17  C         23.8490  -23.0860  -11.9360 C.3     1  UNL1        0.3110
     18  C         18.9020  -23.5070   -7.2290 C.2     1  UNL1        0.2560
     19  O         18.4320  -24.6290   -7.3640 O.2     1  UNL1       -0.2670
     20  N         18.3620  -22.4610   -6.5020 N.am    1  UNL1       -0.3230
     21  H         18.9430  -21.6420   -6.3780 H       1  UNL1        0.1690
     22  C         17.1230  -22.4340   -5.8300 C.2     1  UNL1        0.0350
     23  C         15.8850  -22.3910   -6.4740 C.2     1  UNL1        0.0290
     24  C         14.7000  -22.3610   -5.7320 C.2     1  UNL1        0.0020
     25  C         14.7420  -22.3700   -4.3400 C.2     1  UNL1        0.0000
     26  C         15.9700  -22.4100   -3.6870 C.2     1  UNL1        0.0020
     27  C         17.1550  -22.4410   -4.4280 C.2     1  UNL1        0.0290
@<TRIPOS>BOND
     1    15    14    2
     2    15    16    1
     3    14    12    1
     4    16    13    2
     5    12    11    2
     6    13    11    1
     7    13    17    1
     8    11    10    1
     9    17     8    1
    10    10     9    1
    11     9     8    1
    12     8     7    1
    13     7     4    1
    14     5     4    2
    15     5     6    1
    16     4     3    1
    17     6     1    2
    18     3     2    2
    19     1     2    1
    20     1    18    1
    21    19    18    2
    22    18    20   am
    23    20    21    1
    24    20    22    1
    25    23    22    2
    26    23    24    1
    27    22    27    1
    28    24    25    2
    29    27    26    2
    30    25    26    1
