@<TRIPOS>MOLECULE
6692_out_ligand_01.pdbqt
 34 37 0 0 0
SMALL
GASTEIGER

@<TRIPOS>ATOM
      1  C         20.6600  -21.9860  -10.8970 C.2     1  UNL1       -0.0190
      2  C         20.2960  -21.0570  -11.8720 C.2     1  UNL1        0.0130
      3  C         18.9690  -20.6380  -11.9810 C.2     1  UNL1        0.0090
      4  C         17.9780  -21.1290  -11.1120 C.2     1  UNL1       -0.0390
      5  C         16.5640  -20.6550  -11.3010 C.3     1  UNL1        0.0500
      6  C         18.3580  -22.0670  -10.1310 C.2     1  UNL1        0.0810
      7  C         19.6920  -22.4940  -10.0280 C.2     1  UNL1        0.0370
      8  C         22.0350  -22.4230  -10.7900 C.ar    1  UNL1        0.0470
      9  C         23.0060  -22.2100  -11.7570 C.ar    1  UNL1        0.1480
     10  N         24.1810  -22.7580  -11.2320 N.ar    1  UNL1       -0.1830
     11  N         22.8070  -21.5660  -12.9690 N.am    1  UNL1       -0.3110
     12  N         23.9350  -23.4250  -10.0670 N.ar    1  UNL1       -0.1670
     13  C         25.5140  -22.6800  -11.6780 C.2     1  UNL1        0.2460
     14  C         22.6550  -23.1920   -9.7820 C.ar    1  UNL1        0.0700
     15  C         25.7450  -21.7670  -12.8400 C.3     1  UNL1        0.1140
     16  O         26.4160  -23.2810  -11.1020 O.2     1  UNL1       -0.2710
     17  C         24.9430  -22.2230  -14.0330 C.3     1  UNL1        0.1120
     18  C         23.6200  -21.5160  -14.0610 C.2     1  UNL1        0.2230
     19  O         23.2360  -20.9250  -15.0700 O.2     1  UNL1       -0.2730
     20  H         21.8960  -21.1460  -13.1360 H       1  UNL1        0.1700
     21  C         22.0590  -23.7440   -8.5300 C.3     1  UNL1        0.0570
     22  C         21.1320  -24.9190   -8.8010 C.3     1  UNL1        0.0110
     23  S         17.1730  -22.7740   -8.9900 S.O2    1  UNL1        0.2460
     24  O         16.4400  -21.6860   -8.3850 O.2     1  UNL1       -0.2060
     25  O         16.5010  -23.8590   -9.6750 O.2     1  UNL1       -0.2060
     26  N         18.2190  -23.5050   -7.8550 N.pl3   1  UNL1       -0.1810
     27  H         17.8510  -24.4370   -7.6630 H       1  UNL1        0.1460
     28  C         18.3530  -22.7590   -6.6360 C.2     1  UNL1        0.0230
     29  C         19.2850  -21.7260   -6.5620 C.2     1  UNL1        0.0240
     30  C         19.3870  -20.9660   -5.3960 C.2     1  UNL1        0.0020
     31  C         18.5500  -21.2350   -4.3120 C.2     1  UNL1        0.0070
     32  C         17.6050  -22.2650   -4.3810 C.2     1  UNL1       -0.0600
     33  C         16.6680  -22.5150   -3.2370 C.3     1  UNL1        0.0480
     34  C         17.4990  -23.0160   -5.5610 C.2     1  UNL1        0.0310
@<TRIPOS>BOND
     1    19    18    2
     2    18    17    1
     3    18    11   am
     4    17    15    1
     5    20    11    1
     6    11     9    1
     7    15    13    1
     8     3     2    1
     9     3     4    2
    10     2     1    2
    11     9    10   ar
    12     9     8   ar
    13    13    10   am
    14    13    16    2
    15     5     4    1
    16    10    12   ar
    17     4     6    1
    18     1     8    1
    19     1     7    1
    20     8    14   ar
    21     6     7    2
    22     6    23    1
    23    12    14   ar
    24    14    21    1
    25    25    23    2
    26    23    24    2
    27    23    26    1
    28    22    21    1
    29    26    27    1
    30    26    28    1
    31    28    29    2
    32    28    34    1
    33    29    30    1
    34    34    32    2
    35    30    31    2
    36    32    31    1
    37    32    33    1
