@<TRIPOS>MOLECULE
66936_out_ligand_01.pdbqt
 29 33 0 0 0
SMALL
GASTEIGER

@<TRIPOS>ATOM
      1  C         23.9530  -22.8650  -11.9620 C.2     1  UNL1        0.1730
      2  N         24.5810  -22.5630  -13.0380 N.2     1  UNL1       -0.2350
      3  C         23.8020  -21.8200  -14.0470 C.3     1  UNL1        0.2430
      4  N         22.6130  -21.1140  -13.5950 N.pl3   1  UNL1       -0.3570
      5  C         21.9830  -21.6180  -12.5180 C.ar    1  UNL1        0.0870
      6  S         20.3940  -21.2350  -12.0610 S.2     1  UNL1       -0.0740
      7  C         20.5020  -22.2360  -10.6860 C.ar    1  UNL1        0.0200
      8  C         21.7280  -22.8690  -10.5850 C.ar    1  UNL1       -0.0240
      9  C         22.5950  -22.4990  -11.6580 C.ar    1  UNL1        0.0570
     10  C         22.0080  -23.7820   -9.4320 C.3     1  UNL1        0.0710
     11  C         20.6990  -24.1840   -8.7110 C.3     1  UNL1        0.2780
     12  N         19.8180  -23.0240   -8.4540 N.3     1  UNL1        0.0970
     13  C         19.3570  -22.4160   -9.7280 C.3     1  UNL1        0.3190
     14  H         22.0930  -20.6230  -14.3130 H       1  UNL1        0.1620
     15  C         18.6730  -23.4270   -7.6210 C.3     1  UNL1        0.3110
     16  C         18.5640  -22.6530   -6.3240 C.2     1  UNL1       -0.0300
     17  C         19.2260  -21.4270   -6.1680 C.2     1  UNL1        0.0090
     18  C         19.1350  -20.7160   -4.9700 C.2     1  UNL1        0.0010
     19  C         18.3850  -21.2270   -3.9130 C.2     1  UNL1        0.0000
     20  C         17.7250  -22.4480   -4.0530 C.2     1  UNL1        0.0010
     21  C         17.8150  -23.1580   -5.2510 C.2     1  UNL1        0.0090
     22  O         24.6130  -23.5800  -11.0340 O.2     1  UNL1       -0.3440
     23  H         25.3090  -22.9990  -10.6840 H       1  UNL1        0.2190
     24  C         24.6990  -20.8240  -14.7670 C.2     1  UNL1       -0.0150
     25  C         24.8890  -20.9000  -16.1550 C.2     1  UNL1        0.0110
     26  C         25.7140  -19.9830  -16.8100 C.2     1  UNL1        0.0010
     27  C         26.3590  -18.9810  -16.0850 C.2     1  UNL1        0.0000
     28  C         26.1830  -18.8960  -14.7060 C.2     1  UNL1        0.0010
     29  C         25.3600  -19.8110  -14.0500 C.2     1  UNL1        0.0110
@<TRIPOS>BOND
     1    26    25    1
     2    26    27    2
     3    25    24    2
     4    27    28    1
     5    24    29    1
     6    24     3    1
     7    28    29    2
     8    14     4    1
     9     3     4    1
    10     3     2    1
    11     4     5    1
    12     2     1    2
    13     5     6   ar
    14     5     9   ar
    15     6     7   ar
    16     1     9    1
    17     1    22    1
    18     9     8   ar
    19    22    23    1
    20     7     8   ar
    21     7    13    1
    22     8    10    1
    23    13    12    1
    24    10    11    1
    25    11    12    1
    26    12    15    1
    27    15    16    1
    28    16    17    2
    29    16    21    1
    30    17    18    1
    31    21    20    2
    32    18    19    2
    33    20    19    1
