@<TRIPOS>MOLECULE
66939_out_ligand_01.pdbqt
 40 44 0 0 0
SMALL
GASTEIGER

@<TRIPOS>ATOM
      1  N         22.1970  -23.2300   -9.6680 N.am    1  UNL1       -0.3230
      2  C         22.3790  -22.3600  -10.7240 C.2     1  UNL1        0.2570
      3  O         21.6820  -21.4100  -11.0520 O.2     1  UNL1       -0.2670
      4  H         22.9230  -23.9210   -9.5170 H       1  UNL1        0.1690
      5  C         21.1280  -23.2490   -8.7500 C.2     1  UNL1        0.0350
      6  C         21.0200  -22.1590   -7.8740 C.2     1  UNL1        0.0310
      7  C         19.9930  -22.1000   -6.9270 C.2     1  UNL1        0.0270
      8  C         19.0700  -23.1450   -6.8520 C.2     1  UNL1        0.0800
      9  C         19.1560  -24.2290   -7.7260 C.2     1  UNL1        0.0270
     10  C         20.1890  -24.2800   -8.6690 C.2     1  UNL1        0.0310
     11  S         17.7520  -23.0580   -5.6690 S.O2    1  UNL1        0.2640
     12  O         18.1650  -22.2640   -4.5300 O.2     1  UNL1       -0.2000
     13  O         17.2760  -24.4150   -5.4760 O.2     1  UNL1       -0.2000
     14  N         16.5150  -22.2700   -6.4760 N.pl3   1  UNL1       -0.2640
     15  H         16.3820  -21.3200   -6.1430 H       1  UNL1        0.1800
     16  C         16.2940  -22.5670   -7.8350 C.2     1  UNL1        0.1410
     17  C         15.5940  -23.7010   -8.1770 C.2     1  UNL1        0.0770
     18  C         15.4960  -23.9600   -9.5280 C.2     1  UNL1        0.0360
     19  C         14.7350  -25.1550  -10.0160 C.3     1  UNL1        0.0700
     20  N         16.0700  -23.1680  -10.4540 N.2     1  UNL1       -0.2390
     21  C         16.7610  -22.1020  -10.0100 C.2     1  UNL1        0.1240
     22  N         16.9040  -21.7740   -8.7170 N.2     1  UNL1       -0.2160
     23  C         17.3820  -21.1990  -11.0280 C.3     1  UNL1        0.0930
     24  C         23.6140  -22.6110  -11.4990 C.2     1  UNL1        0.0470
     25  C         23.5980  -22.2110  -12.8330 C.2     1  UNL1        0.0500
     26  C         24.7470  -22.3870  -13.5790 C.2     1  UNL1        0.0690
     27  N         25.8780  -22.9070  -13.0440 N.2     1  UNL1       -0.2470
     28  C         25.8780  -23.3230  -11.7660 C.2     1  UNL1        0.0680
     29  C         27.0400  -23.8880  -11.2580 C.2     1  UNL1        0.0320
     30  C         24.7560  -23.2100  -10.9250 C.2     1  UNL1        0.0080
     31  C         27.1210  -24.3600   -9.9460 C.2     1  UNL1        0.0020
     32  C         26.0140  -24.2740   -9.1150 C.2     1  UNL1        0.0010
     33  C         24.8360  -23.7070   -9.5980 C.2     1  UNL1        0.0150
     34  C         24.8400  -21.9750  -14.9900 C.2     1  UNL1       -0.0010
     35  C         24.5000  -22.9100  -15.9880 C.2     1  UNL1        0.0140
     36  C         24.6000  -22.5980  -17.3450 C.2     1  UNL1        0.0010
     37  C         25.0410  -21.3390  -17.7330 C.2     1  UNL1        0.0010
     38  C         25.3670  -20.3890  -16.7670 C.2     1  UNL1        0.0070
     39  C         25.2550  -20.6840  -15.3940 C.2     1  UNL1       -0.0500
     40  C         25.5990  -19.6020  -14.4040 C.3     1  UNL1        0.0490
@<TRIPOS>BOND
     1    37    36    2
     2    37    38    1
     3    36    35    1
     4    38    39    2
     5    35    34    2
     6    39    34    1
     7    39    40    1
     8    34    26    1
     9    26    27    2
    10    26    25    1
    11    27    28    1
    12    25    24    2
    13    28    29    2
    14    28    30    1
    15    24    30    1
    16    24     2    1
    17    29    31    1
    18     3     2    2
    19    23    21    1
    20    30    33    2
    21     2     1   am
    22    20    21    2
    23    20    18    1
    24    19    18    1
    25    21    22    1
    26    31    32    2
    27     1     4    1
    28     1     5    1
    29    33    32    1
    30    18    17    2
    31     5    10    2
    32     5     6    1
    33    22    16    2
    34    10     9    1
    35    17    16    1
    36     6     7    2
    37    16    14    1
    38     9     8    2
    39     7     8    1
    40     8    11    1
    41    14    15    1
    42    14    11    1
    43    11    13    2
    44    11    12    2
