@<TRIPOS>MOLECULE
6694_out_ligand_01.pdbqt
 30 32 0 0 0
SMALL
GASTEIGER

@<TRIPOS>ATOM
      1  C         19.4740  -22.5900   -9.9170 C.2     1  UNL1        0.0860
      2  C         20.5570  -22.2560  -10.7510 C.2     1  UNL1        0.0370
      3  C         20.3760  -21.4230  -11.8600 C.2     1  UNL1       -0.0350
      4  C         19.0890  -20.9600  -12.1470 C.2     1  UNL1        0.0120
      5  C         18.0090  -21.2970  -11.3250 C.2     1  UNL1        0.0090
      6  C         18.1820  -22.1060  -10.1900 C.2     1  UNL1       -0.0390
      7  C         16.9760  -22.4380   -9.3580 C.3     1  UNL1        0.0500
      8  S         19.8170  -23.6540   -8.5250 S.O2    1  UNL1        0.2630
      9  O         18.6260  -24.4290   -8.2490 O.2     1  UNL1       -0.2000
     10  O         21.0840  -24.3210   -8.7410 O.2     1  UNL1       -0.2000
     11  N         19.9830  -22.5600   -7.2440 N.pl3   1  UNL1       -0.2810
     12  H         20.3050  -21.6570   -7.5880 H       1  UNL1        0.1790
     13  C         18.9690  -22.5500   -6.2470 C.2     1  UNL1        0.0420
     14  C         18.8220  -21.4370   -5.4240 C.2     1  UNL1        0.0300
     15  C         17.8540  -21.4400   -4.4170 C.2     1  UNL1        0.0090
     16  C         17.0420  -22.5630   -4.2170 C.2     1  UNL1       -0.0620
     17  C         15.9840  -22.5550   -3.1530 C.3     1  UNL1        0.0480
     18  C         17.1960  -23.6740   -5.0550 C.2     1  UNL1        0.0090
     19  C         18.1630  -23.6720   -6.0630 C.2     1  UNL1        0.0300
     20  C         21.5340  -21.1140  -12.7110 C.2     1  UNL1        0.0140
     21  C         22.6740  -21.8250  -12.7030 C.2     1  UNL1        0.0430
     22  C         23.7610  -21.4840  -13.5630 C.ar    1  UNL1        0.1360
     23  O         23.6120  -21.3450  -14.9300 O.2     1  UNL1       -0.2110
     24  N         24.8050  -21.0390  -15.5380 N.ar    1  UNL1       -0.1300
     25  C         25.7110  -20.9790  -14.5620 C.ar    1  UNL1        0.0940
     26  C         27.1210  -20.6570  -14.8880 C.3     1  UNL1        0.0760
     27  C         25.1090  -21.2430  -13.3070 C.ar    1  UNL1        0.1650
     28  N         25.7560  -21.2620  -12.0340 N.pl3   1  UNL1       -0.1110
     29  O         26.2440  -22.3400  -11.6730 O.2     1  UNL1       -0.5320
     30  O         25.7950  -20.2070  -11.3900 O.2     1  UNL1       -0.5320
@<TRIPOS>BOND
     1    24    23   ar
     2    24    25   ar
     3    23    22   ar
     4    26    25    1
     5    25    27   ar
     6    22    27   ar
     7    22    21    1
     8    27    28    1
     9    20    21    2
    10    20     3    1
    11     4     3    2
    12     4     5    1
    13    28    29    2
    14    28    30    2
    15     3     2    1
    16     5     6    2
    17     2     1    2
    18     6     1    1
    19     6     7    1
    20     1     8    1
    21    10     8    2
    22     8     9    2
    23     8    11    1
    24    12    11    1
    25    11    13    1
    26    13    19    2
    27    13    14    1
    28    19    18    1
    29    14    15    2
    30    18    16    2
    31    15    16    1
    32    16    17    1
