@<TRIPOS>MOLECULE
66951_out_ligand_01.pdbqt
 31 34 0 0 0
SMALL
GASTEIGER

@<TRIPOS>ATOM
      1  C         12.6970  -20.6760   -6.1480 C.1     1  UNL1        0.0180
      2  C         13.6340  -21.4030   -5.9600 C.1     1  UNL1       -0.0780
      3  C         14.7530  -22.2680   -5.7390 C.2     1  UNL1        0.0190
      4  C         14.7320  -23.1700   -4.6750 C.2     1  UNL1        0.0210
      5  C         15.8210  -24.0100   -4.4570 C.2     1  UNL1        0.0040
      6  C         16.9300  -23.9460   -5.3050 C.2     1  UNL1        0.0290
      7  C         16.9610  -23.0460   -6.3800 C.2     1  UNL1        0.0360
      8  C         15.8650  -22.2060   -6.5880 C.2     1  UNL1        0.0500
      9  N         18.1240  -23.0460   -7.1810 N.am    1  UNL1       -0.3230
     10  C         18.1880  -23.1160   -8.5610 C.2     1  UNL1        0.2560
     11  O         17.2510  -23.2550   -9.3370 O.2     1  UNL1       -0.2670
     12  H         18.9970  -23.0570   -6.6720 H       1  UNL1        0.1690
     13  C         19.5620  -23.0470   -9.1390 C.2     1  UNL1        0.0330
     14  C         20.6130  -23.6910   -8.4390 C.2     1  UNL1        0.0180
     15  C         21.9230  -23.6770   -8.9300 C.2     1  UNL1        0.0190
     16  C         22.1450  -23.0200  -10.1250 C.2     1  UNL1        0.0480
     17  C         21.1250  -22.4050  -10.8130 C.2     1  UNL1        0.0490
     18  C         23.3730  -22.8350  -10.8920 C.2     1  UNL1        0.2660
     19  C         19.8180  -22.4010  -10.3560 C.2     1  UNL1        0.0350
     20  C         21.6950  -21.8220  -12.0220 C.2     1  UNL1        0.2660
     21  O         20.9820  -21.2020  -12.7900 O.2     1  UNL1       -0.2670
     22  N         23.0460  -22.1130  -12.0250 N.am    1  UNL1       -0.2440
     23  O         24.4260  -23.2890  -10.4820 O.2     1  UNL1       -0.2670
     24  C         23.9710  -21.7180  -13.0460 C.2     1  UNL1        0.0470
     25  C         24.9820  -20.7740  -12.7960 C.2     1  UNL1        0.0300
     26  C         25.8880  -20.3830  -13.7900 C.2     1  UNL1        0.0040
     27  C         25.8060  -20.9280  -15.0650 C.2     1  UNL1        0.0210
     28  C         24.8150  -21.8630  -15.3440 C.2     1  UNL1        0.0190
     29  C         24.7200  -22.4310  -16.6550 C.1     1  UNL1       -0.0780
     30  C         23.9090  -22.2510  -14.3460 C.2     1  UNL1        0.0500
     31  C         24.6380  -22.9070  -17.7550 C.1     1  UNL1        0.0180
@<TRIPOS>BOND
     1    31    29    3
     2    29    28    1
     3    28    27    2
     4    28    30    1
     5    27    26    1
     6    30    24    2
     7    26    25    2
     8    24    25    1
     9    24    22    1
    10    21    20    2
    11    22    20   am
    12    22    18   am
    13    20    17    1
    14    18    23    2
    15    18    16    1
    16    17    19    1
    17    17    16    2
    18    19    13    2
    19    16    15    1
    20    11    10    2
    21    13    10    1
    22    13    14    1
    23    15    14    2
    24    10     9   am
    25     9    12    1
    26     9     7    1
    27     8     7    1
    28     8     3    2
    29     7     6    2
    30     1     2    3
    31     2     3    1
    32     3     4    1
    33     6     5    1
    34     4     5    2
