@<TRIPOS>MOLECULE
66955_out_ligand_01.pdbqt
 35 39 0 0 0
SMALL
GASTEIGER

@<TRIPOS>ATOM
      1  S         15.9190  -23.4370   -9.3780 S.3     1  UNL1       -0.0870
      2  C         16.3100  -21.7560   -9.9490 C.3     1  UNL1        0.1210
      3  C         17.6620  -21.6840  -10.6190 C.2     1  UNL1       -0.0480
      4  C         18.1770  -20.4520  -11.0520 C.2     1  UNL1        0.0090
      5  C         19.4360  -20.3790  -11.6560 C.2     1  UNL1        0.0170
      6  C         20.1980  -21.5390  -11.8210 C.2     1  UNL1        0.0320
      7  C         19.7010  -22.7690  -11.3770 C.2     1  UNL1        0.0170
      8  C         18.4370  -22.8420  -10.7890 C.2     1  UNL1        0.0090
      9  C         21.5520  -21.4930  -12.4310 C.2     1  UNL1        0.2510
     10  O         21.7240  -20.9610  -13.5220 O.2     1  UNL1       -0.2680
     11  N         22.5690  -22.0390  -11.6770 N.am    1  UNL1       -0.3540
     12  H         22.4210  -22.1080  -10.6760 H       1  UNL1        0.1620
     13  C         23.9510  -21.8680  -12.0910 C.3     1  UNL1        0.1550
     14  C         24.7910  -23.0950  -11.7450 C.3     1  UNL1        0.1390
     15  C         25.6890  -23.5440  -12.8880 C.3     1  UNL1        0.0350
     16  C         26.8330  -24.1910  -12.1490 C.3     1  UNL1        0.0290
     17  C         26.9840  -23.2770  -10.9520 C.3     1  UNL1        0.1680
     18  O         25.6640  -22.8040  -10.6290 O.3     1  UNL1       -0.3840
     19  C         16.0620  -23.2550   -7.6610 C.ar    1  UNL1        0.1700
     20  N         15.2150  -22.5910   -6.9090 N.ar    1  UNL1       -0.2220
     21  C         15.6960  -22.7080   -5.6310 C.ar    1  UNL1        0.0890
     22  C         15.1730  -22.2000   -4.4420 C.2     1  UNL1        0.0530
     23  C         16.8640  -23.4600   -5.6050 C.ar    1  UNL1        0.0830
     24  C         15.8890  -22.5000   -3.2950 C.2     1  UNL1        0.1180
     25  N         17.0260  -23.2330   -3.2620 N.2     1  UNL1       -0.2710
     26  C         17.5310  -23.7270   -4.4170 C.2     1  UNL1        0.1480
     27  N         17.0910  -23.7910   -6.9250 N.ar    1  UNL1       -0.3190
     28  C         18.1750  -24.6370   -7.4060 C.3     1  UNL1        0.1700
     29  C         19.4430  -23.8630   -7.6780 C.2     1  UNL1       -0.0370
     30  C         19.5750  -22.5430   -7.2120 C.2     1  UNL1        0.0090
     31  C         20.7350  -21.8050   -7.4700 C.2     1  UNL1        0.0040
     32  C         21.7740  -22.3730   -8.2010 C.2     1  UNL1        0.0420
     33  C         21.6450  -23.6740   -8.6710 C.2     1  UNL1        0.1170
     34  F         22.6400  -24.2190   -9.3830 F       1  UNL1       -0.2060
     35  C         20.4960  -24.4200   -8.4200 C.2     1  UNL1        0.0510
@<TRIPOS>BOND
     1    10     9    2
     2    15    16    1
     3    15    14    1
     4     9     6    1
     5     9    11   am
     6    16    17    1
     7    13    14    1
     8    13    11    1
     9     6     5    2
    10     6     7    1
    11    14    18    1
    12    11    12    1
    13     5     4    1
    14     7     8    2
    15     4     3    2
    16    17    18    1
    17     8     3    1
    18     3     2    1
    19     2     1    1
    20    34    33    1
    21     1    19    1
    22    33    35    1
    23    33    32    2
    24    35    29    2
    25    32    31    1
    26    29    28    1
    27    29    30    1
    28    19    27   ar
    29    19    20   ar
    30    31    30    2
    31    28    27    1
    32    27    23   ar
    33    20    21   ar
    34    21    23   ar
    35    21    22    1
    36    23    26    1
    37    22    24    2
    38    26    25    2
    39    24    25    1
