@<TRIPOS>MOLECULE
6695_out_ligand_01.pdbqt
 30 33 0 0 0
SMALL
GASTEIGER

@<TRIPOS>ATOM
      1  C         22.1070  -21.5610  -12.6300 C.2     1  UNL1        0.0320
      2  C         20.9480  -20.7860  -12.5780 C.2     1  UNL1        0.0190
      3  C         20.0410  -20.9650  -11.5310 C.2     1  UNL1        0.0320
      4  C         20.2610  -21.9330  -10.5420 C.2     1  UNL1        0.0510
      5  C         21.4420  -22.6980  -10.5790 C.2     1  UNL1       -0.0300
      6  C         22.3660  -22.4960  -11.6200 C.2     1  UNL1        0.0260
      7  C         21.7920  -23.6780   -9.4910 C.3     1  UNL1        0.0420
      8  C         20.5910  -24.0540   -8.6390 C.3     1  UNL1        0.0260
      9  C         19.8070  -22.8050   -8.2590 C.3     1  UNL1        0.1420
     10  N         19.2970  -22.1030   -9.4730 N.pl3   1  UNL1       -0.2710
     11  C         23.1040  -21.3790  -13.7140 C.2     1  UNL1        0.2520
     12  O         22.9740  -20.4730  -14.5290 O.2     1  UNL1       -0.2680
     13  N         24.1570  -22.2640  -13.7080 N.am    1  UNL1       -0.3510
     14  H         24.3460  -22.7750  -12.8590 H       1  UNL1        0.1630
     15  C         25.2690  -22.0700  -14.6100 C.3     1  UNL1        0.1870
     16  C         24.8360  -22.4770  -15.9670 C.2     1  UNL1        0.0700
     17  C         24.3330  -23.6530  -16.4950 C.2     1  UNL1        0.0360
     18  C         24.1450  -23.4220  -17.8790 C.2     1  UNL1        0.0270
     19  C         24.5390  -22.1220  -18.1070 C.2     1  UNL1        0.1420
     20  O         24.9640  -21.5420  -16.9530 O.2     1  UNL1       -0.3250
     21  S         17.7040  -22.5650   -9.9660 S.O2    1  UNL1        0.2650
     22  O         16.9680  -21.4280  -10.4710 O.2     1  UNL1       -0.2000
     23  O         17.8110  -23.7920  -10.7320 O.2     1  UNL1       -0.2000
     24  C         16.9340  -22.9730   -8.4080 C.2     1  UNL1        0.0800
     25  C         16.6160  -24.3020   -8.1140 C.2     1  UNL1        0.0270
     26  C         16.0230  -24.6060   -6.8860 C.2     1  UNL1        0.0200
     27  C         15.7570  -23.5850   -5.9700 C.2     1  UNL1        0.0110
     28 BR         14.9480  -23.9970   -4.3080 Br      1  UNL1       -0.0510
     29  C         16.0770  -22.2590   -6.2680 C.2     1  UNL1        0.0200
     30  C         16.6660  -21.9480   -7.4960 C.2     1  UNL1        0.0270
@<TRIPOS>BOND
     1    19    18    2
     2    19    20    1
     3    18    17    1
     4    20    16    1
     5    17    16    2
     6    16    15    1
     7    15    13    1
     8    12    11    2
     9    11    13   am
    10    11     1    1
    11    13    14    1
    12     1     2    2
    13     1     6    1
    14     2     3    1
    15     6     5    2
    16     3     4    2
    17    23    21    2
    18     5     4    1
    19     5     7    1
    20     4    10    1
    21    22    21    2
    22    21    10    1
    23    21    24    1
    24     7     8    1
    25    10     9    1
    26     8     9    1
    27    24    25    2
    28    24    30    1
    29    25    26    1
    30    30    29    2
    31    26    27    2
    32    29    27    1
    33    27    28    1
