@<TRIPOS>MOLECULE
6696_out_ligand_01.pdbqt
 36 39 0 0 0
SMALL
GASTEIGER

@<TRIPOS>ATOM
      1  C         22.2370  -22.5320  -10.7760 C.2     1  UNL1        0.0170
      2  C         22.2960  -23.4140   -9.6870 C.2     1  UNL1        0.0170
      3  C         21.1380  -23.7760   -8.9920 C.2     1  UNL1        0.0180
      4  C         19.8950  -23.2540   -9.3680 C.2     1  UNL1        0.0320
      5  C         19.8220  -22.3860  -10.4620 C.2     1  UNL1        0.0180
      6  C         20.9860  -22.0250  -11.1560 C.2     1  UNL1        0.0170
      7  C         23.4680  -22.1750  -11.4760 C.ar    1  UNL1        0.1800
      8  N         23.8890  -22.5670  -12.6630 N.ar    1  UNL1       -0.2250
      9  C         25.1130  -21.9530  -12.8150 C.ar    1  UNL1        0.0810
     10  C         25.3770  -21.1810  -11.7030 C.ar    1  UNL1        0.0770
     11  O         24.3300  -21.3250  -10.8350 O.2     1  UNL1       -0.2940
     12  C         26.4860  -20.3120  -11.2740 C.3     1  UNL1        0.0790
     13  C         25.9100  -22.1750  -14.0430 C.3     1  UNL1        0.2070
     14  S         25.0520  -21.7280  -15.5370 S.O2    1  UNL1        0.1810
     15  O         25.4730  -22.6350  -16.5900 O.2     1  UNL1       -0.2220
     16  O         23.6380  -21.5970  -15.2180 O.2     1  UNL1       -0.2220
     17  C         25.6570  -20.1160  -15.9760 C.2     1  UNL1        0.0590
     18  C         26.0510  -19.2340  -14.9670 C.2     1  UNL1        0.0240
     19  C         26.5060  -17.9590  -15.3130 C.2     1  UNL1        0.0080
     20  C         26.5700  -17.5650  -16.6580 C.2     1  UNL1       -0.0620
     21  C         27.0500  -16.1890  -17.0100 C.3     1  UNL1        0.0480
     22  C         26.1900  -18.4710  -17.6580 C.2     1  UNL1        0.0080
     23  C         25.7330  -19.7460  -17.3210 C.2     1  UNL1        0.0240
     24  C         18.6940  -23.6770   -8.5930 C.2     1  UNL1        0.2510
     25  O         18.8130  -24.4470   -7.6460 O.2     1  UNL1       -0.2680
     26  N         17.4830  -23.1340   -8.9780 N.am    1  UNL1       -0.3570
     27  H         17.4810  -22.3310   -9.5880 H       1  UNL1        0.1620
     28  C         16.2770  -23.3870   -8.2070 C.3     1  UNL1        0.1270
     29  C         15.9710  -22.2730   -7.2010 C.3     1  UNL1        0.0580
     30  C         16.1930  -22.7370   -5.7780 C.2     1  UNL1       -0.0510
     31  C         15.1730  -23.4830   -5.1590 C.2     1  UNL1        0.0070
     32  C         15.3210  -23.9560   -3.8570 C.2     1  UNL1        0.0010
     33  C         16.4910  -23.6910   -3.1530 C.2     1  UNL1        0.0010
     34  C         17.5130  -22.9560   -3.7530 C.2     1  UNL1        0.0070
     35  C         17.3860  -22.4830   -5.0700 C.2     1  UNL1       -0.0560
     36  C         18.5090  -21.6740   -5.6590 C.3     1  UNL1        0.0490
@<TRIPOS>BOND
     1    22    23    1
     2    22    20    2
     3    23    17    2
     4    21    20    1
     5    20    19    1
     6    15    14    2
     7    17    14    1
     8    17    18    1
     9    14    16    2
    10    14    13    1
    11    19    18    2
    12    13     9    1
    13     9     8   ar
    14     9    10   ar
    15     8     7   ar
    16    10    12    1
    17    10    11   ar
    18     7    11   ar
    19     7     1    1
    20     6     1    2
    21     6     5    1
    22     1     2    1
    23     5     4    2
    24     2     3    2
    25    27    26    1
    26     4     3    1
    27     4    24    1
    28    26    24   am
    29    26    28    1
    30    24    25    2
    31    28    29    1
    32    29    30    1
    33    30    31    2
    34    30    35    1
    35    36    35    1
    36    31    32    1
    37    35    34    2
    38    32    33    2
    39    34    33    1
