@<TRIPOS>MOLECULE
66964_out_ligand_01.pdbqt
 31 34 0 0 0
SMALL
GASTEIGER

@<TRIPOS>ATOM
      1  C         15.0780  -23.7820  -10.4500 C.3     1  UNL1        0.0730
      2  C         16.0200  -23.3470   -9.3880 C.ar    1  UNL1        0.0620
      3  N         15.6580  -23.4220   -8.1070 N.ar    1  UNL1       -0.1700
      4  N         16.7430  -23.0110   -7.3910 N.ar    1  UNL1       -0.2100
      5  C         17.7610  -22.5820   -8.2440 C.ar    1  UNL1        0.1790
      6  C         17.3280  -22.8340   -9.5390 C.ar    1  UNL1        0.0220
      7  C         18.0810  -22.6290  -10.8140 C.3     1  UNL1        0.0540
      8  C         18.1460  -21.1600  -11.2210 C.3     1  UNL1        0.1080
      9  C         19.5720  -20.7520  -11.5410 C.2     1  UNL1        0.2220
     10  O         19.9860  -19.6260  -11.2850 O.2     1  UNL1       -0.2730
     11  N         20.2990  -21.7940  -12.0930 N.am    1  UNL1       -0.3270
     12  H         19.8010  -22.6600  -12.2530 H       1  UNL1        0.1690
     13  C         21.6360  -21.7710  -12.5370 C.2     1  UNL1        0.0340
     14  C         22.0840  -21.0380  -13.6360 C.2     1  UNL1        0.0290
     15  C         23.4290  -21.0820  -14.0170 C.2     1  UNL1        0.0020
     16  C         24.3370  -21.8590  -13.3010 C.2     1  UNL1        0.0000
     17  C         23.9020  -22.5920  -12.2020 C.2     1  UNL1        0.0020
     18  C         22.5580  -22.5480  -11.8220 C.2     1  UNL1        0.0290
     19  O         18.9160  -22.0810   -7.7920 O.3     1  UNL1       -0.2910
     20  C         20.0930  -22.6910   -8.1480 C.2     1  UNL1        0.0770
     21  C         20.0740  -24.0570   -8.4250 C.2     1  UNL1        0.0370
     22  C         21.2570  -24.7060   -8.7800 C.2     1  UNL1        0.0030
     23  C         22.4570  -23.9960   -8.8290 C.2     1  UNL1        0.0000
     24  C         22.4780  -22.6340   -8.5220 C.2     1  UNL1        0.0030
     25  C         21.2950  -21.9790   -8.1770 C.2     1  UNL1        0.0370
     26  C         16.6830  -23.0360   -5.9600 C.2     1  UNL1        0.0610
     27  C         15.5660  -22.4710   -5.3180 C.2     1  UNL1        0.0310
     28  C         15.4660  -22.4680   -3.9240 C.2     1  UNL1        0.0020
     29  C         16.4770  -23.0330   -3.1530 C.2     1  UNL1        0.0000
     30  C         17.5860  -23.6010   -3.7750 C.2     1  UNL1        0.0020
     31  C         17.6920  -23.6050   -5.1710 C.2     1  UNL1        0.0310
@<TRIPOS>BOND
     1    15    14    1
     2    15    16    2
     3    14    13    2
     4    16    17    1
     5    13    11    1
     6    13    18    1
     7    12    11    1
     8    17    18    2
     9    11     9   am
    10     9    10    2
    11     9     8    1
    12     8     7    1
    13     7     6    1
    14     1     2    1
    15     6     2   ar
    16     6     5   ar
    17     2     3   ar
    18    23    22    2
    19    23    24    1
    20    22    21    1
    21    24    25    2
    22    21    20    2
    23     5    19    1
    24     5     4   ar
    25    25    20    1
    26    20    19    1
    27     3     4   ar
    28     4    26    1
    29    26    27    2
    30    26    31    1
    31    27    28    1
    32    31    30    2
    33    28    29    2
    34    30    29    1
