@<TRIPOS>MOLECULE
66960_out_ligand_01.pdbqt
 38 42 0 0 0
SMALL
GASTEIGER

@<TRIPOS>ATOM
      1  C         20.8850  -22.6250   -8.2900 C.2     1  UNL1        0.0970
      2  C         21.5950  -21.6670   -7.5910 C.2     1  UNL1        0.0390
      3  C         22.9420  -21.7730   -8.0100 C.2     1  UNL1        0.0370
      4  C         22.9890  -22.7860   -8.9480 C.2     1  UNL1        0.0810
      5  O         21.7350  -23.2950   -9.1320 O.2     1  UNL1       -0.3140
      6  C         19.4310  -23.0570   -8.3130 C.3     1  UNL1        0.1610
      7  O         19.4700  -24.4640   -8.6310 O.3     1  UNL1       -0.3730
      8  H         18.6690  -24.6120   -9.1650 H       1  UNL1        0.2120
      9  C         18.7980  -22.9350   -6.9170 C.2     1  UNL1       -0.0100
     10  C         18.1330  -24.0420   -6.3450 C.2     1  UNL1        0.0110
     11  C         17.5810  -23.9800   -5.0620 C.2     1  UNL1        0.0040
     12  C         17.6860  -22.8070   -4.3190 C.2     1  UNL1        0.0420
     13  C         18.3480  -21.7150   -4.8650 C.2     1  UNL1        0.1170
     14  F         18.4500  -20.5860   -4.1490 F       1  UNL1       -0.2060
     15  C         18.9060  -21.7670   -6.1400 C.2     1  UNL1        0.0530
     16  C         18.6110  -22.4000   -9.4370 C.2     1  UNL1       -0.0100
     17  C         17.2010  -22.4070   -9.3730 C.2     1  UNL1        0.0110
     18  C         16.4220  -21.8120  -10.3700 C.2     1  UNL1        0.0040
     19  C         17.0380  -21.1920  -11.4520 C.2     1  UNL1        0.0420
     20  C         18.4250  -21.1640  -11.5220 C.2     1  UNL1        0.1170
     21  F         19.0210  -20.5600  -12.5570 F       1  UNL1       -0.2060
     22  C         19.2100  -21.7530  -10.5330 C.2     1  UNL1        0.0530
     23  C         24.0760  -23.4350   -9.7470 C.3     1  UNL1        0.3370
     24  N         24.5290  -22.7180  -10.9530 N.3     1  UNL1        0.1010
     25  C         23.6530  -22.9840  -12.1030 C.3     1  UNL1        0.3110
     26  C         24.3920  -23.0730  -13.4180 C.2     1  UNL1       -0.0270
     27  C         25.3040  -24.1160  -13.6560 C.2     1  UNL1        0.0090
     28  C         25.9800  -24.2110  -14.8760 C.2     1  UNL1        0.0040
     29  C         25.7550  -23.2620  -15.8710 C.2     1  UNL1        0.0420
     30  C         24.8560  -22.2270  -15.6360 C.2     1  UNL1        0.1170
     31  F         24.6340  -21.3160  -16.5950 F       1  UNL1       -0.2060
     32  C         24.1740  -22.1250  -14.4270 C.2     1  UNL1        0.0510
     33  C         24.7820  -21.2840  -10.7090 C.3     1  UNL1        0.3050
     34  C         26.2580  -20.8340  -10.8310 C.3     1  UNL1        0.1490
     35  C         27.0380  -21.4470  -11.9890 C.3     1  UNL1        0.0360
     36  C         27.0510  -20.3410  -13.0150 C.3     1  UNL1        0.0290
     37  C         27.1160  -19.1120  -12.1400 C.3     1  UNL1        0.1680
     38  O         26.3590  -19.4060  -10.9610 O.3     1  UNL1       -0.3840
@<TRIPOS>BOND
     1    31    30    1
     2    29    30    2
     3    29    28    1
     4    30    32    1
     5    28    27    2
     6    32    26    2
     7    27    26    1
     8    26    25    1
     9    36    37    1
    10    36    35    1
    11    21    20    1
    12    37    38    1
    13    25    24    1
    14    35    34    1
    15    20    19    2
    16    20    22    1
    17    19    18    1
    18    38    34    1
    19    24    33    1
    20    24    23    1
    21    34    33    1
    22    22    16    2
    23    18    17    2
    24    23     4    1
    25    16    17    1
    26    16     6    1
    27     8     7    1
    28     5     4    1
    29     5     1    1
    30     4     3    2
    31     7     6    1
    32     6     1    1
    33     6     9    1
    34     1     2    2
    35     3     2    1
    36     9    10    2
    37     9    15    1
    38    10    11    1
    39    15    13    2
    40    11    12    2
    41    13    12    1
    42    13    14    1
