@<TRIPOS>MOLECULE
66963_out_ligand_01.pdbqt
 34 38 0 0 0
SMALL
GASTEIGER

@<TRIPOS>ATOM
      1  C         20.8580  -22.4690  -10.9780 C.2     1  UNL1        0.0350
      2  C         22.1060  -23.0020  -10.6220 C.2     1  UNL1        0.0310
      3  C         23.2410  -22.7460  -11.3970 C.2     1  UNL1        0.0270
      4  C         23.1270  -21.9540  -12.5400 C.2     1  UNL1        0.0750
      5  C         21.8960  -21.4010  -12.8970 C.2     1  UNL1        0.0270
      6  C         20.7640  -21.6670  -12.1190 C.2     1  UNL1        0.0310
      7  N         19.7690  -22.7830  -10.1410 N.am    1  UNL1       -0.3230
      8  C         18.4340  -22.4830  -10.3330 C.2     1  UNL1        0.2590
      9  O         17.9610  -21.8870  -11.2960 O.2     1  UNL1       -0.2670
     10  H         20.0000  -23.2960   -9.2950 H       1  UNL1        0.1690
     11  C         17.4970  -22.9340   -9.2680 C.2     1  UNL1        0.0670
     12  C         16.3980  -23.7490   -9.6020 C.2     1  UNL1        0.0200
     13  C         15.4950  -24.1950   -8.6340 C.2     1  UNL1        0.0020
     14  C         15.6550  -23.8420   -7.2890 C.2     1  UNL1        0.0150
     15  C         16.7430  -23.0280   -6.9230 C.ar    1  UNL1        0.0120
     16  C         17.6250  -22.6010   -7.9150 C.ar    1  UNL1        0.1030
     17  C         17.2210  -22.4760   -5.6970 C.ar    1  UNL1        0.0110
     18  O         18.6070  -21.8270   -7.3590 O.2     1  UNL1       -0.3080
     19  C         18.3620  -21.7530   -6.0240 C.ar    1  UNL1        0.0870
     20  C         19.1360  -21.0530   -5.1010 C.2     1  UNL1        0.0380
     21  C         18.7140  -21.1010   -3.7680 C.2     1  UNL1        0.0030
     22  C         17.5730  -21.8170   -3.3960 C.2     1  UNL1        0.0010
     23  C         16.8140  -22.5110   -4.3500 C.2     1  UNL1        0.0150
     24  S         24.5770  -21.6010  -13.5040 S.O2    1  UNL1        0.2480
     25  O         25.1660  -22.8850  -13.8370 O.2     1  UNL1       -0.2050
     26  O         25.3720  -20.5950  -12.8330 O.2     1  UNL1       -0.2050
     27  N         23.9740  -21.0010  -14.9290 N.pl3   1  UNL1       -0.1480
     28  H         22.9640  -21.0340  -14.9870 H       1  UNL1        0.1490
     29  C         24.6000  -21.3990  -16.1030 C.cat   1  UNL1        0.2150
     30  N         25.7930  -20.8240  -16.2890 N.2     1  UNL1       -0.2300
     31  C         26.4980  -21.2860  -17.3380 C.2     1  UNL1        0.1210
     32  C         26.0680  -22.3080  -18.1530 C.2     1  UNL1        0.0390
     33  C         24.8490  -22.8550  -17.8230 C.2     1  UNL1        0.1210
     34  N         24.1050  -22.4320  -16.7860 N.2     1  UNL1       -0.2300
@<TRIPOS>BOND
     1    32    33    1
     2    32    31    2
     3    33    34    2
     4    31    30    1
     5    34    29    1
     6    30    29    2
     7    29    27    1
     8    28    27    1
     9    27    24    1
    10    25    24    2
    11    24    26    2
    12    24     4    1
    13     5     4    2
    14     5     6    1
    15     4     3    1
    16     6     1    2
    17     3     2    2
    18     9     8    2
    19     1     2    1
    20     1     7    1
    21     8     7   am
    22     8    11    1
    23     7    10    1
    24    12    11    2
    25    12    13    1
    26    11    16    1
    27    13    14    2
    28    16    18   ar
    29    16    15   ar
    30    18    19   ar
    31    14    15    1
    32    15    17   ar
    33    19    17   ar
    34    19    20    1
    35    17    23    1
    36    20    21    2
    37    23    22    2
    38    21    22    1
