@<TRIPOS>MOLECULE
66972_out_ligand_01.pdbqt
 35 39 0 0 0
SMALL
GASTEIGER

@<TRIPOS>ATOM
      1  C         21.6160  -22.0440  -11.4680 C.2     1  UNL1        0.0340
      2  C         21.0310  -22.8970  -10.5250 C.2     1  UNL1        0.0300
      3  C         19.6680  -22.8110  -10.2330 C.2     1  UNL1        0.0090
      4  C         18.8620  -21.8710  -10.8840 C.2     1  UNL1       -0.0580
      5  C         19.4440  -21.0270  -11.8350 C.2     1  UNL1        0.0090
      6  C         20.8100  -21.1120  -12.1230 C.2     1  UNL1        0.0300
      7  N         22.9990  -22.1870  -11.6890 N.am    1  UNL1       -0.3250
      8  C         24.0450  -21.7620  -10.8830 C.2     1  UNL1        0.2450
      9  O         23.9270  -21.1000   -9.8550 O.2     1  UNL1       -0.2710
     10  H         23.2680  -22.7190  -12.5080 H       1  UNL1        0.1690
     11  C         25.4360  -22.0360  -11.5080 C.3     1  UNL1        0.1810
     12  C         25.6170  -23.5150  -11.8670 C.3     1  UNL1        0.0430
     13  N         25.7610  -21.1210  -12.6260 N.am    1  UNL1       -0.3000
     14  C         26.2820  -19.8620  -12.3270 C.2     1  UNL1        0.2490
     15  O         26.5980  -19.5090  -11.1930 O.2     1  UNL1       -0.2710
     16  C         26.5590  -18.9700  -13.5290 C.3     1  UNL1        0.2790
     17  O         25.7400  -19.1210  -14.6690 O.2     1  UNL1       -0.3400
     18  C         25.4710  -20.4320  -14.9520 C.2     1  UNL1        0.0960
     19  C         25.1390  -20.6960  -16.2850 C.2     1  UNL1        0.0390
     20  C         25.4630  -21.4490  -13.9850 C.2     1  UNL1        0.0710
     21  C         24.8320  -21.9920  -16.6830 C.2     1  UNL1        0.0030
     22  C         24.8520  -23.0200  -15.7480 C.2     1  UNL1        0.0020
     23  C         25.1640  -22.7520  -14.4090 C.2     1  UNL1        0.0330
     24  C         17.3990  -21.7390  -10.5250 C.3     1  UNL1        0.0460
     25  C         16.8270  -22.9960   -9.8600 C.3     1  UNL1        0.0830
     26  C         16.5660  -22.8010   -8.4050 C.ar    1  UNL1        0.1050
     27  N         15.3930  -22.8220   -7.8050 N.ar    1  UNL1       -0.2330
     28  C         15.6580  -22.6160   -6.4720 C.ar    1  UNL1        0.0850
     29  C         14.7790  -22.5470   -5.3820 C.2     1  UNL1        0.0340
     30  C         17.0230  -22.4680   -6.2530 C.ar    1  UNL1        0.0620
     31  C         15.3100  -22.3320   -4.1030 C.2     1  UNL1        0.0020
     32  C         16.6870  -22.1890   -3.9140 C.2     1  UNL1        0.0020
     33  C         17.5800  -22.2550   -4.9910 C.2     1  UNL1        0.0320
     34  N         17.5780  -22.5840   -7.5000 N.ar    1  UNL1       -0.3430
     35  H         18.5650  -22.5580   -7.7170 H       1  UNL1        0.1670
@<TRIPOS>BOND
     1    21    19    1
     2    21    22    2
     3    19    18    2
     4    22    23    1
     5    18    17    1
     6    18    20    1
     7    17    16    1
     8    23    20    2
     9    20    13    1
    10    16    14    1
    11    13    14   am
    12    13    11    1
    13    10     7    1
    14    14    15    2
    15     6     5    1
    16     6     1    2
    17    12    11    1
    18     5     4    2
    19     7     1    1
    20     7     8   am
    21    11     8    1
    22     1     2    1
    23     4    24    1
    24     4     3    1
    25     8     9    2
    26     2     3    2
    27    24    25    1
    28    25    26    1
    29    26    27   ar
    30    26    34   ar
    31    27    28   ar
    32    35    34    1
    33    34    30   ar
    34    28    30   ar
    35    28    29    1
    36    30    33    1
    37    29    31    2
    38    33    32    2
    39    31    32    1
