@<TRIPOS>MOLECULE
6699_out_ligand_01.pdbqt
 32 35 0 0 0
SMALL
GASTEIGER

@<TRIPOS>ATOM
      1  C         17.4860  -22.5950   -9.7210 C.2     1  UNL1        0.1140
      2  C         17.0140  -21.5970  -10.7160 C.2     1  UNL1        0.0440
      3  C         17.9410  -21.0680  -11.5270 C.2     1  UNL1        0.0570
      4  C         19.2810  -21.4900  -11.4020 C.ar    1  UNL1        0.1740
      5  N         20.3820  -21.1690  -12.0440 N.ar    1  UNL1       -0.1280
      6  N         21.4130  -21.9080  -11.5080 N.ar    1  UNL1       -0.1330
      7  C         20.9170  -22.6610  -10.5450 C.ar    1  UNL1        0.1530
      8  N         19.5670  -22.4340  -10.4370 N.ar    1  UNL1       -0.1970
      9  N         18.6980  -23.0230   -9.5630 N.2     1  UNL1       -0.1580
     10  C         21.6520  -23.6540   -9.7160 C.3     1  UNL1        0.1030
     11  C         23.0630  -23.1690   -9.3840 C.3     1  UNL1        0.1400
     12  N         23.9880  -23.5050  -10.4740 N.3     1  UNL1       -0.3150
     13  H         24.3380  -24.4660  -10.5400 H       1  UNL1        0.1720
     14  S         25.0990  -22.3550  -10.9740 S.O2    1  UNL1        0.2580
     15  O         26.4120  -22.8830  -10.6760 O.2     1  UNL1       -0.2010
     16  O         24.6620  -21.0680  -10.4770 O.2     1  UNL1       -0.2010
     17  C         24.8930  -22.3940  -12.7350 C.2     1  UNL1        0.0790
     18  C         24.3210  -21.2910  -13.3770 C.2     1  UNL1        0.0250
     19  C         24.1520  -21.3150  -14.7610 C.2     1  UNL1        0.0020
     20  C         24.5480  -22.4370  -15.4930 C.2     1  UNL1        0.0000
     21  C         25.1110  -23.5380  -14.8450 C.2     1  UNL1        0.0020
     22  C         25.2840  -23.5220  -13.4610 C.2     1  UNL1        0.0250
     23  S         16.2260  -23.2340   -8.6980 S.3     1  UNL1       -0.1040
     24  C         17.2700  -23.9700   -7.3990 C.3     1  UNL1        0.1200
     25  C         17.5290  -23.0270   -6.2430 C.2     1  UNL1       -0.0420
     26  C         16.7400  -23.0160   -5.0740 C.2     1  UNL1       -0.0550
     27  C         17.0720  -22.1350   -4.0330 C.2     1  UNL1        0.0080
     28  C         15.5380  -23.9050   -4.9030 C.3     1  UNL1        0.0490
     29  C         18.1560  -21.2620   -4.1430 C.2     1  UNL1        0.0070
     30  C         18.9250  -21.2390   -5.3070 C.2     1  UNL1       -0.0610
     31  C         20.1040  -20.3180   -5.4210 C.3     1  UNL1        0.0480
     32  C         18.6110  -22.1250   -6.3430 C.2     1  UNL1        0.0150
@<TRIPOS>BOND
     1    20    21    2
     2    20    19    1
     3    21    22    1
     4    19    18    2
     5    22    17    2
     6    18    17    1
     7    17    14    1
     8     5     6   ar
     9     5     4   ar
    10     3     4    1
    11     3     2    2
    12     6     7   ar
    13     4     8   ar
    14    14    15    2
    15    14    16    2
    16    14    12    1
    17     2     1    1
    18     7     8   ar
    19     7    10    1
    20    13    12    1
    21    12    11    1
    22     8     9    1
    23     1     9    2
    24     1    23    1
    25    10    11    1
    26    23    24    1
    27    24    25    1
    28    32    25    2
    29    32    30    1
    30    25    26    1
    31    31    30    1
    32    30    29    2
    33    26    28    1
    34    26    27    2
    35    29    27    1
