@<TRIPOS>MOLECULE
66994_out_ligand_01.pdbqt
 30 33 0 0 0
SMALL
GASTEIGER

@<TRIPOS>ATOM
      1  C         22.3370  -22.7920  -10.5750 C.2     1  UNL1        0.0340
      2  C         22.3640  -23.6550   -9.4710 C.2     1  UNL1        0.0180
      3  C         21.1830  -23.9410   -8.7780 C.2     1  UNL1        0.0200
      4  C         19.9770  -23.3680   -9.1950 C.ar    1  UNL1        0.0590
      5  C         18.7140  -23.6520   -8.4880 C.ar    1  UNL1        0.2640
      6  O         18.7350  -24.3830   -7.5000 O.2     1  UNL1       -0.2670
      7  N         17.5600  -23.0620   -8.9990 N.ar    1  UNL1       -0.2650
      8  C         17.5420  -22.2020  -10.0880 C.ar    1  UNL1        0.3290
      9  O         16.5360  -21.6340  -10.5110 O.2     1  UNL1       -0.2460
     10  N         18.7390  -21.9680  -10.7040 N.ar    1  UNL1       -0.3070
     11  C         19.9470  -22.5260  -10.2990 C.ar    1  UNL1        0.0530
     12  C         21.1190  -22.2360  -10.9960 C.2     1  UNL1        0.0470
     13  H         18.6960  -21.3510  -11.5070 H       1  UNL1        0.1700
     14  C         23.5640  -22.4610  -11.3500 C.2     1  UNL1        0.2520
     15  O         24.6660  -22.6320  -10.8450 O.2     1  UNL1       -0.2680
     16  N         23.3720  -22.0050  -12.6390 N.am    1  UNL1       -0.3520
     17  H         22.4640  -22.1180  -13.0660 H       1  UNL1        0.1630
     18  C         24.4990  -21.7380  -13.5090 C.3     1  UNL1        0.0840
     19  C         24.2130  -20.6560  -14.5520 C.3     1  UNL1        0.0250
     20  C         25.1290  -20.9720  -15.7350 C.3     1  UNL1        0.0020
     21  C         25.7490  -22.3360  -15.4470 C.3     1  UNL1        0.0020
     22  C         24.8740  -22.9430  -14.3620 C.3     1  UNL1        0.0250
     23  C         16.2890  -23.3850   -8.3540 C.3     1  UNL1        0.1420
     24  C         15.8500  -22.3440   -7.3110 C.3     1  UNL1        0.0590
     25  C         15.9950  -22.8020   -5.8790 C.2     1  UNL1       -0.0570
     26  C         17.0980  -22.4140   -5.1080 C.2     1  UNL1        0.0070
     27  C         17.2160  -22.8280   -3.7810 C.2     1  UNL1        0.0010
     28  C         16.2340  -23.6360   -3.2110 C.2     1  UNL1        0.0000
     29  C         15.1330  -24.0300   -3.9690 C.2     1  UNL1        0.0010
     30  C         15.0130  -23.6160   -5.2960 C.2     1  UNL1        0.0070
@<TRIPOS>BOND
     1    20    21    1
     2    20    19    1
     3    21    22    1
     4    19    18    1
     5    22    18    1
     6    18    16    1
     7    17    16    1
     8    16    14   am
     9    13    10    1
    10    14    15    2
    11    14     1    1
    12    12     1    2
    13    12    11    1
    14    10    11   ar
    15    10     8   ar
    16     1     2    1
    17     9     8    2
    18    11     4   ar
    19     8     7   ar
    20     2     3    2
    21     4     3    1
    22     4     5   ar
    23     7     5   ar
    24     7    23    1
    25     5     6    2
    26    23    24    1
    27    24    25    1
    28    25    30    2
    29    25    26    1
    30    30    29    1
    31    26    27    2
    32    29    28    2
    33    27    28    1
