@<TRIPOS>MOLECULE
67000_out_ligand_01.pdbqt
 33 36 0 0 0
SMALL
GASTEIGER

@<TRIPOS>ATOM
      1  N         21.1730  -23.1160   -9.3970 N.3     1  UNL1        0.1040
      2  C         21.0660  -22.1710   -8.2720 C.3     1  UNL1        0.3110
      3  C         19.9390  -22.3970   -7.2840 C.2     1  UNL1       -0.0300
      4  C         19.5900  -21.4160   -6.3460 C.2     1  UNL1        0.0090
      5  C         18.5460  -21.6290   -5.4420 C.2     1  UNL1        0.0070
      6  C         17.8280  -22.8290   -5.4570 C.2     1  UNL1       -0.0620
      7  C         16.7310  -23.0740   -4.4640 C.3     1  UNL1        0.0480
      8  C         18.1920  -23.8240   -6.3700 C.2     1  UNL1        0.0070
      9  C         19.2360  -23.6100   -7.2730 C.2     1  UNL1        0.0090
     10  C         20.7650  -22.5560  -10.6950 C.3     1  UNL1        0.3110
     11  C         19.3130  -22.1170  -10.7410 C.2     1  UNL1       -0.0290
     12  C         18.9400  -20.9550  -11.4320 C.2     1  UNL1        0.0090
     13  C         17.6100  -20.5340  -11.4520 C.2     1  UNL1        0.0010
     14  C         16.6370  -21.2660  -10.7730 C.2     1  UNL1        0.0160
     15  C         16.9840  -22.4280  -10.0670 C.2     1  UNL1        0.0480
     16  C         18.3290  -22.8340  -10.0450 C.2     1  UNL1        0.0250
     17  C         15.9370  -23.2060   -9.3090 C.3     1  UNL1        0.4170
     18  F         16.3890  -24.4150   -8.8690 F       1  UNL1       -0.1660
     19  F         14.8270  -23.4760  -10.0510 F       1  UNL1       -0.1660
     20  F         15.4980  -22.5460   -8.2020 F       1  UNL1       -0.1660
     21  C         22.5000  -23.7520   -9.4720 C.3     1  UNL1        0.3590
     22  C         23.4640  -23.0030  -10.3460 C.2     1  UNL1        0.1740
     23  N         23.8570  -23.2710  -11.5790 N.2     1  UNL1       -0.2190
     24  C         24.7340  -22.2370  -11.8760 C.2     1  UNL1        0.1490
     25  C         24.8350  -21.3980  -10.7930 C.2     1  UNL1        0.1810
     26  O         24.0300  -21.8760   -9.8050 O.2     1  UNL1       -0.3030
     27  C         25.4220  -22.0960  -13.1530 C.2     1  UNL1        0.2720
     28  O         26.2960  -21.2570  -13.3350 O.2     1  UNL1       -0.2660
     29  N         24.9630  -23.0070  -14.0850 N.am    1  UNL1       -0.3510
     30  H         24.2240  -23.6190  -13.7400 H       1  UNL1        0.1630
     31  C         25.3920  -23.1650  -15.4380 C.3     1  UNL1        0.0850
     32  C         24.4840  -23.6340  -16.5380 C.3     1  UNL1        0.0270
     33  C         25.0020  -22.2220  -16.5400 C.3     1  UNL1        0.0270
@<TRIPOS>BOND
     1    33    32    1
     2    33    31    1
     3    32    31    1
     4    31    29    1
     5    29    30    1
     6    29    27   am
     7    28    27    2
     8    27    24    1
     9    24    23    1
    10    24    25    2
    11    23    22    2
    12    13    12    1
    13    13    14    2
    14    12    11    2
    15    25    26    1
    16    14    15    1
    17    11    10    1
    18    11    16    1
    19    10     1    1
    20    22    26    1
    21    22    21    1
    22    15    16    2
    23    15    17    1
    24    19    17    1
    25    21     1    1
    26     1     2    1
    27    17    18    1
    28    17    20    1
    29     2     3    1
    30     3     9    2
    31     3     4    1
    32     9     8    1
    33     8     6    2
    34     4     5    2
    35     6     5    1
    36     6     7    1
