@<TRIPOS>MOLECULE
67010_out_ligand_01.pdbqt
 31 33 0 0 0
SMALL
GASTEIGER

@<TRIPOS>ATOM
      1  C         20.4860  -22.4630   -7.4750 C.2     1  UNL1        0.0720
      2  C         19.2830  -23.1750   -7.3300 C.2     1  UNL1        0.0450
      3  C         18.3400  -22.7760   -6.3750 C.2     1  UNL1        0.0800
      4  C         18.5670  -21.6500   -5.5770 C.2     1  UNL1        0.0280
      5  C         19.7550  -20.9360   -5.7220 C.2     1  UNL1        0.0450
      6  C         20.7020  -21.3450   -6.6620 C.2     1  UNL1        0.1320
      7  F         21.8310  -20.6260   -6.7630 F       1  UNL1       -0.2050
      8  S         16.8090  -23.6660   -6.2170 S.O2    1  UNL1        0.2580
      9  O         17.0590  -25.0360   -6.6080 O.2     1  UNL1       -0.2010
     10  O         16.2200  -23.3320   -4.9420 O.2     1  UNL1       -0.2010
     11  N         15.8750  -22.9970   -7.4250 N.3     1  UNL1       -0.3150
     12  H         15.1040  -22.4070   -7.1190 H       1  UNL1        0.1720
     13  C         15.9030  -23.5300   -8.7880 C.3     1  UNL1        0.1370
     14  C         15.7620  -22.3810   -9.7880 C.3     1  UNL1        0.0580
     15  C         17.0710  -22.0750  -10.4730 C.2     1  UNL1       -0.0570
     16  C         17.2710  -20.8330  -11.0930 C.2     1  UNL1        0.0070
     17  C         18.4890  -20.5380  -11.7050 C.2     1  UNL1        0.0010
     18  C         19.5180  -21.4770  -11.7030 C.2     1  UNL1        0.0000
     19  C         19.3310  -22.7130  -11.0860 C.2     1  UNL1        0.0010
     20  C         18.1130  -23.0110  -10.4720 C.2     1  UNL1        0.0070
     21  C         21.4770  -22.9440   -8.4870 C.2     1  UNL1        0.2590
     22  N         22.1390  -21.9740   -9.2140 N.am    1  UNL1       -0.3230
     23  H         21.9190  -21.0060   -9.0060 H       1  UNL1        0.1690
     24  O         21.6320  -24.1560   -8.5940 O.2     1  UNL1       -0.2670
     25  C         23.1090  -22.1620  -10.2220 C.2     1  UNL1        0.0350
     26  C         22.9440  -22.9980  -11.3250 C.2     1  UNL1        0.0300
     27  C         23.9590  -23.1260  -12.2810 C.2     1  UNL1        0.0090
     28  C         25.1540  -22.4100  -12.1540 C.2     1  UNL1       -0.0620
     29  C         26.2520  -22.5750  -13.1620 C.3     1  UNL1        0.0480
     30  C         25.3280  -21.5820  -11.0420 C.2     1  UNL1        0.0090
     31  C         24.3110  -21.4560  -10.0880 C.2     1  UNL1        0.0300
@<TRIPOS>BOND
     1    29    28    1
     2    27    28    2
     3    27    26    1
     4    28    30    1
     5    17    18    2
     6    17    16    1
     7    18    19    1
     8    26    25    2
     9    16    15    2
    10    19    20    2
    11    30    31    2
    12    15    20    1
    13    15    14    1
    14    25    31    1
    15    25    22    1
    16    14    13    1
    17    22    23    1
    18    22    21   am
    19    13    11    1
    20    24    21    2
    21    21     1    1
    22     1     2    2
    23     1     6    1
    24    11    12    1
    25    11     8    1
    26     2     3    1
    27     7     6    1
    28     6     5    2
    29     9     8    2
    30     3     8    1
    31     3     4    2
    32     8    10    2
    33     5     4    1
