@<TRIPOS>MOLECULE
67016_out_ligand_01.pdbqt
 28 31 0 0 0
SMALL
GASTEIGER

@<TRIPOS>ATOM
      1  C         18.1770  -22.0500  -10.5190 C.2     1  UNL1       -0.0400
      2  C         18.4510  -21.1090  -11.5200 C.2     1  UNL1        0.0100
      3  C         19.7330  -21.0070  -12.0700 C.2     1  UNL1        0.0160
      4  C         20.7720  -21.8380  -11.6270 C.2     1  UNL1        0.0170
      5  C         20.4930  -22.7710  -10.6180 C.2     1  UNL1        0.0160
      6  C         19.2130  -22.8750  -10.0660 C.2     1  UNL1        0.0100
      7  C         16.8000  -22.1300   -9.9100 C.3     1  UNL1        0.1610
      8  N         16.8790  -22.0970   -8.4710 N.am    1  UNL1       -0.3530
      9  C         16.3540  -23.0900   -7.6790 C.2     1  UNL1        0.2540
     10  O         15.9280  -24.1470   -8.1380 O.2     1  UNL1       -0.2680
     11  H         17.0810  -21.2080   -8.0270 H       1  UNL1        0.1630
     12  C         16.3270  -22.8480   -6.1980 C.2     1  UNL1        0.0650
     13  C         15.0890  -23.0500   -5.5590 C.2     1  UNL1        0.0200
     14  C         14.9510  -22.8550   -4.1860 C.2     1  UNL1        0.0010
     15  C         16.0490  -22.4550   -3.4340 C.2     1  UNL1        0.0030
     16  C         17.2830  -22.2410   -4.0530 C.2     1  UNL1        0.0380
     17  C         17.4340  -22.4210   -5.4360 C.2     1  UNL1        0.0840
     18  O         18.6290  -22.2190   -6.0830 O.2     1  UNL1       -0.3550
     19  C         19.3530  -21.0400   -5.7470 C.3     1  UNL1        0.2100
     20  C         22.1210  -21.7520  -12.1790 C.ar    1  UNL1        0.1800
     21  N         23.2690  -22.1080  -11.6250 N.ar    1  UNL1       -0.2200
     22  C         24.2030  -21.8070  -12.5860 C.ar    1  UNL1        0.1110
     23  C         25.5900  -21.9420  -12.6210 C.2     1  UNL1        0.1500
     24  C         23.5780  -21.2730  -13.6980 C.ar    1  UNL1        0.1090
     25  N         26.2790  -21.5510  -13.7300 N.2     1  UNL1       -0.2710
     26  C         25.6010  -21.0360  -14.7870 C.2     1  UNL1        0.1190
     27  C         24.2270  -20.8610  -14.8490 C.2     1  UNL1        0.0590
     28  O         22.2390  -21.2330  -13.4460 O.2     1  UNL1       -0.2890
@<TRIPOS>BOND
     1    27    26    2
     2    27    24    1
     3    26    25    1
     4    25    23    2
     5    24    28   ar
     6    24    22   ar
     7    28    20   ar
     8    23    22    1
     9    22    21   ar
    10    20     4    1
    11    20    21   ar
    12     3     4    2
    13     3     2    1
    14     4     5    1
    15     2     1    2
    16     5     6    2
    17     1     6    1
    18     1     7    1
    19     7     8    1
    20     8    11    1
    21     8     9   am
    22    10     9    2
    23     9    12    1
    24    12    13    2
    25    12    17    1
    26    18    19    1
    27    18    17    1
    28    13    14    1
    29    17    16    2
    30    14    15    2
    31    16    15    1
