@<TRIPOS>MOLECULE
67034_out_ligand_01.pdbqt
 38 43 0 0 0
SMALL
GASTEIGER

@<TRIPOS>ATOM
      1  C         18.1560  -22.7430   -9.5960 C.2     1  UNL1        0.1020
      2  C         19.3280  -22.2330  -10.1660 C.2     1  UNL1        0.0500
      3  C         20.5940  -22.5890   -9.6610 C.2     1  UNL1       -0.0120
      4  C         20.6660  -23.4530   -8.5550 C.2     1  UNL1        0.0140
      5  C         19.5070  -23.9780   -7.9840 C.2     1  UNL1        0.0410
      6  C         18.2630  -23.6080   -8.4970 C.2     1  UNL1        0.1120
      7  C         21.8550  -21.9950  -10.2730 C.3     1  UNL1        0.2430
      8  N         22.9990  -22.8690   -9.9720 N.2     1  UNL1       -0.2350
      9  C         23.8870  -22.9670  -10.8910 C.2     1  UNL1        0.1730
     10  C         23.8230  -22.3320  -12.1820 C.ar    1  UNL1        0.0570
     11  C         22.6500  -21.6940  -12.5050 C.ar    1  UNL1        0.0870
     12  C         24.7750  -22.2460  -13.2450 C.ar    1  UNL1       -0.0240
     13  S         22.6820  -20.9830  -14.0450 S.2     1  UNL1       -0.0740
     14  N         21.5960  -21.6650  -11.6660 N.pl3   1  UNL1       -0.3570
     15  C         24.2740  -21.5260  -14.3140 C.ar    1  UNL1        0.0200
     16  C         25.0080  -21.2650  -15.5960 C.3     1  UNL1        0.3180
     17  N         26.4710  -21.4680  -15.4630 N.3     1  UNL1        0.0890
     18  C         26.7610  -22.7130  -14.7160 C.3     1  UNL1        0.2770
     19  C         27.1210  -20.3050  -14.8600 C.3     1  UNL1        0.3100
     20  C         26.1680  -22.7960  -13.2900 C.3     1  UNL1        0.0710
     21  H         20.8300  -21.0200  -11.8340 H       1  UNL1        0.1620
     22  O         24.9670  -23.7260  -10.6370 O.2     1  UNL1       -0.3440
     23  H         24.6380  -24.6150  -10.4250 H       1  UNL1        0.2190
     24  O         16.8830  -22.4710  -10.0270 O.2     1  UNL1       -0.3530
     25  C         16.7190  -21.4010  -10.9470 C.3     1  UNL1        0.2100
     26  O         17.0560  -24.1350   -7.9830 O.3     1  UNL1       -0.2720
     27  C         16.0590  -23.2910   -7.5280 C.2     1  UNL1        0.2990
     28  O         15.1890  -22.7330   -8.1750 O.2     1  UNL1       -0.2590
     29  C         16.1240  -23.2480   -6.0510 C.2     1  UNL1        0.0510
     30  C         15.1640  -24.0260   -5.3830 C.2     1  UNL1        0.0180
     31  C         15.1530  -24.0840   -3.9960 C.2     1  UNL1        0.0020
     32  C         16.0960  -23.3600   -3.2700 C.2     1  UNL1        0.0120
     33  C         17.0510  -22.5550   -3.9140 C.2     1  UNL1       -0.0250
     34  C         17.9790  -21.8220   -3.1530 C.2     1  UNL1        0.0120
     35  C         17.0760  -22.4770   -5.3300 C.2     1  UNL1       -0.0100
     36  C         18.9250  -21.0010   -3.7660 C.2     1  UNL1        0.0010
     37  C         18.9500  -20.8950   -5.1480 C.2     1  UNL1        0.0010
     38  C         18.0360  -21.6170   -5.9210 C.2     1  UNL1        0.0130
@<TRIPOS>BOND
     1    16    17    1
     2    16    15    1
     3    17    19    1
     4    17    18    1
     5    18    20    1
     6    15    13   ar
     7    15    12   ar
     8    13    11   ar
     9    20    12    1
    10    12    10   ar
    11    11    10   ar
    12    11    14    1
    13    10     9    1
    14    21    14    1
    15    14     7    1
    16    25    24    1
    17     9    22    1
    18     9     8    2
    19    22    23    1
    20     7     8    1
    21     7     3    1
    22     2     3    1
    23     2     1    2
    24    24     1    1
    25     3     4    2
    26     1     6    1
    27     4     5    1
    28     6     5    2
    29     6    26    1
    30    28    27    2
    31    26    27    1
    32    27    29    1
    33    29    30    2
    34    29    35    1
    35    38    35    1
    36    38    37    2
    37    30    31    1
    38    35    33    2
    39    37    36    1
    40    31    32    2
    41    33    32    1
    42    33    34    1
    43    36    34    2
