@<TRIPOS>MOLECULE
67044_out_ligand_01.pdbqt
 33 37 0 0 0
SMALL
GASTEIGER

@<TRIPOS>ATOM
      1  C         22.5050  -22.1530  -10.1710 C.2     1  UNL1       -0.0070
      2  C         22.3030  -23.2040   -9.3070 C.2     1  UNL1        0.1030
      3  N         20.9790  -23.5630   -9.3870 N.pl3   1  UNL1       -0.3550
      4  C         20.3110  -22.7350  -10.2680 C.2     1  UNL1        0.0450
      5  C         18.9630  -22.6950  -10.6630 C.2     1  UNL1        0.0300
      6  C         18.5660  -21.7060  -11.5670 C.2     1  UNL1        0.0020
      7  C         19.4810  -20.7880  -12.0710 C.2     1  UNL1        0.0010
      8  C         20.8220  -20.8370  -11.6800 C.2     1  UNL1        0.0140
      9  C         21.2520  -21.8260  -10.7680 C.2     1  UNL1        0.0020
     10  C         23.7600  -21.5000  -10.3390 C.2     1  UNL1        0.0340
     11  C         24.6340  -21.6150  -11.3590 C.2     1  UNL1        0.0810
     12  C         24.4990  -22.5520  -12.5320 C.2     1  UNL1        0.1440
     13  C         25.8230  -20.6840  -11.3290 C.2     1  UNL1        0.2830
     14  N         25.2980  -22.2360  -13.6170 N.pl3   1  UNL1       -0.2840
     15  N         23.7160  -23.5850  -12.4630 N.2     1  UNL1       -0.2830
     16  C         25.2870  -22.8190  -14.8810 C.2     1  UNL1        0.1150
     17  C         26.2410  -21.2300  -13.5110 C.2     1  UNL1        0.1820
     18  C         26.1680  -22.3240  -15.7680 C.2     1  UNL1       -0.0020
     19  C         26.3690  -22.7450  -17.1790 C.3     1  UNL1        0.0580
     20  S         27.1140  -21.0360  -15.0470 S.3     1  UNL1       -0.0550
     21  N         26.5250  -20.4930  -12.4980 N.am    1  UNL1       -0.1840
     22  H         23.7330  -24.1470  -13.3100 H       1  UNL1        0.1880
     23  O         26.1340  -20.0980  -10.2960 O.2     1  UNL1       -0.2650
     24  C         20.4010  -24.6670   -8.6380 C.3     1  UNL1        0.1310
     25  C         19.1400  -24.2760   -7.8620 C.3     1  UNL1        0.0470
     26  C         19.3210  -23.0250   -7.0040 C.3     1  UNL1        0.1770
     27  O         18.2130  -22.1570   -7.2370 O.2     1  UNL1       -0.3510
     28  C         17.1500  -22.2560   -6.3820 C.2     1  UNL1        0.0680
     29  C         15.8110  -22.4030   -6.7490 C.2     1  UNL1        0.0370
     30  C         14.8220  -22.5020   -5.7650 C.2     1  UNL1        0.0030
     31  C         15.1650  -22.4540   -4.4150 C.2     1  UNL1        0.0000
     32  C         16.4990  -22.3060   -4.0450 C.2     1  UNL1        0.0030
     33  C         17.4860  -22.2080   -5.0270 C.2     1  UNL1        0.0370
@<TRIPOS>BOND
     1    19    18    1
     2    18    20    1
     3    18    16    2
     4    20    17    1
     5    16    14    1
     6    14    17    1
     7    14    12    1
     8    17    21    2
     9    22    15    1
    10    12    15    2
    11    12    11    1
    12    21    13    1
    13     7     8    2
    14     7     6    1
    15     8     9    1
    16     6     5    2
    17    11    13    1
    18    11    10    2
    19    13    23    2
    20     9     4    2
    21     9     1    1
    22     5     4    1
    23    10     1    1
    24     4     3    1
    25     1     2    2
    26     3     2    1
    27     3    24    1
    28    24    25    1
    29    25    26    1
    30    27    26    1
    31    27    28    1
    32    29    28    2
    33    29    30    1
    34    28    33    1
    35    30    31    2
    36    33    32    2
    37    31    32    1
