@<TRIPOS>MOLECULE
67045_out_ligand_01.pdbqt
 35 39 0 0 0
SMALL
GASTEIGER

@<TRIPOS>ATOM
      1  N         20.7570  -23.5800   -9.5550 N.pl3   1  UNL1       -0.3530
      2  C         22.1030  -23.3110   -9.5720 C.2     1  UNL1        0.1030
      3  C         22.2820  -22.1340  -10.2600 C.2     1  UNL1       -0.0070
      4  C         21.0080  -21.6860  -10.7120 C.2     1  UNL1        0.0020
      5  C         20.5650  -20.5860  -11.4770 C.2     1  UNL1        0.0140
      6  C         19.2010  -20.4350  -11.7490 C.2     1  UNL1        0.0010
      7  C         18.2780  -21.3590  -11.2700 C.2     1  UNL1        0.0020
      8  C         18.6900  -22.4600  -10.5130 C.2     1  UNL1        0.0300
      9  C         20.0620  -22.6100  -10.2500 C.2     1  UNL1        0.0450
     10  C         23.5540  -21.5470  -10.5080 C.3     1  UNL1        0.0340
     11  C         24.1920  -21.4060  -11.6870 C.ar    1  UNL1        0.0820
     12  C         23.6530  -21.8100  -13.0290 C.ar    1  UNL1        0.1620
     13  C         25.5800  -20.7980  -11.6340 C.ar    1  UNL1        0.2830
     14  N         22.4350  -22.2240  -13.2190 N.pl3   1  UNL1       -0.2810
     15  N         24.5400  -21.6940  -14.0810 N.ar    1  UNL1       -0.1890
     16  H         22.3460  -22.4280  -14.2250 H       1  UNL1        0.1880
     17  N         24.2110  -22.0590  -15.3780 N.ar    1  UNL1       -0.1610
     18  C         25.8010  -21.1940  -13.8820 C.ar    1  UNL1        0.2010
     19  C         25.2390  -21.8410  -16.1450 C.ar    1  UNL1        0.1020
     20  S         26.6830  -21.1800  -15.3890 S.2     1  UNL1       -0.0330
     21  N         26.3310  -20.7710  -12.7920 N.ar    1  UNL1       -0.1820
     22  O         26.0290  -20.3540  -10.5820 O.2     1  UNL1       -0.2650
     23  C         25.2180  -22.1360  -17.6270 C.3     1  UNL1        0.0380
     24  C         24.2000  -23.2170  -17.9710 C.3     1  UNL1        0.0160
     25  C         26.6090  -22.4790  -18.1530 C.3     1  UNL1        0.0160
     26  C         20.1730  -24.7420   -8.9090 C.3     1  UNL1        0.1550
     27  C         19.4800  -24.3780   -7.6000 C.3     1  UNL1        0.1960
     28  O         18.0580  -24.3940   -7.7550 O.2     1  UNL1       -0.3500
     29  C         17.2850  -23.8100   -6.7910 C.2     1  UNL1        0.0690
     30  C         15.9040  -23.9310   -6.6510 C.2     1  UNL1        0.0370
     31  C         15.2450  -23.2750   -5.6070 C.2     1  UNL1        0.0030
     32  C         15.9620  -22.4960   -4.6980 C.2     1  UNL1        0.0070
     33  C         17.3460  -22.3590   -4.8300 C.2     1  UNL1       -0.0590
     34  C         18.1310  -21.5560   -3.8350 C.3     1  UNL1        0.0480
     35  C         17.9990  -23.0330   -5.8720 C.2     1  UNL1        0.0430
@<TRIPOS>BOND
     1    25    23    1
     2    24    23    1
     3    23    19    1
     4    19    20   ar
     5    19    17   ar
     6    20    18   ar
     7    17    15   ar
     8    16    14    1
     9    15    18   ar
    10    15    12   ar
    11    18    21   ar
    12    14    12    1
    13    12    11   ar
    14    21    13   ar
    15     6     5    1
    16     6     7    2
    17    11    13   ar
    18    11    10    1
    19    13    22    2
    20     5     4    2
    21     7     8    1
    22     4     3    1
    23     4     9    1
    24     8     9    2
    25    10     3    1
    26     3     2    2
    27     9     1    1
    28     2     1    1
    29     1    26    1
    30    26    27    1
    31    28    27    1
    32    28    29    1
    33    29    30    2
    34    29    35    1
    35    30    31    1
    36    35    33    2
    37    31    32    2
    38    33    32    1
    39    33    34    1
