@<TRIPOS>MOLECULE
67056_out_ligand_01.pdbqt
 34 37 0 0 0
SMALL
GASTEIGER

@<TRIPOS>ATOM
      1  C         21.5690  -22.8270  -10.0420 C.2     1  UNL1        0.0750
      2  C         20.9000  -22.0630  -10.9970 C.2     1  UNL1        0.0270
      3  C         19.5090  -22.1580  -11.1020 C.2     1  UNL1        0.0310
      4  C         18.7680  -23.0170  -10.2710 C.2     1  UNL1        0.0310
      5  C         19.4670  -23.7870   -9.3320 C.2     1  UNL1        0.0310
      6  C         20.8600  -23.7000   -9.2160 C.2     1  UNL1        0.0270
      7  N         17.3710  -23.0540  -10.4300 N.pl3   1  UNL1       -0.3660
      8  H         17.0620  -23.6590  -11.1850 H       1  UNL1        0.1650
      9  C         16.4000  -22.3580   -9.7610 C.2     1  UNL1        0.0920
     10  C         15.8240  -22.5760   -8.5710 C.2     1  UNL1        0.0720
     11  C         16.0910  -23.6380   -7.5650 C.2     1  UNL1        0.1840
     12  O         16.2380  -24.8020   -7.9230 O.2     1  UNL1       -0.2880
     13  C         16.1450  -23.2950   -6.1320 C.2     1  UNL1        0.0250
     14  C         15.1170  -23.7830   -5.3130 C.2     1  UNL1        0.0160
     15  C         15.0960  -23.4530   -3.9650 C.2     1  UNL1        0.0020
     16  C         16.0990  -22.6390   -3.4350 C.2     1  UNL1        0.0120
     17  C         17.1420  -22.1500   -4.2410 C.2     1  UNL1       -0.0250
     18  C         18.1390  -21.3290   -3.6900 C.2     1  UNL1        0.0120
     19  C         17.1850  -22.4830   -5.6160 C.2     1  UNL1       -0.0120
     20  C         19.1750  -20.8310   -4.4790 C.2     1  UNL1        0.0010
     21  C         19.2320  -21.1510   -5.8290 C.2     1  UNL1        0.0010
     22  C         18.2490  -21.9680   -6.3920 C.2     1  UNL1        0.0130
     23  S         23.3360  -22.7330   -9.9280 S.O2    1  UNL1        0.2470
     24  O         23.7860  -23.5860   -8.8500 O.2     1  UNL1       -0.2050
     25  O         23.7060  -21.3310   -9.9530 O.2     1  UNL1       -0.2050
     26  N         23.8220  -23.3370  -11.4190 N.pl3   1  UNL1       -0.1570
     27  H         23.0330  -23.7690  -11.8950 H       1  UNL1        0.1480
     28  C         24.5570  -22.3720  -12.2040 C.ar    1  UNL1        0.1830
     29  N         25.8440  -22.1820  -12.0500 N.ar    1  UNL1       -0.1290
     30  N         26.3340  -21.2440  -12.9390 N.ar    1  UNL1       -0.1450
     31  C         25.3940  -20.7840  -13.7390 C.ar    1  UNL1        0.1000
     32  S         23.8440  -21.4840  -13.4750 S.2     1  UNL1       -0.0380
     33  C         25.6100  -19.7580  -14.8010 C.3     1  UNL1        0.0640
     34  C         26.6460  -18.7290  -14.3760 C.3     1  UNL1        0.0120
@<TRIPOS>BOND
     1    33    34    1
     2    33    31    1
     3    31    32   ar
     4    31    30   ar
     5    32    28   ar
     6    30    29   ar
     7    28    29   ar
     8    28    26    1
     9    27    26    1
    10    26    23    1
    11     8     7    1
    12     3     2    1
    13     3     4    2
    14     2     1    2
    15     7     4    1
    16     7     9    1
    17     4     5    1
    18     1    23    1
    19     1     6    1
    20    25    23    2
    21    23    24    2
    22     9    10    2
    23     5     6    2
    24    10    11    1
    25    12    11    2
    26    11    13    1
    27    22    21    2
    28    22    19    1
    29    13    19    2
    30    13    14    1
    31    21    20    1
    32    19    17    1
    33    14    15    2
    34    20    18    2
    35    17    18    1
    36    17    16    2
    37    15    16    1
