@<TRIPOS>MOLECULE
6706_out_ligand_01.pdbqt
 34 37 0 0 0
SMALL
GASTEIGER

@<TRIPOS>ATOM
      1  C         19.2790  -22.8730  -10.0910 C.2     1  UNL1       -0.0040
      2  C         19.3460  -21.7100  -11.0780 C.2     1  UNL1        0.0580
      3  C         18.1010  -20.8990  -11.3610 C.3     1  UNL1        0.0720
      4  N         20.4140  -21.3260  -11.7140 N.2     1  UNL1       -0.0650
      5  C         21.5670  -21.9860  -11.4460 C.cat   1  UNL1        0.7520
      6  N         22.7510  -21.8480  -11.9950 N.2     1  UNL1       -0.0330
      7  C         23.5270  -22.7270  -11.3140 C.2     1  UNL1        0.2270
      8  N         22.9190  -23.3900  -10.3270 N.pl3   1  UNL1       -0.1240
      9  N         21.6290  -22.9790  -10.4700 N.pl3   1  UNL1       -0.0610
     10  C         20.4810  -23.4340   -9.7980 C.3     1  UNL1        0.0590
     11  C         20.7150  -24.5620   -8.8290 C.3     1  UNL1        0.0720
     12  S         25.1920  -23.0010  -11.7400 S.3     1  UNL1       -0.0790
     13  C         25.0380  -23.8890  -13.3060 C.3     1  UNL1        0.1850
     14  C         25.5880  -23.0510  -14.4460 C.2     1  UNL1        0.2310
     15  O         26.2550  -23.5770  -15.3340 O.2     1  UNL1       -0.2720
     16  N         25.2750  -21.7040  -14.3340 N.am    1  UNL1       -0.3260
     17  H         24.6750  -21.4630  -13.5530 H       1  UNL1        0.1690
     18  C         25.6200  -20.6520  -15.2210 C.2     1  UNL1        0.0410
     19  C         25.3610  -20.7320  -16.5940 C.2     1  UNL1        0.0300
     20  C         25.6690  -19.6740  -17.4500 C.2     1  UNL1        0.0030
     21  C         26.2350  -18.5130  -16.9450 C.2     1  UNL1        0.0070
     22  C         26.5130  -18.3930  -15.5760 C.2     1  UNL1       -0.0540
     23  C         27.1200  -17.1050  -15.0870 C.3     1  UNL1        0.0490
     24  C         26.2310  -19.4780  -14.7040 C.2     1  UNL1       -0.0290
     25  C         26.5500  -19.3620  -13.2350 C.3     1  UNL1        0.0510
     26  C         17.9440  -23.2800   -9.5060 C.3     1  UNL1        0.0820
     27  C         17.7450  -23.0070   -8.0230 C.2     1  UNL1       -0.0470
     28  C         16.7750  -23.6540   -7.2310 C.2     1  UNL1       -0.0550
     29  C         16.6570  -23.3060   -5.8740 C.2     1  UNL1        0.0080
     30  C         15.8340  -24.6930   -7.7730 C.3     1  UNL1        0.0490
     31  C         17.5070  -22.3680   -5.2890 C.2     1  UNL1        0.0070
     32  C         18.5050  -21.7590   -6.0460 C.2     1  UNL1       -0.0610
     33  C         19.4280  -20.7470   -5.4370 C.3     1  UNL1        0.0480
     34  C         18.6160  -22.0840   -7.4040 C.2     1  UNL1        0.0140
@<TRIPOS>BOND
     1    20    21    2
     2    20    19    1
     3    21    22    1
     4    19    18    2
     5    22    23    1
     6    22    24    2
     7    15    14    2
     8    18    24    1
     9    18    16    1
    10    24    25    1
    11    14    16   am
    12    14    13    1
    13    16    17    1
    14    13    12    1
    15     6     5    1
    16     6     7    2
    17    12     7    1
    18     4     5    2
    19     4     2    1
    20     5     9    1
    21     3     2    1
    22     7     8    1
    23     2     1    2
    24     9     8    1
    25     9    10    1
    26     1    10    1
    27     1    26    1
    28    10    11    1
    29    26    27    1
    30    27    34    2
    31    27    28    1
    32    30    28    1
    33    34    32    1
    34    28    29    2
    35    32    33    1
    36    32    31    2
    37    29    31    1
