@<TRIPOS>MOLECULE
67070_out_ligand_01.pdbqt
 29 32 0 0 0
SMALL
GASTEIGER

@<TRIPOS>ATOM
      1  C         21.3450  -21.8590  -11.7190 C.2     1  UNL1        0.0330
      2  C         20.2650  -21.0570  -12.1650 C.2     1  UNL1        0.0180
      3  C         19.0110  -21.1360  -11.5450 C.2     1  UNL1        0.0190
      4  C         18.8800  -22.0180  -10.4890 C.2     1  UNL1        0.0480
      5  C         19.9360  -22.7920  -10.0450 C.2     1  UNL1        0.0490
      6  C         21.1850  -22.7330  -10.6330 C.2     1  UNL1        0.0350
      7  C         19.4530  -23.5890   -8.9200 C.2     1  UNL1        0.2620
      8  O         20.1430  -24.3690   -8.2930 O.2     1  UNL1       -0.2670
      9  N         18.1340  -23.2700   -8.7530 N.am    1  UNL1       -0.2760
     10  C         17.7250  -22.3190   -9.6460 C.2     1  UNL1        0.2620
     11  O         16.6470  -21.7740   -9.7690 O.2     1  UNL1       -0.2670
     12  C         22.6880  -21.7710  -12.3540 C.2     1  UNL1        0.2560
     13  N         22.6950  -21.3510  -13.6690 N.am    1  UNL1       -0.3200
     14  H         21.8230  -21.2060  -14.1590 H       1  UNL1        0.1690
     15  O         23.6660  -22.0970  -11.6930 O.2     1  UNL1       -0.2670
     16  C         23.8480  -21.1850  -14.4140 C.2     1  UNL1        0.0710
     17  C         24.2800  -22.0780  -15.3670 C.2     1  UNL1        0.1420
     18  N         25.4400  -21.5600  -15.8690 N.pl3   1  UNL1       -0.2830
     19  C         26.2770  -22.1350  -16.8930 C.3     1  UNL1        0.1790
     20  N         25.7890  -20.3860  -15.3140 N.2     1  UNL1       -0.1830
     21  C         24.8190  -20.1590  -14.4220 C.2     1  UNL1        0.1690
     22  C         17.2790  -23.8570   -7.7390 C.3     1  UNL1        0.1760
     23  C         17.3380  -23.0930   -6.4320 C.2     1  UNL1       -0.0180
     24  C         18.4650  -22.2900   -6.1720 C.2     1  UNL1        0.0100
     25  C         18.5870  -21.5790   -4.9760 C.2     1  UNL1        0.0010
     26  C         17.5820  -21.6540   -4.0200 C.2     1  UNL1        0.0020
     27  C         16.4520  -22.4350   -4.2620 C.2     1  UNL1        0.0240
     28  C         16.3280  -23.1500   -5.4600 C.2     1  UNL1        0.0420
     29 CL         14.8790  -24.0660   -5.6760 Cl      1  UNL1       -0.0840
@<TRIPOS>BOND
     1    19    18    1
     2    18    17    1
     3    18    20    1
     4    17    16    2
     5    20    21    2
     6    21    16    1
     7    16    13    1
     8    14    13    1
     9    13    12   am
    10    12     1    1
    11    12    15    2
    12     2     1    2
    13     2     3    1
    14     1     6    1
    15     3     4    2
    16     6     5    2
    17     4     5    1
    18     4    10    1
    19     5     7    1
    20    11    10    2
    21    10     9   am
    22     7     9   am
    23     7     8    2
    24     9    22    1
    25    22    23    1
    26    23    24    2
    27    23    28    1
    28    24    25    1
    29    29    28    1
    30    28    27    2
    31    25    26    2
    32    27    26    1
