@<TRIPOS>MOLECULE
67082_out_ligand_01.pdbqt
 38 42 0 0 0
SMALL
GASTEIGER

@<TRIPOS>ATOM
      1  N         20.1780  -22.6770   -9.2240 N.pl3   1  UNL1       -0.3460
      2  C         21.2690  -22.4230  -10.0180 C.2     1  UNL1        0.1040
      3  C         20.8190  -21.8010  -11.1590 C.2     1  UNL1       -0.0070
      4  C         19.4000  -21.7170  -11.0840 C.2     1  UNL1        0.0020
      5  C         18.3960  -21.2220  -11.9440 C.2     1  UNL1        0.0140
      6  C         17.0550  -21.2870  -11.5510 C.2     1  UNL1        0.0010
      7  C         16.7040  -21.8340  -10.3210 C.2     1  UNL1        0.0020
      8  C         17.6770  -22.3310   -9.4490 C.2     1  UNL1        0.0300
      9  C         19.0210  -22.2630   -9.8520 C.2     1  UNL1        0.0450
     10  C         21.6390  -21.3920  -12.2490 C.2     1  UNL1        0.0350
     11  C         22.8900  -21.7860  -12.5640 C.2     1  UNL1        0.0860
     12  C         23.5230  -21.1490  -13.7530 C.2     1  UNL1        0.2710
     13  C         23.7310  -22.7470  -11.8710 C.2     1  UNL1        0.1830
     14  O         22.8170  -20.5360  -14.5540 O.2     1  UNL1       -0.2660
     15  N         24.9020  -21.3480  -13.8720 N.am    1  UNL1       -0.2280
     16  C         25.6390  -22.0970  -12.9300 C.2     1  UNL1        0.3580
     17  O         26.8630  -22.0160  -12.8360 O.2     1  UNL1       -0.2440
     18  N         24.9820  -22.9180  -12.0490 N.am    1  UNL1       -0.1680
     19  C         25.6250  -20.6930  -14.9460 C.2     1  UNL1        0.0490
     20  C         26.0270  -21.3900  -16.1000 C.2     1  UNL1        0.0300
     21  C         26.7300  -20.7540  -17.1300 C.2     1  UNL1        0.0040
     22  C         27.0510  -19.4040  -17.0260 C.2     1  UNL1        0.0240
     23  C         26.6640  -18.6980  -15.8930 C.2     1  UNL1        0.0360
     24 CL         27.0690  -17.0320  -15.7530 Cl      1  UNL1       -0.0840
     25  C         25.9590  -19.3300  -14.8650 C.2     1  UNL1        0.0540
     26  O         23.1470  -23.5510  -10.9830 O.2     1  UNL1       -0.3440
     27  H         23.7920  -23.7500  -10.2820 H       1  UNL1        0.2190
     28  C         20.2480  -23.3070   -7.9130 C.3     1  UNL1        0.2310
     29  C         19.3400  -22.6830   -6.8670 C.2     1  UNL1        0.2400
     30  O         19.6090  -21.5660   -6.4250 O.2     1  UNL1       -0.2710
     31  N         18.2980  -23.4910   -6.4400 N.am    1  UNL1       -0.3260
     32  H         18.1530  -24.3600   -6.9410 H       1  UNL1        0.1690
     33  C         17.3430  -23.2110   -5.4390 C.2     1  UNL1        0.0340
     34  C         16.1240  -22.6620   -5.8620 C.2     1  UNL1        0.0290
     35  C         15.1190  -22.3590   -4.9380 C.2     1  UNL1        0.0020
     36  C         15.3240  -22.6040   -3.5830 C.2     1  UNL1        0.0000
     37  C         16.5310  -23.1490   -3.1530 C.2     1  UNL1        0.0020
     38  C         17.5380  -23.4520   -4.0780 C.2     1  UNL1        0.0290
@<TRIPOS>BOND
     1    21    22    2
     2    21    20    1
     3    22    23    1
     4    20    19    2
     5    23    24    1
     6    23    25    2
     7    19    25    1
     8    19    15    1
     9    14    12    2
    10    15    12   am
    11    15    16   am
    12    12    11    1
    13    16    17    2
    14    16    18    1
    15    11    10    2
    16    11    13    1
    17    10     3    1
    18    18    13    2
    19     5     6    1
    20     5     4    2
    21    13    26    1
    22     6     7    2
    23     3     4    1
    24     3     2    2
    25     4     9    1
    26    26    27    1
    27     7     8    1
    28     2     1    1
    29     9     8    2
    30     9     1    1
    31     1    28    1
    32    28    29    1
    33    32    31    1
    34    29    31   am
    35    29    30    2
    36    31    33    1
    37    34    33    2
    38    34    35    1
    39    33    38    1
    40    35    36    2
    41    38    37    2
    42    36    37    1
