@<TRIPOS>MOLECULE
67090_out_ligand_01.pdbqt
 34 37 0 0 0
SMALL
GASTEIGER

@<TRIPOS>ATOM
      1  C         22.3270  -22.6670  -10.5450 C.ar    1  UNL1        0.1000
      2  N         22.6020  -23.6240   -9.6340 N.ar    1  UNL1       -0.1470
      3  N         21.5930  -24.2030   -8.9140 N.ar    1  UNL1       -0.1310
      4  C         20.3070  -23.8360   -9.0960 C.ar    1  UNL1        0.1610
      5  C         19.9700  -22.8340  -10.0360 C.ar    1  UNL1        0.0240
      6  C         18.6410  -22.3850  -10.2520 C.2     1  UNL1        0.0160
      7  C         18.3360  -21.4140  -11.2050 C.2     1  UNL1        0.0010
      8  C         19.3490  -20.8600  -11.9700 C.2     1  UNL1        0.0010
      9  C         20.6680  -21.2680  -11.7690 C.2     1  UNL1        0.0150
     10  C         21.0070  -22.2420  -10.7960 C.ar    1  UNL1        0.0090
     11  N         19.2730  -24.4700   -8.3530 N.pl3   1  UNL1       -0.3390
     12  H         19.5900  -25.3970   -8.0850 H       1  UNL1        0.1670
     13  C         18.4330  -23.9080   -7.3680 C.2     1  UNL1        0.0340
     14  C         17.1950  -24.4500   -7.0240 C.2     1  UNL1        0.0320
     15  C         16.4180  -23.9010   -5.9960 C.2     1  UNL1        0.0400
     16  C         16.8740  -22.8020   -5.2580 C.2     1  UNL1        0.0840
     17  C         18.1430  -22.2700   -5.5580 C.2     1  UNL1        0.0670
     18  C         18.9060  -22.8370   -6.6000 C.2     1  UNL1        0.0490
     19  O         16.1510  -22.2240   -4.2440 O.2     1  UNL1       -0.3550
     20  C         14.7320  -22.2160   -4.3620 C.3     1  UNL1        0.2100
     21  C         18.7790  -21.1170   -4.8440 C.2     1  UNL1        0.2520
     22  N         18.5640  -20.9790   -3.5050 N.am    1  UNL1       -0.3660
     23  H         17.9710  -21.6240   -2.9990 H       1  UNL1        0.1590
     24  H         18.9800  -20.1940   -3.0250 H       1  UNL1        0.1590
     25  O         19.4840  -20.3040   -5.4360 O.2     1  UNL1       -0.2680
     26  C         23.5170  -22.1310  -11.2200 C.2     1  UNL1       -0.0050
     27  C         23.6750  -22.2710  -12.6080 C.2     1  UNL1        0.0160
     28  C         24.8060  -21.7680  -13.2660 C.2     1  UNL1        0.0370
     29  C         25.8050  -21.1180  -12.5430 C.2     1  UNL1        0.0680
     30  C         25.6670  -20.9910  -11.1600 C.2     1  UNL1        0.0370
     31  C         24.5400  -21.4940  -10.5030 C.2     1  UNL1        0.0160
     32  O         26.9560  -20.5820  -13.0480 O.2     1  UNL1       -0.3520
     33  C         27.0460  -19.1680  -13.2120 C.3     1  UNL1        0.1710
     34  C         26.5510  -18.7490  -14.5850 C.3     1  UNL1        0.0340
@<TRIPOS>BOND
     1    34    33    1
     2    28    27    1
     3    28    29    2
     4    33    32    1
     5    32    29    1
     6    27    26    2
     7    29    30    1
     8     8     9    2
     9     8     7    1
    10     9    10    1
    11    26     1    1
    12    26    31    1
    13     7     6    2
    14    30    31    2
    15    10     1   ar
    16    10     5   ar
    17     1     2   ar
    18     6     5    1
    19     5     4   ar
    20     2     3   ar
    21     4     3   ar
    22     4    11    1
    23    11    12    1
    24    11    13    1
    25    13    14    2
    26    13    18    1
    27    14    15    1
    28    18    17    2
    29    15    16    2
    30    17    16    1
    31    17    21    1
    32    25    21    2
    33    16    19    1
    34    21    22   am
    35    20    19    1
    36    22    24    1
    37    22    23    1
