@<TRIPOS>MOLECULE
67098_out_ligand_01.pdbqt
 38 42 0 0 0
SMALL
GASTEIGER

@<TRIPOS>ATOM
      1  O         26.3370  -21.4100  -11.2030 O.2     1  UNL1       -0.2440
      2  C         25.1150  -21.3610  -11.3220 C.2     1  UNL1        0.3580
      3  N         24.3570  -21.5530  -10.1940 N.am    1  UNL1       -0.1680
      4  C         23.1110  -21.7940  -10.3200 C.2     1  UNL1        0.1830
      5  C         22.3630  -21.8350  -11.5650 C.2     1  UNL1        0.0860
      6  C         21.0840  -22.2220  -11.7480 C.2     1  UNL1        0.0330
      7  C         23.1170  -21.3860  -12.7670 C.2     1  UNL1        0.2710
      8  O         22.5120  -21.2020  -13.8240 O.2     1  UNL1       -0.2660
      9  N         24.4860  -21.1680  -12.5710 N.am    1  UNL1       -0.2280
     10  O         22.4290  -22.0040   -9.1950 O.2     1  UNL1       -0.3440
     11  H         23.0570  -22.0460   -8.4540 H       1  UNL1        0.2190
     12  C         20.1280  -22.7040  -10.7490 C.2     1  UNL1       -0.0350
     13  C         20.5110  -23.6710   -9.8010 C.2     1  UNL1        0.0130
     14  C         19.6150  -24.1050   -8.8150 C.2     1  UNL1        0.0250
     15  C         18.3500  -23.5450   -8.7600 C.2     1  UNL1        0.0170
     16  C         17.9790  -22.5860   -9.7090 C.2     1  UNL1       -0.0350
     17  N         17.3050  -23.8350   -7.8490 N.pl3   1  UNL1       -0.2780
     18  C         18.8410  -22.1600  -10.7090 C.2     1  UNL1        0.0200
     19  C         16.5730  -22.1620   -9.4600 C.3     1  UNL1        0.0550
     20  C         16.3860  -22.6840   -8.0270 C.3     1  UNL1        0.1010
     21  C         17.7110  -24.1750   -6.4790 C.3     1  UNL1        0.1360
     22  C         18.0470  -22.9390   -5.6700 C.2     1  UNL1       -0.0230
     23  C         19.0330  -22.0550   -6.1530 C.2     1  UNL1        0.0100
     24  C         19.3680  -20.8930   -5.4540 C.2     1  UNL1        0.0010
     25  C         18.7120  -20.5860   -4.2650 C.2     1  UNL1        0.0020
     26  C         17.7170  -21.4350   -3.7830 C.2     1  UNL1        0.0240
     27  C         17.3810  -22.6000   -4.4810 C.2     1  UNL1        0.0410
     28 CL         16.1160  -23.5760   -3.8170 Cl      1  UNL1       -0.0840
     29  C         25.3060  -20.8020  -13.7090 C.2     1  UNL1        0.0480
     30  C         25.9470  -19.5520  -13.7700 C.2     1  UNL1        0.0300
     31  C         26.7260  -19.1850  -14.8710 C.2     1  UNL1        0.0030
     32  C         26.8810  -20.0610  -15.9420 C.2     1  UNL1        0.0160
     33  C         26.2630  -21.3170  -15.9180 C.2     1  UNL1        0.0500
     34  C         25.4800  -21.6730  -14.8040 C.2     1  UNL1        0.0460
     35  C         26.4120  -22.2580  -17.0890 C.3     1  UNL1        0.4170
     36  F         27.0570  -21.7040  -18.1510 F       1  UNL1       -0.1660
     37  F         25.2140  -22.6940  -17.5700 F       1  UNL1       -0.1660
     38  F         27.1120  -23.3800  -16.7650 F       1  UNL1       -0.1660
@<TRIPOS>BOND
     1    36    35    1
     2    37    35    1
     3    35    38    1
     4    35    33    1
     5    32    33    2
     6    32    31    1
     7    33    34    1
     8    31    30    2
     9    34    29    2
    10     8     7    2
    11    30    29    1
    12    29     9    1
    13     7     9   am
    14     7     5    1
    15     9     2   am
    16     6     5    2
    17     6    12    1
    18     5     4    1
    19     2     1    2
    20     2     3    1
    21    12    18    2
    22    12    13    1
    23    18    16    1
    24     4     3    2
    25     4    10    1
    26    13    14    2
    27    16    19    1
    28    16    15    2
    29    19    20    1
    30    10    11    1
    31    14    15    1
    32    15    17    1
    33    20    17    1
    34    17    21    1
    35    21    22    1
    36    23    22    2
    37    23    24    1
    38    22    27    1
    39    24    25    2
    40    27    28    1
    41    27    26    2
    42    25    26    1
