@<TRIPOS>MOLECULE
67096_out_ligand_01.pdbqt
 30 32 0 0 0
SMALL
GASTEIGER

@<TRIPOS>ATOM
      1  C         17.5830  -23.4870   -8.6690 C.2     1  UNL1        0.0860
      2  C         18.9830  -23.6010   -8.6180 C.2     1  UNL1        0.0420
      3  C         19.7820  -22.9410   -9.5550 C.2     1  UNL1        0.0330
      4  C         19.1770  -22.2050  -10.5770 C.2     1  UNL1        0.0170
      5  C         17.7840  -22.1070  -10.6420 C.2     1  UNL1        0.0090
      6  C         16.9640  -22.7330   -9.6860 C.2     1  UNL1       -0.0390
      7  C         15.4750  -22.5900   -9.8340 C.3     1  UNL1        0.0500
      8  S         16.6510  -24.3560   -7.4100 S.O2    1  UNL1        0.2630
      9  O         15.4890  -24.9570   -8.0290 O.2     1  UNL1       -0.2000
     10  O         17.5720  -25.1720   -6.6470 O.2     1  UNL1       -0.2000
     11  N         16.0720  -23.1060   -6.4340 N.pl3   1  UNL1       -0.2800
     12  H         15.3750  -22.5340   -6.9030 H       1  UNL1        0.1790
     13  C         16.9180  -22.4990   -5.4570 C.2     1  UNL1        0.0490
     14  C         16.6670  -22.6900   -4.0870 C.2     1  UNL1       -0.0350
     15  C         17.4980  -22.0490   -3.1530 C.2     1  UNL1        0.0090
     16  C         15.5320  -23.5360   -3.5860 C.3     1  UNL1        0.0500
     17  C         18.5600  -21.2450   -3.5700 C.2     1  UNL1        0.0070
     18  C         18.8160  -21.0640   -4.9300 C.2     1  UNL1       -0.0600
     19  C         19.9780  -20.2350   -5.3900 C.3     1  UNL1        0.0480
     20  C         18.0020  -21.7140   -5.8660 C.2     1  UNL1        0.0370
     21  C         21.2620  -23.0690   -9.4450 C.2     1  UNL1        0.2520
     22  O         21.7740  -24.1490   -9.1770 O.2     1  UNL1       -0.2680
     23  N         21.9890  -21.9140   -9.6230 N.am    1  UNL1       -0.3510
     24  H         21.5190  -21.0210   -9.5400 H       1  UNL1        0.1630
     25  C         23.4100  -21.9060   -9.3680 C.3     1  UNL1        0.1870
     26  C         24.1190  -21.7280  -10.6580 C.2     1  UNL1        0.0700
     27  C         23.9060  -22.2130  -11.9310 C.2     1  UNL1        0.0360
     28  C         24.9360  -21.6750  -12.7420 C.2     1  UNL1        0.0270
     29  C         25.7090  -20.8960  -11.9140 C.2     1  UNL1        0.1420
     30  O         25.2200  -20.9180  -10.6470 O.2     1  UNL1       -0.3250
@<TRIPOS>BOND
     1    28    27    1
     2    28    29    2
     3    27    26    2
     4    29    30    1
     5    26    30    1
     6    26    25    1
     7     5     4    2
     8     5     6    1
     9     4     3    1
    10     7     6    1
    11     6     1    2
    12    23    24    1
    13    23    21   am
    14    23    25    1
    15     3    21    1
    16     3     2    2
    17    21    22    2
    18     1     2    1
    19     1     8    1
    20     9     8    2
    21     8    10    2
    22     8    11    1
    23    12    11    1
    24    11    13    1
    25    20    13    2
    26    20    18    1
    27    13    14    1
    28    19    18    1
    29    18    17    2
    30    14    16    1
    31    14    15    2
    32    17    15    1
