@<TRIPOS>MOLECULE
67104_out_ligand_01.pdbqt
 35 38 0 0 0
SMALL
GASTEIGER

@<TRIPOS>ATOM
      1  C         24.8750  -23.1520  -13.6600 C.3     1  UNL1        0.1780
      2  N         24.0030  -21.9920  -13.6960 N.am    1  UNL1       -0.3440
      3  C         22.9720  -21.7580  -12.8360 C.2     1  UNL1        0.2540
      4  O         22.0830  -20.9790  -13.1710 O.2     1  UNL1       -0.2680
      5  C         22.9210  -22.4290  -11.5130 C.2     1  UNL1        0.0600
      6  C         21.6430  -22.4770  -10.9150 C.2     1  UNL1        0.0490
      7  C         21.4590  -22.9400   -9.6080 C.2     1  UNL1        0.0360
      8  C         22.5760  -23.3370   -8.8830 C.2     1  UNL1        0.0320
      9  C         23.8490  -23.2870   -9.4620 C.2     1  UNL1        0.0330
     10  C         24.0390  -22.8610  -10.7860 C.2     1  UNL1        0.0500
     11  N         25.3690  -22.8850  -11.2330 N.am    1  UNL1       -0.3240
     12  C         25.8630  -22.9690  -12.5050 C.2     1  UNL1        0.2450
     13  O         27.0850  -23.0180  -12.6520 O.2     1  UNL1       -0.2710
     14  H         23.8950  -21.4940  -14.5720 H       1  UNL1        0.1630
     15  H         26.1040  -22.9710  -10.5380 H       1  UNL1        0.1690
     16  N         20.1430  -22.9460   -9.1030 N.am    1  UNL1       -0.3230
     17  C         19.7010  -22.3990   -7.9130 C.2     1  UNL1        0.2570
     18  O         20.3770  -21.8610   -7.0470 O.2     1  UNL1       -0.2670
     19  H         19.4490  -23.4180   -9.6700 H       1  UNL1        0.1690
     20  C         18.2340  -22.5770   -7.7200 C.2     1  UNL1        0.0500
     21  C         17.5430  -22.8050   -8.8480 C.2     1  UNL1        0.0920
     22  C         16.0720  -22.9240   -8.8300 C.2     1  UNL1        0.2460
     23  O         15.4460  -23.1250   -9.8640 O.2     1  UNL1       -0.2680
     24  N         15.4550  -22.7750   -7.6200 N.am    1  UNL1       -0.3230
     25  C         16.1400  -22.5690   -6.4170 C.2     1  UNL1        0.0460
     26  H         14.4470  -22.8610   -7.6280 H       1  UNL1        0.1690
     27  C         15.4150  -22.4720   -5.2280 C.2     1  UNL1        0.0300
     28  C         17.5410  -22.4820   -6.4240 C.2     1  UNL1        0.0060
     29  C         16.0930  -22.3020   -4.0210 C.2     1  UNL1        0.0020
     30  C         17.4860  -22.2420   -4.0070 C.2     1  UNL1        0.0010
     31  C         18.2080  -22.3370   -5.2000 C.2     1  UNL1        0.0150
     32  C         25.5750  -23.3300  -15.0170 C.3     1  UNL1        0.0450
     33  C         25.5140  -22.0590  -15.8650 C.3     1  UNL1        0.0760
     34  S         25.1750  -22.4250  -17.6200 S.3     1  UNL1       -0.1730
     35  C         23.8010  -23.5880  -17.4350 C.3     1  UNL1        0.0890
@<TRIPOS>BOND
     1    34    35    1
     2    34    33    1
     3    33    32    1
     4    32     1    1
     5    14     2    1
     6     2     1    1
     7     2     3   am
     8     1    12    1
     9     4     3    2
    10     3     5    1
    11    13    12    2
    12    12    11   am
    13     5     6    2
    14     5    10    1
    15    11    10    1
    16    11    15    1
    17     6     7    1
    18    10     9    2
    19    23    22    2
    20    19    16    1
    21     7    16    1
    22     7     8    2
    23     9     8    1
    24    16    17   am
    25    21    22    1
    26    21    20    2
    27    22    24   am
    28    17    20    1
    29    17    18    2
    30    20    28    1
    31    26    24    1
    32    24    25    1
    33    28    25    2
    34    28    31    1
    35    25    27    1
    36    27    29    2
    37    31    30    2
    38    29    30    1
