@<TRIPOS>MOLECULE
67116_out_ligand_01.pdbqt
 31 34 0 0 0
SMALL
GASTEIGER

@<TRIPOS>ATOM
      1  C         19.4650  -22.8040   -8.6510 C.2     1  UNL1        0.0630
      2  C         20.0600  -23.9970   -8.2980 C.2     1  UNL1        0.0360
      3  C         21.1590  -24.1690   -9.1760 C.2     1  UNL1        0.0400
      4  C         21.1760  -23.0750  -10.0190 C.2     1  UNL1        0.0860
      5  O         20.1440  -22.2420   -9.6910 O.2     1  UNL1       -0.3140
      6  C         18.2770  -22.0560   -8.1300 C.3     1  UNL1        0.0890
      7  C         16.9550  -22.7550   -8.5130 C.3     1  UNL1        0.1020
      8  C         16.5060  -23.7450   -7.4570 C.2     1  UNL1        0.1410
      9  N         16.7520  -23.7240   -6.1840 N.2     1  UNL1       -0.2090
     10  C         17.5930  -22.7220   -5.8300 C.2     1  UNL1        0.1570
     11  C         18.3340  -21.9050   -6.6540 C.2     1  UNL1        0.0190
     12  N         17.8930  -22.3300   -4.5500 N.pl3   1  UNL1       -0.2480
     13  C         19.0340  -21.0460   -5.7960 C.2     1  UNL1        0.1500
     14  N         18.7620  -21.2880   -4.5100 N.2     1  UNL1       -0.1820
     15  O         15.6940  -24.7050   -7.9220 O.2     1  UNL1       -0.3480
     16  H         16.0440  -25.5570   -7.6090 H       1  UNL1        0.2190
     17  C         17.3770  -22.9040   -3.3140 C.3     1  UNL1        0.1040
     18  C         15.8580  -22.7560   -3.2220 C.3     1  UNL1        0.0340
     19  C         17.8050  -24.3620   -3.1540 C.3     1  UNL1        0.0340
     20  C         22.0200  -22.6440  -11.1310 C.2     1  UNL1       -0.0020
     21  C         23.3790  -22.9970  -11.1750 C.2     1  UNL1        0.0160
     22  C         24.1930  -22.5940  -12.2390 C.2     1  UNL1        0.0260
     23  C         23.6460  -21.8350  -13.2750 C.2     1  UNL1        0.0740
     24  C         22.3020  -21.4590  -13.2470 C.2     1  UNL1        0.0260
     25  C         21.4960  -21.8690  -12.1800 C.2     1  UNL1        0.0160
     26  S         24.6640  -21.3140  -14.6290 S.O2    1  UNL1        0.2390
     27  O         26.0130  -21.7630  -14.3860 O.2     1  UNL1       -0.2060
     28  O         23.9620  -21.5860  -15.8630 O.2     1  UNL1       -0.2060
     29  N         24.6290  -19.6400  -14.4510 N.3     1  UNL1       -0.2250
     30  H         25.1800  -19.3070  -13.6610 H       1  UNL1        0.1360
     31  H         23.6560  -19.3340  -14.3950 H       1  UNL1        0.1360
@<TRIPOS>BOND
     1    28    26    2
     2    26    29    1
     3    26    27    2
     4    26    23    1
     5    29    31    1
     6    29    30    1
     7    23    24    2
     8    23    22    1
     9    24    25    1
    10    22    21    2
    11    25    20    2
    12    21    20    1
    13    20     4    1
    14     4     5    1
    15     4     3    2
    16     5     1    1
    17     3     2    1
    18     1     2    2
    19     1     6    1
    20     7     6    1
    21     7     8    1
    22     6    11    1
    23    15    16    1
    24    15     8    1
    25     8     9    2
    26    11    10    2
    27    11    13    1
    28     9    10    1
    29    10    12    1
    30    13    14    2
    31    12    14    1
    32    12    17    1
    33    17    18    1
    34    17    19    1
