@<TRIPOS>MOLECULE
67113_out_ligand_01.pdbqt
 32 34 0 0 0
SMALL
GASTEIGER

@<TRIPOS>ATOM
      1  C         20.6590  -24.2670   -8.7260 C.2     1  UNL1        0.2540
      2  O         20.8400  -25.4640   -8.9110 O.2     1  UNL1       -0.2680
      3  N         21.6570  -23.3210   -8.7390 N.am    1  UNL1       -0.3530
      4  H         21.3990  -22.3440   -8.7650 H       1  UNL1        0.1630
      5  C         19.2940  -23.6990   -8.5310 C.2     1  UNL1        0.0580
      6  C         18.6410  -24.0410   -7.4090 C.2     1  UNL1        0.1120
      7  N         17.3580  -23.6070   -7.1250 N.am    1  UNL1       -0.3210
      8  C         16.6130  -22.8390   -8.0230 C.2     1  UNL1        0.2580
      9  C         17.2990  -22.4290   -9.2790 C.2     1  UNL1        0.0430
     10  O         15.4480  -22.5040   -7.8210 O.2     1  UNL1       -0.2670
     11  C         16.6210  -21.6160  -10.1980 C.2     1  UNL1        0.0180
     12  C         18.6150  -22.8530   -9.5260 C.2     1  UNL1       -0.0030
     13  C         17.2540  -21.2150  -11.3720 C.2     1  UNL1        0.0010
     14  C         18.5610  -21.6250  -11.6280 C.2     1  UNL1        0.0010
     15  C         19.2370  -22.4360  -10.7120 C.2     1  UNL1        0.0130
     16  C         16.7040  -24.0650   -5.8930 C.3     1  UNL1        0.1580
     17  C         17.2710  -23.3800   -4.6450 C.3     1  UNL1        0.1870
     18  O         16.5710  -22.1500   -4.4210 O.3     1  UNL1       -0.3940
     19  C         15.1760  -22.3700   -4.2580 C.3     1  UNL1        0.2010
     20  C         23.0130  -23.6660   -9.0950 C.3     1  UNL1        0.1610
     21  C         23.4160  -22.9880  -10.3820 C.2     1  UNL1       -0.0400
     22  C         24.7690  -22.7680  -10.6830 C.2     1  UNL1        0.0100
     23  C         25.1370  -22.1110  -11.8580 C.2     1  UNL1        0.0250
     24  C         24.1450  -21.6700  -12.7370 C.2     1  UNL1        0.0740
     25  C         22.7930  -21.8630  -12.4450 C.2     1  UNL1        0.0250
     26  C         22.4330  -22.5240  -11.2710 C.2     1  UNL1        0.0100
     27  S         24.5940  -20.8230  -14.2290 S.O2    1  UNL1        0.2390
     28  O         25.4650  -19.7260  -13.8860 O.2     1  UNL1       -0.2060
     29  O         24.9330  -21.8070  -15.2310 O.2     1  UNL1       -0.2060
     30  N         23.1120  -20.1830  -14.7120 N.3     1  UNL1       -0.2250
     31  H         22.7890  -19.5270  -13.9990 H       1  UNL1        0.1360
     32  H         23.1400  -19.7590  -15.6380 H       1  UNL1        0.1360
@<TRIPOS>BOND
     1    32    30    1
     2    29    27    2
     3    30    27    1
     4    30    31    1
     5    27    28    2
     6    27    24    1
     7    24    25    2
     8    24    23    1
     9    25    26    1
    10    23    22    2
    11    14    13    2
    12    14    15    1
    13    13    11    1
    14    26    21    2
    15    15    12    2
    16    22    21    1
    17    21    20    1
    18    11     9    2
    19    12     9    1
    20    12     5    1
    21     9     8    1
    22    20     3    1
    23     2     1    2
    24     4     3    1
    25     3     1   am
    26     1     5    1
    27     5     6    2
    28     8    10    2
    29     8     7   am
    30     6     7    1
    31     7    16    1
    32    16    17    1
    33    17    18    1
    34    18    19    1
