@<TRIPOS>MOLECULE
6712_out_ligand_01.pdbqt
 37 41 0 0 0
SMALL
GASTEIGER

@<TRIPOS>ATOM
      1  C         20.1830  -20.7720  -11.4180 C.3     1  UNL1        0.1100
      2  C         18.9870  -21.6650  -11.1390 C.2     1  UNL1        0.2170
      3  N         17.8450  -21.0050  -10.7590 N.am    1  UNL1       -0.3610
      4  H         17.7820  -20.0070  -10.9430 H       1  UNL1        0.1620
      5  O         19.0730  -22.8850  -11.2230 O.2     1  UNL1       -0.2740
      6  C         16.5940  -21.6840  -10.4750 C.3     1  UNL1        0.1290
      7  C         16.7600  -22.8340   -9.4830 C.3     1  UNL1        0.0330
      8  C         15.6310  -23.8560   -9.5070 C.3     1  UNL1        0.0380
      9  C         15.5480  -24.3910   -8.0800 C.3     1  UNL1        0.2730
     10  N         16.4320  -23.5640   -7.2390 N.3     1  UNL1        0.0930
     11  C         16.7260  -22.3610   -8.0340 C.3     1  UNL1        0.2790
     12  C         17.6420  -24.3120   -6.8600 C.3     1  UNL1        0.3110
     13  C         18.9270  -23.6380   -7.2910 C.2     1  UNL1       -0.0300
     14  C         19.3110  -22.4110   -6.7300 C.2     1  UNL1        0.0090
     15  C         20.5220  -21.8120   -7.0860 C.2     1  UNL1        0.0070
     16  C         21.3730  -22.4290   -8.0100 C.2     1  UNL1       -0.0620
     17  C         22.6910  -21.8000   -8.3510 C.3     1  UNL1        0.0480
     18  C         20.9910  -23.6500   -8.5740 C.2     1  UNL1        0.0070
     19  C         19.7780  -24.2490   -8.2200 C.2     1  UNL1        0.0090
     20  C         20.8610  -21.0720  -12.7480 C.3     1  UNL1        0.0910
     21  C         22.1600  -21.7680  -12.5660 C.ar    1  UNL1        0.1520
     22  N         22.4600  -22.6260  -11.6080 N.ar    1  UNL1       -0.1330
     23  N         23.7490  -23.0530  -11.8070 N.ar    1  UNL1       -0.1280
     24  C         24.2080  -22.4520  -12.8830 C.ar    1  UNL1        0.1740
     25  C         25.4460  -22.4950  -13.5470 C.2     1  UNL1        0.0580
     26  N         23.2310  -21.6440  -13.4210 N.ar    1  UNL1       -0.1960
     27  C         25.6070  -21.7750  -14.6650 C.2     1  UNL1        0.0560
     28  C         24.4560  -20.9560  -15.1680 C.2     1  UNL1        0.1440
     29  N         23.2960  -20.9010  -14.5630 N.2     1  UNL1       -0.1460
     30  N         24.5440  -20.2210  -16.3240 N.pl3   1  UNL1       -0.3670
     31  H         23.8370  -19.4880  -16.3330 H       1  UNL1        0.1610
     32  C         25.8040  -19.7720  -16.8940 C.3     1  UNL1        0.1860
     33  C         26.2750  -18.4550  -16.3850 C.2     1  UNL1        0.0700
     34  C         26.8180  -18.0400  -15.1860 C.2     1  UNL1        0.0360
     35  C         27.0870  -16.6580  -15.3270 C.2     1  UNL1        0.0270
     36  C         26.6890  -16.3180  -16.5980 C.2     1  UNL1        0.1420
     37  O         26.1950  -17.4010  -17.2480 O.2     1  UNL1       -0.3250
@<TRIPOS>BOND
     1    37    36    1
     2    37    33    1
     3    32    33    1
     4    32    30    1
     5    36    35    2
     6    33    34    2
     7    31    30    1
     8    30    28    1
     9    35    34    1
    10    28    27    1
    11    28    29    2
    12    27    25    2
    13    29    26    1
    14    25    24    1
    15    26    24   ar
    16    26    21   ar
    17    24    23   ar
    18    20    21    1
    19    20     1    1
    20    21    22   ar
    21    23    22   ar
    22     1     2    1
    23     5     2    2
    24     2     3   am
    25     4     3    1
    26     3     6    1
    27     6     7    1
    28     8     7    1
    29     8     9    1
    30     7    11    1
    31    18    19    1
    32    18    16    2
    33    17    16    1
    34    19    13    2
    35     9    10    1
    36    11    10    1
    37    16    15    1
    38    13    12    1
    39    13    14    1
    40    10    12    1
    41    15    14    2
