@<TRIPOS>MOLECULE
67125_out_ligand_01.pdbqt
 28 30 0 0 0
SMALL
GASTEIGER

@<TRIPOS>ATOM
      1  N         17.3170  -22.9430  -10.2320 N.am    1  UNL1       -0.3510
      2  C         17.5960  -21.6750  -10.6970 C.2     1  UNL1        0.2720
      3  O         16.7490  -20.7930  -10.8020 O.2     1  UNL1       -0.2660
      4  H         18.0760  -23.6040  -10.1560 H       1  UNL1        0.1630
      5  C         16.0310  -23.2900   -9.6840 C.3     1  UNL1        0.1610
      6  C         16.1190  -23.3930   -8.1810 C.2     1  UNL1       -0.0400
      7  C         15.4380  -22.4660   -7.3740 C.2     1  UNL1        0.0100
      8  C         15.5510  -22.5180   -5.9840 C.2     1  UNL1        0.0250
      9  C         16.3470  -23.5040   -5.3980 C.2     1  UNL1        0.0740
     10  C         17.0450  -24.4230   -6.1870 C.2     1  UNL1        0.0250
     11  C         16.9300  -24.3660   -7.5760 C.2     1  UNL1        0.0100
     12  S         16.5120  -23.5710   -3.6340 S.O2    1  UNL1        0.2390
     13  O         15.7840  -24.7200   -3.1530 O.2     1  UNL1       -0.2060
     14  O         17.8940  -23.3260   -3.2920 O.2     1  UNL1       -0.2060
     15  N         15.6710  -22.1890   -3.1660 N.3     1  UNL1       -0.2250
     16  H         15.1590  -21.8240   -3.9700 H       1  UNL1        0.1360
     17  H         15.0600  -22.3440   -2.3640 H       1  UNL1        0.1360
     18  C         19.0130  -21.4820  -11.0370 C.ar    1  UNL1        0.1520
     19  N         19.3830  -20.8360  -12.1570 N.ar    1  UNL1       -0.1690
     20  N         20.7210  -20.8690  -12.1390 N.ar    1  UNL1       -0.2810
     21  C         21.2380  -21.5390  -11.0700 C.ar    1  UNL1        0.0360
     22  H         21.2200  -20.4150  -12.8980 H       1  UNL1        0.1890
     23  C         20.1570  -21.9430  -10.3130 C.ar    1  UNL1        0.0020
     24  C         22.6960  -21.7220  -10.8510 C.3     1  UNL1        0.0590
     25  C         20.2210  -22.6660   -9.0130 C.3     1  UNL1        0.0430
     26  C         21.0670  -23.9400   -9.0760 C.3     1  UNL1        0.0050
     27  C         22.5770  -23.6910   -9.1910 C.3     1  UNL1        0.0010
     28  C         23.0550  -23.1800  -10.5550 C.3     1  UNL1        0.0060
@<TRIPOS>BOND
     1    22    20    1
     2    19    20   ar
     3    19    18   ar
     4    20    21   ar
     5    21    24    1
     6    21    23   ar
     7    18     2    1
     8    18    23   ar
     9    24    28    1
    10     3     2    2
    11     2     1   am
    12    28    27    1
    13    23    25    1
    14     1     4    1
    15     1     5    1
    16     5     6    1
    17    27    26    1
    18    26    25    1
    19     6    11    2
    20     6     7    1
    21    11    10    1
    22     7     8    2
    23    10     9    2
    24     8     9    1
    25     9    12    1
    26    16    15    1
    27    12    14    2
    28    12    15    1
    29    12    13    2
    30    15    17    1
