@<TRIPOS>MOLECULE
67120_out_ligand_01.pdbqt
 31 34 0 0 0
SMALL
GASTEIGER

@<TRIPOS>ATOM
      1  N         22.0180  -23.6580   -9.0060 N.am    1  UNL1       -0.3530
      2  C         21.3210  -22.7050   -8.3020 C.2     1  UNL1        0.2540
      3  O         21.8360  -21.8150   -7.6370 O.2     1  UNL1       -0.2680
      4  H         21.5160  -24.2260   -9.6750 H       1  UNL1        0.1630
      5  C         19.8450  -22.8060   -8.4650 C.2     1  UNL1        0.0590
      6  C         19.1670  -23.4220   -7.4850 C.2     1  UNL1        0.1120
      7  N         17.7920  -23.5710   -7.5080 N.am    1  UNL1       -0.3180
      8  C         16.9930  -23.0240   -8.5220 C.2     1  UNL1        0.2590
      9  O         15.7660  -23.0850   -8.5400 O.2     1  UNL1       -0.2670
     10  C         17.7110  -22.3330   -9.6300 C.2     1  UNL1        0.0430
     11  C         16.9760  -21.8000  -10.6990 C.2     1  UNL1        0.0180
     12  C         19.1100  -22.2260   -9.5970 C.2     1  UNL1       -0.0030
     13  C         17.6350  -21.1580  -11.7460 C.2     1  UNL1        0.0010
     14  C         19.0230  -21.0490  -11.7260 C.2     1  UNL1        0.0010
     15  C         19.7570  -21.5780  -10.6600 C.2     1  UNL1        0.0130
     16  C         17.1650  -24.2200   -6.3790 C.3     1  UNL1        0.0920
     17  C         17.7470  -24.1090   -4.9920 C.3     1  UNL1        0.0280
     18  C         16.4390  -23.4500   -5.2990 C.3     1  UNL1        0.0280
     19  C         23.4550  -23.5850   -9.1400 C.3     1  UNL1        0.1610
     20  C         23.8360  -22.8700  -10.4140 C.2     1  UNL1       -0.0400
     21  C         22.9570  -22.8420  -11.5070 C.2     1  UNL1        0.0100
     22  C         23.2960  -22.1430  -12.6670 C.2     1  UNL1        0.0250
     23  C         24.5190  -21.4700  -12.7350 C.2     1  UNL1        0.0740
     24  C         25.3970  -21.4740  -11.6500 C.2     1  UNL1        0.0250
     25  C         25.0540  -22.1750  -10.4930 C.2     1  UNL1        0.0100
     26  S         24.9360  -20.5660  -14.2020 S.O2    1  UNL1        0.2390
     27  O         25.5310  -21.4800  -15.1500 O.2     1  UNL1       -0.2060
     28  O         25.5690  -19.3290  -13.8120 O.2     1  UNL1       -0.2060
     29  N         23.4120  -20.1990  -14.8170 N.3     1  UNL1       -0.2250
     30  H         23.0700  -21.0020  -15.3480 H       1  UNL1        0.1360
     31  H         22.7480  -19.9100  -14.1000 H       1  UNL1        0.1360
@<TRIPOS>BOND
     1    30    29    1
     2    27    26    2
     3    29    26    1
     4    29    31    1
     5    26    28    2
     6    26    23    1
     7    23    22    2
     8    23    24    1
     9    22    21    1
    10    13    14    2
    11    13    11    1
    12    14    15    1
    13    24    25    2
    14    21    20    2
    15    11    10    2
    16    15    12    2
    17    25    20    1
    18    20    19    1
    19     4     1    1
    20    10    12    1
    21    10     8    1
    22    12     5    1
    23    19     1    1
    24     1     2   am
    25     9     8    2
    26     8     7   am
    27     5     2    1
    28     5     6    2
    29     2     3    2
    30     7     6    1
    31     7    16    1
    32    16    18    1
    33    16    17    1
    34    18    17    1
