@<TRIPOS>MOLECULE
67129_out_ligand_01.pdbqt
 31 34 0 0 0
SMALL
GASTEIGER

@<TRIPOS>ATOM
      1  C         18.8190  -21.7800   -5.8920 C.2     1  UNL1        0.0550
      2  C         19.7590  -21.8060   -6.9400 C.2     1  UNL1        0.0480
      3  C         19.7270  -22.8010   -7.9190 C.2     1  UNL1        0.0360
      4  C         18.7310  -23.7690   -7.8520 C.2     1  UNL1        0.0310
      5  C         17.7830  -23.7450   -6.8220 C.2     1  UNL1        0.0270
      6  C         17.8030  -22.7610   -5.8170 C.2     1  UNL1        0.0260
      7  N         20.7110  -22.7500   -8.9250 N.am    1  UNL1       -0.3230
      8  C         20.5820  -22.2180  -10.1950 C.2     1  UNL1        0.2560
      9  O         19.5780  -21.7350  -10.7030 O.2     1  UNL1       -0.2670
     10  H         21.5720  -23.2360   -8.7190 H       1  UNL1        0.1690
     11  C         21.8150  -22.3100  -11.0170 C.2     1  UNL1        0.0350
     12  C         22.9460  -22.9940  -10.5490 C.2     1  UNL1        0.0200
     13  C         24.0780  -23.0860  -11.3590 C.2     1  UNL1        0.0400
     14  C         24.0870  -22.5060  -12.6330 C.2     1  UNL1        0.1020
     15  C         22.9780  -21.7620  -13.0700 C.2     1  UNL1        0.1030
     16  O         25.2300  -22.7280  -13.3600 O.2     1  UNL1       -0.3480
     17  C         21.8370  -21.6830  -12.2680 C.2     1  UNL1        0.0560
     18  O         22.8900  -21.0940  -14.2650 O.2     1  UNL1       -0.3480
     19  C         24.1200  -20.5020  -14.6840 C.3     1  UNL1        0.1780
     20  C         24.9870  -21.4970  -15.4350 C.3     1  UNL1        0.0530
     21  C         24.9940  -22.8610  -14.7620 C.3     1  UNL1        0.1780
     22  C         18.9910  -20.6830   -4.8930 C.2     1  UNL1        0.2510
     23  N         18.7310  -20.9780   -3.5890 N.am    1  UNL1       -0.3660
     24  H         18.1670  -21.8060   -3.4090 H       1  UNL1        0.1590
     25  H         18.6850  -20.2040   -2.9440 H       1  UNL1        0.1590
     26  O         19.3550  -19.5600   -5.2190 O.2     1  UNL1       -0.2680
     27  N         16.8020  -22.7120   -4.8210 N.pl3   1  UNL1       -0.2830
     28  C         15.5820  -22.0370   -5.3090 C.3     1  UNL1        0.0960
     29  C         14.4590  -22.6760   -4.5000 C.3     1  UNL1        0.0160
     30  C         14.9170  -24.1150   -4.4070 C.3     1  UNL1        0.0160
     31  C         16.4160  -23.9790   -4.1660 C.3     1  UNL1        0.0960
@<TRIPOS>BOND
     1    20    21    1
     2    20    19    1
     3    21    16    1
     4    19    18    1
     5    18    15    1
     6    16    14    1
     7    15    14    2
     8    15    17    1
     9    14    13    1
    10    17    11    2
    11    13    12    2
    12    11    12    1
    13    11     8    1
    14     9     8    2
    15     8     7   am
    16     7    10    1
    17     7     3    1
    18     3     4    2
    19     3     2    1
    20     4     5    1
    21     2     1    2
    22     5     6    2
    23     1     6    1
    24     1    22    1
    25     6    27    1
    26    28    27    1
    27    28    29    1
    28    26    22    2
    29    22    23   am
    30    27    31    1
    31    29    30    1
    32    30    31    1
    33    23    24    1
    34    23    25    1
