@<TRIPOS>MOLECULE
67122_out_ligand_01.pdbqt
 33 36 0 0 0
SMALL
GASTEIGER

@<TRIPOS>ATOM
      1  N         22.0300  -22.4770   -8.9700 N.am    1  UNL1       -0.2250
      2  N         20.6860  -22.1690   -8.9550 N.2     1  UNL1       -0.1690
      3  C         19.8490  -23.1550   -8.8860 C.2     1  UNL1        0.0880
      4  C         20.2220  -24.5830   -8.8360 C.2     1  UNL1        0.0400
      5  C         21.5270  -24.8570   -8.8560 C.2     1  UNL1        0.0780
      6  C         22.5250  -23.7700   -8.9150 C.2     1  UNL1        0.2640
      7  O         23.7240  -24.0440   -8.8820 O.2     1  UNL1       -0.2670
      8  C         22.9500  -21.3480   -9.0900 C.3     1  UNL1        0.2570
      9  C         23.8490  -21.4520  -10.3250 C.2     1  UNL1        0.2420
     10  N         23.2160  -22.0220  -11.4190 N.am    1  UNL1       -0.3260
     11  H         22.2450  -22.3040  -11.2770 H       1  UNL1        0.1690
     12  O         24.9870  -20.9860  -10.3170 O.2     1  UNL1       -0.2710
     13  C         23.7430  -22.2570  -12.7030 C.2     1  UNL1        0.0340
     14  C         23.3130  -21.4090  -13.7310 C.2     1  UNL1        0.0300
     15  C         23.7820  -21.5760  -15.0380 C.2     1  UNL1        0.0190
     16  C         24.6850  -22.6010  -15.3370 C.2     1  UNL1        0.0320
     17  C         25.1290  -23.4420  -14.3100 C.2     1  UNL1        0.0190
     18  C         24.6540  -23.2720  -13.0020 C.2     1  UNL1        0.0300
     19  C         25.1530  -22.7410  -16.7420 C.2     1  UNL1        0.2490
     20  N         24.3640  -22.2190  -17.7290 N.am    1  UNL1       -0.3660
     21  H         23.6330  -21.5490  -17.5410 H       1  UNL1        0.1590
     22  H         24.7640  -22.2190  -18.6600 H       1  UNL1        0.1590
     23  O         26.2230  -23.2720  -17.0140 O.2     1  UNL1       -0.2680
     24  C         18.3970  -22.8870   -8.8580 C.2     1  UNL1        0.0050
     25  C         17.7710  -22.6280  -10.0850 C.2     1  UNL1        0.0150
     26  C         16.4110  -22.3500  -10.1170 C.2     1  UNL1        0.0020
     27  C         15.6780  -22.3330   -8.9300 C.2     1  UNL1        0.0120
     28  C         16.2890  -22.5980   -7.6920 C.2     1  UNL1       -0.0250
     29  C         15.5360  -22.5770   -6.5070 C.2     1  UNL1        0.0120
     30  C         17.6750  -22.8880   -7.6390 C.2     1  UNL1       -0.0130
     31  C         16.1300  -22.8400   -5.2730 C.2     1  UNL1        0.0010
     32  C         17.4870  -23.1300   -5.2060 C.2     1  UNL1        0.0010
     33  C         18.2520  -23.1520   -6.3740 C.2     1  UNL1        0.0130
@<TRIPOS>BOND
     1    22    20    1
     2    20    21    1
     3    20    19   am
     4    23    19    2
     5    19    16    1
     6    16    15    2
     7    16    17    1
     8    15    14    1
     9    17    18    2
    10    14    13    2
    11    18    13    1
    12    13    10    1
    13    10    11    1
    14    10     9   am
    15     9    12    2
    16     9     8    1
    17    26    25    1
    18    26    27    2
    19    25    24    2
    20     8     1    1
    21     1     2    1
    22     1     6   am
    23     2     3    2
    24    27    28    1
    25     6     7    2
    26     6     5    1
    27     3    24    1
    28     3     4    1
    29    24    30    1
    30     5     4    2
    31    28    30    2
    32    28    29    1
    33    30    33    1
    34    29    31    2
    35    33    32    2
    36    31    32    1
