@<TRIPOS>MOLECULE
67146_out_ligand_01.pdbqt
 27 31 0 0 0
SMALL
GASTEIGER

@<TRIPOS>ATOM
      1  C         17.5440  -22.6530   -9.4660 C.2     1  UNL1        0.1730
      2  N         16.9590  -21.9600  -10.5270 N.2     1  UNL1       -0.2340
      3  C         17.9600  -21.6480  -11.3210 C.2     1  UNL1        0.2170
      4  N         19.1550  -22.0960  -10.8290 N.pl3   1  UNL1       -0.2850
      5  C         18.9150  -22.7410   -9.6420 C.2     1  UNL1        0.1920
      6  N         19.9280  -23.2900   -8.9270 N.2     1  UNL1       -0.1280
      7  N         21.1230  -23.2340   -9.3170 N.2     1  UNL1       -0.1450
      8  C         21.4410  -22.5820  -10.5390 C.2     1  UNL1        0.1170
      9  C         22.7890  -22.5220  -10.9740 C.2     1  UNL1        0.0070
     10  C         23.8520  -23.0900  -10.2390 C.2     1  UNL1        0.0150
     11  C         25.1720  -23.0170  -10.6890 C.2     1  UNL1        0.0010
     12  C         25.4590  -22.3730  -11.8870 C.2     1  UNL1        0.0010
     13  C         24.4290  -21.8030  -12.6340 C.2     1  UNL1        0.0120
     14  C         23.0970  -21.8670  -12.1940 C.2     1  UNL1       -0.0240
     15  C         22.0690  -21.2880  -12.9570 C.2     1  UNL1        0.0140
     16  C         20.7420  -21.3430  -12.5370 C.2     1  UNL1        0.0330
     17  C         20.4510  -21.9870  -11.3370 C.2     1  UNL1        0.0730
     18  C         16.7630  -23.1790   -8.3480 C.2     1  UNL1        0.2740
     19  O         15.8410  -23.9780   -8.4720 O.2     1  UNL1       -0.2660
     20  N         17.1910  -22.6860   -7.1340 N.am    1  UNL1       -0.3510
     21  H         18.0450  -22.1340   -7.1710 H       1  UNL1        0.1630
     22  C         16.7020  -23.1910   -5.8660 C.3     1  UNL1        0.0840
     23  C         15.4140  -22.4590   -5.4550 C.3     1  UNL1        0.0250
     24  C         15.1660  -22.4560   -3.9450 C.3     1  UNL1        0.0020
     25  C         15.7950  -23.6600   -3.2580 C.3     1  UNL1        0.0000
     26  C         17.3100  -23.6990   -3.4550 C.3     1  UNL1        0.0020
     27  C         17.7730  -23.0780   -4.7770 C.3     1  UNL1        0.0250
@<TRIPOS>BOND
     1    15    16    2
     2    15    14    1
     3    13    14    1
     4    13    12    2
     5    16    17    1
     6    14     9    2
     7    12    11    1
     8    17     4    1
     9    17     8    2
    10     3     4    1
    11     3     2    2
    12     9     8    1
    13     9    10    1
    14     4     5    1
    15    11    10    2
    16     8     7    1
    17     2     1    1
    18     5     1    2
    19     5     6    1
    20     1    18    1
    21     7     6    2
    22    19    18    2
    23    18    20   am
    24    21    20    1
    25    20    22    1
    26    22    23    1
    27    22    27    1
    28    23    24    1
    29    27    26    1
    30    24    25    1
    31    26    25    1
