@<TRIPOS>MOLECULE
67155_out_ligand_01.pdbqt
 42 47 0 0 0
SMALL
GASTEIGER

@<TRIPOS>ATOM
      1  C         18.8420  -20.6010  -11.3860 C.3     1  UNL1        0.1850
      2  C         20.0070  -21.4890  -11.7980 C.2     1  UNL1        0.2310
      3  O         19.9910  -22.6910  -11.5390 O.2     1  UNL1       -0.2720
      4  N         21.0380  -20.8010  -12.4190 N.am    1  UNL1       -0.3270
      5  H         20.8530  -19.8370  -12.6910 H       1  UNL1        0.1690
      6  C         22.3010  -21.3030  -12.7930 C.2     1  UNL1        0.0340
      7  C         22.9720  -22.3200  -12.1070 C.2     1  UNL1        0.0310
      8  C         24.2450  -22.7370  -12.5130 C.2     1  UNL1        0.0270
      9  C         24.8470  -22.1340  -13.6170 C.2     1  UNL1        0.0750
     10  C         24.1910  -21.1190  -14.3170 C.2     1  UNL1        0.0270
     11  C         22.9200  -20.7090  -13.9040 C.2     1  UNL1        0.0310
     12  S         26.4860  -22.6060  -14.1100 S.O2    1  UNL1        0.2470
     13  O         27.1210  -23.2590  -12.9810 O.2     1  UNL1       -0.2050
     14  O         27.1080  -21.4640  -14.7450 O.2     1  UNL1       -0.2050
     15  N         26.1650  -23.8460  -15.2050 N.pl3   1  UNL1       -0.1590
     16  H         27.0470  -24.3010  -15.4360 H       1  UNL1        0.1480
     17  C         25.4650  -23.3640  -16.3740 C.2     1  UNL1        0.1580
     18  N         25.9540  -22.3830  -17.0900 N.2     1  UNL1       -0.2400
     19  C         25.0780  -22.1070  -18.1240 C.2     1  UNL1        0.1260
     20  C         23.9200  -22.8600  -18.1440 C.2     1  UNL1        0.0720
     21  S         23.9250  -23.9520  -16.8210 S.3     1  UNL1       -0.0680
     22  S         17.2480  -21.3660  -11.7920 S.3     1  UNL1       -0.0790
     23  C         16.8450  -21.9750  -10.1750 C.2     1  UNL1        0.2110
     24  N         15.5860  -22.4660  -10.0030 N.2     1  UNL1       -0.1220
     25  N         15.1780  -22.8880   -8.8120 N.pl3   1  UNL1       -0.1430
     26  C         16.0790  -22.8000   -7.7990 C.ar    1  UNL1        0.1370
     27  C         15.9830  -23.1280   -6.4240 C.ar    1  UNL1        0.0250
     28  C         17.3430  -22.2880   -8.0350 C.ar    1  UNL1        0.1650
     29  C         14.9580  -23.6630   -5.6160 C.2     1  UNL1        0.0160
     30  C         17.2120  -22.7900   -5.8350 C.ar    1  UNL1        0.0490
     31  C         15.1810  -23.8400   -4.2480 C.2     1  UNL1        0.0010
     32  C         16.4030  -23.4890   -3.6790 C.2     1  UNL1        0.0020
     33  C         17.4370  -22.9610   -4.4580 C.2     1  UNL1        0.0300
     34  N         18.0310  -22.3090   -6.8460 N.ar    1  UNL1       -0.3250
     35  N         17.7920  -21.8440   -9.2250 N.pl3   1  UNL1       -0.2010
     36  C         19.3960  -21.8240   -6.6850 C.3     1  UNL1        0.1690
     37  C         20.3700  -22.5880   -7.5480 C.2     1  UNL1       -0.0400
     38  C         21.6340  -22.0590   -7.8470 C.2     1  UNL1        0.0090
     39  C         22.5320  -22.7730   -8.6450 C.2     1  UNL1        0.0010
     40  C         22.1790  -24.0200   -9.1520 C.2     1  UNL1        0.0000
     41  C         20.9270  -24.5580   -8.8600 C.2     1  UNL1        0.0010
     42  C         20.0280  -23.8470   -8.0630 C.2     1  UNL1        0.0090
@<TRIPOS>BOND
     1    20    19    2
     2    20    21    1
     3    19    18    1
     4    18    17    2
     5    21    17    1
     6    17    15    1
     7    16    15    1
     8    15    12    1
     9    14    12    2
    10    10    11    1
    11    10     9    2
    12    12     9    1
    13    12    13    2
    14    11     6    2
    15     9     8    1
    16     6     4    1
    17     6     7    1
    18     5     4    1
    19     8     7    2
    20     4     2   am
    21     2     3    2
    22     2     1    1
    23    22     1    1
    24    22    23    1
    25    23    24    2
    26    23    35    1
    27    24    25    1
    28    35    28    1
    29    40    41    2
    30    40    39    1
    31    41    42    1
    32    25    26    1
    33    39    38    2
    34    42    37    2
    35    28    26   ar
    36    28    34   ar
    37    38    37    1
    38    26    27   ar
    39    37    36    1
    40    34    36    1
    41    34    30   ar
    42    27    30   ar
    43    27    29    1
    44    30    33    1
    45    29    31    2
    46    33    32    2
    47    31    32    1
