@<TRIPOS>MOLECULE
67156_out_ligand_01.pdbqt
 24 27 0 0 0
SMALL
GASTEIGER

@<TRIPOS>ATOM
      1  C         23.3480  -22.8320  -10.8430 C.2     1  UNL1        0.1020
      2  C         22.8470  -22.0520  -11.9140 C.2     1  UNL1        0.1600
      3  N         21.5240  -21.8830  -11.8700 N.2     1  UNL1       -0.1770
      4  N         21.1670  -22.5520  -10.7540 N.pl3   1  UNL1       -0.2110
      5  C         22.2180  -23.1390  -10.1000 C.2     1  UNL1        0.1900
      6  N         22.0090  -23.8490   -8.9610 N.2     1  UNL1       -0.1280
      7  N         20.8620  -23.9950   -8.4650 N.2     1  UNL1       -0.1450
      8  C         19.7330  -23.4070   -9.1020 C.2     1  UNL1        0.1190
      9  C         18.4410  -23.5700   -8.5480 C.2     1  UNL1        0.0070
     10  C         18.2060  -24.3040   -7.3640 C.2     1  UNL1        0.0150
     11  C         16.9200  -24.4480   -6.8390 C.2     1  UNL1        0.0010
     12  C         15.8380  -23.8620   -7.4850 C.2     1  UNL1        0.0010
     13  C         16.0400  -23.1310   -8.6550 C.2     1  UNL1        0.0120
     14  C         17.3260  -22.9750   -9.1980 C.2     1  UNL1       -0.0230
     15  C         17.5120  -22.2360  -10.3790 C.2     1  UNL1        0.0140
     16  C         18.7800  -22.0730  -10.9280 C.2     1  UNL1        0.0350
     17  C         19.8630  -22.6610  -10.2790 C.2     1  UNL1        0.0920
     18  C         24.7040  -23.2410  -10.5290 C.2     1  UNL1        0.2710
     19  N         24.8410  -24.0220   -9.3800 N.am    1  UNL1       -0.2900
     20  H         24.0620  -24.1810   -8.7490 H       1  UNL1        0.1830
     21  O         25.6770  -22.9260  -11.2090 O.2     1  UNL1       -0.2660
     22  N         26.1320  -24.4200   -8.9510 N.3     1  UNL1       -0.2470
     23  H         26.1060  -25.4430   -8.8310 H       1  UNL1        0.1430
     24  H         26.2500  -24.0840   -7.9890 H       1  UNL1        0.1430
@<TRIPOS>BOND
     1     2     3    2
     2     2     1    1
     3     3     4    1
     4    21    18    2
     5    16    15    2
     6    16    17    1
     7     1    18    1
     8     1     5    2
     9     4    17    1
    10     4     5    1
    11    18    19   am
    12    15    14    1
    13    17     8    2
    14     5     6    1
    15    19    22    1
    16    19    20    1
    17    14    13    1
    18    14     9    2
    19     8     9    1
    20     8     7    1
    21     6     7    2
    22    22    23    1
    23    22    24    1
    24    13    12    2
    25     9    10    1
    26    12    11    1
    27    10    11    2
