@<TRIPOS>MOLECULE
67166_out_ligand_01.pdbqt
 35 38 0 0 0
SMALL
GASTEIGER

@<TRIPOS>ATOM
      1  C         20.3200  -22.6960   -8.6670 C.3     1  UNL1        0.1780
      2  C         21.8540  -22.5530   -8.5980 C.2     1  UNL1        0.2360
      3  N         22.5690  -23.4620   -9.3630 N.am    1  UNL1       -0.3560
      4  H         22.0660  -24.0930   -9.9730 H       1  UNL1        0.1620
      5  O         22.4250  -21.6320   -8.0090 O.2     1  UNL1       -0.2720
      6  C         23.9990  -23.3730   -9.5190 C.3     1  UNL1        0.1610
      7  C         24.3610  -22.6590  -10.7970 C.2     1  UNL1       -0.0400
      8  C         25.4460  -21.7650  -10.8200 C.2     1  UNL1        0.0100
      9  C         25.7870  -21.0930  -11.9920 C.2     1  UNL1        0.0250
     10  C         25.0250  -21.3000  -13.1490 C.2     1  UNL1        0.0740
     11  C         23.9340  -22.1720  -13.1410 C.2     1  UNL1        0.0250
     12  C         23.6060  -22.8530  -11.9660 C.2     1  UNL1        0.0100
     13  S         25.4510  -20.4410  -14.6320 S.O2    1  UNL1        0.2390
     14  O         26.3770  -21.2390  -15.4020 O.2     1  UNL1       -0.2060
     15  O         25.6990  -19.0550  -14.3100 O.2     1  UNL1       -0.2060
     16  N         24.0160  -20.4770  -15.5090 N.3     1  UNL1       -0.2250
     17  H         23.2450  -20.1620  -14.9230 H       1  UNL1        0.1360
     18  H         24.1290  -19.9400  -16.3680 H       1  UNL1        0.1360
     19  S         19.7110  -24.3790   -8.2810 S.3     1  UNL1       -0.0910
     20  C         18.2660  -24.0870   -7.2770 C.2     1  UNL1        0.0950
     21  C         17.0310  -24.4470   -7.7990 C.2     1  UNL1        0.0400
     22  C         15.8850  -24.1760   -7.0580 C.2     1  UNL1        0.0160
     23  C         15.9990  -23.5360   -5.8180 C.2     1  UNL1       -0.0070
     24  C         14.8720  -23.2230   -5.0390 C.2     1  UNL1        0.0140
     25  C         17.2920  -23.2050   -5.3660 C.2     1  UNL1        0.0680
     26  C         15.0220  -22.5780   -3.8120 C.2     1  UNL1        0.0010
     27  C         16.2950  -22.2480   -3.3620 C.2     1  UNL1        0.0020
     28  C         17.4130  -22.5630   -4.1400 C.2     1  UNL1        0.0320
     29  N         18.3990  -23.4870   -6.0760 N.2     1  UNL1       -0.2410
     30  C         19.5860  -22.0780   -9.8570 C.2     1  UNL1       -0.0350
     31  C         18.1870  -22.0620   -9.9600 C.2     1  UNL1        0.0090
     32  C         17.5550  -21.4880  -11.0660 C.2     1  UNL1        0.0010
     33  C         18.3110  -20.9100  -12.0840 C.2     1  UNL1        0.0000
     34  C         19.7000  -20.9010  -11.9940 C.2     1  UNL1        0.0010
     35  C         20.3320  -21.4770  -10.8890 C.2     1  UNL1        0.0090
@<TRIPOS>BOND
     1    18    16    1
     2    16    17    1
     3    16    13    1
     4    14    13    2
     5    13    15    2
     6    13    10    1
     7    10    11    2
     8    10     9    1
     9    11    12    1
    10    33    34    2
    11    33    32    1
    12    34    35    1
    13     9     8    2
    14    12     7    2
    15    32    31    2
    16    35    30    2
    17     8     7    1
    18     7     6    1
    19     4     3    1
    20    31    30    1
    21    30     1    1
    22     6     3    1
    23     3     2   am
    24     1     2    1
    25     1    19    1
    26     2     5    2
    27    19    20    1
    28    21    20    2
    29    21    22    1
    30    20    29    1
    31    22    23    2
    32    29    25    2
    33    23    25    1
    34    23    24    1
    35    25    28    1
    36    24    26    2
    37    28    27    2
    38    26    27    1
