@<TRIPOS>MOLECULE
67178_out_ligand_01.pdbqt
 37 41 0 0 0
SMALL
GASTEIGER

@<TRIPOS>ATOM
      1  N         24.2740  -21.5480  -13.7890 N.am    1  UNL1       -0.2280
      2  C         24.9160  -22.5510  -13.0290 C.2     1  UNL1        0.3580
      3  O         25.9680  -23.0830  -13.3870 O.2     1  UNL1       -0.2440
      4  N         24.3450  -22.9980  -11.8640 N.am    1  UNL1       -0.1680
      5  C         23.1370  -22.6850  -11.6080 C.2     1  UNL1        0.1830
      6  C         22.2750  -21.8370  -12.4140 C.2     1  UNL1        0.0860
      7  C         20.9610  -21.5960  -12.2370 C.2     1  UNL1        0.0330
      8  C         22.9530  -21.1510  -13.5530 C.2     1  UNL1        0.2710
      9  O         22.3480  -20.2720  -14.1670 O.2     1  UNL1       -0.2660
     10  O         22.6280  -23.1730  -10.4760 O.2     1  UNL1       -0.3440
     11  H         21.8360  -23.6940  -10.6950 H       1  UNL1        0.2190
     12  C         20.0850  -22.1190  -11.1870 C.2     1  UNL1       -0.0350
     13  C         20.5760  -23.0070  -10.2370 C.2     1  UNL1        0.0130
     14  C         19.7270  -23.5180   -9.2430 C.2     1  UNL1        0.0310
     15  C         18.3720  -23.1540   -9.1510 C.2     1  UNL1        0.0360
     16  C         17.8820  -22.2940  -10.1600 C.2     1  UNL1       -0.0310
     17  N         17.5240  -23.6610   -8.1650 N.pl3   1  UNL1       -0.3760
     18  C         18.7350  -21.7720  -11.1510 C.2     1  UNL1        0.0210
     19  C         16.4330  -21.8780  -10.1870 C.3     1  UNL1        0.0420
     20  C         15.5670  -22.8890   -9.4560 C.3     1  UNL1        0.0240
     21  C         16.1560  -23.1330   -8.0800 C.3     1  UNL1        0.1230
     22  C         18.0420  -24.2180   -6.9070 C.3     1  UNL1        0.1610
     23  C         18.1980  -23.1460   -5.8460 C.2     1  UNL1       -0.0400
     24  C         17.6610  -23.3410   -4.5630 C.2     1  UNL1        0.0090
     25  C         17.7720  -22.3500   -3.5850 C.2     1  UNL1        0.0010
     26  C         18.4130  -21.1480   -3.8790 C.2     1  UNL1        0.0000
     27  C         18.9360  -20.9340   -5.1520 C.2     1  UNL1        0.0010
     28  C         18.8270  -21.9240   -6.1310 C.2     1  UNL1        0.0090
     29  C         24.9990  -20.9580  -14.9000 C.2     1  UNL1        0.0470
     30  C         25.9040  -19.9020  -14.7190 C.2     1  UNL1        0.0330
     31  C         26.5900  -19.3410  -15.8050 C.2     1  UNL1        0.0390
     32  C         26.3980  -19.8200  -17.0990 C.2     1  UNL1        0.0680
     33  C         25.5160  -20.8760  -17.2980 C.2     1  UNL1        0.0390
     34  C         24.8270  -21.4360  -16.2120 C.2     1  UNL1        0.0330
     35  O         27.1210  -19.1770  -18.0650 O.2     1  UNL1       -0.3520
     36  C         27.0980  -17.7510  -18.0510 C.3     1  UNL1        0.1710
     37  C         25.6510  -17.3040  -18.1520 C.3     1  UNL1        0.0340
@<TRIPOS>BOND
     1    37    36    1
     2    35    36    1
     3    35    32    1
     4    33    32    2
     5    33    34    1
     6    32    31    1
     7    34    29    2
     8    31    30    2
     9    29    30    1
    10    29     1    1
    11     9     8    2
    12     1     8   am
    13     1     2   am
    14     8     6    1
    15     3     2    2
    16     2     4    1
    17     6     7    2
    18     6     5    1
    19     7    12    1
    20     4     5    2
    21     5    10    1
    22    12    18    2
    23    12    13    1
    24    18    16    1
    25    11    10    1
    26    13    14    2
    27    19    16    1
    28    19    20    1
    29    16    15    2
    30    20    21    1
    31    14    15    1
    32    15    17    1
    33    17    21    1
    34    17    22    1
    35    22    23    1
    36    28    23    2
    37    28    27    1
    38    23    24    1
    39    27    26    2
    40    24    25    2
    41    26    25    1
