@<TRIPOS>MOLECULE
6717_out_ligand_01.pdbqt
 29 32 0 0 0
SMALL
GASTEIGER

@<TRIPOS>ATOM
      1  C         21.7170  -22.1710  -11.2530 C.2     1  UNL1        0.0340
      2  C         21.1040  -21.4360  -12.2730 C.2     1  UNL1        0.0170
      3  C         19.7760  -21.0370  -12.1310 C.2     1  UNL1        0.0030
      4  C         19.0680  -21.3730  -10.9750 C.2     1  UNL1        0.0290
      5  C         19.6750  -22.1090   -9.9460 C.2     1  UNL1        0.0360
      6  C         21.0020  -22.5160  -10.0970 C.2     1  UNL1        0.0460
      7  N         18.8800  -22.4090   -8.8210 N.am    1  UNL1       -0.3220
      8  C         17.5780  -22.8890   -8.8080 C.2     1  UNL1        0.2760
      9  O         16.9230  -23.2140   -9.7910 O.2     1  UNL1       -0.2660
     10  H         19.3350  -22.3400   -7.9190 H       1  UNL1        0.1690
     11  C         17.0380  -23.0080   -7.4410 C.ar    1  UNL1        0.1440
     12  N         15.9730  -23.7860   -7.2280 N.ar    1  UNL1       -0.2050
     13  S         15.5910  -23.7680   -5.6250 S.2     1  UNL1        0.0120
     14  C         16.8550  -22.7170   -5.1330 C.ar    1  UNL1        0.0360
     15  C         17.1680  -22.2430   -3.8480 C.2     1  UNL1        0.0210
     16  C         17.5910  -22.3570   -6.2650 C.ar    1  UNL1        0.0170
     17  C         18.2520  -21.3740   -3.7070 C.2     1  UNL1        0.0010
     18  C         18.9970  -20.9850   -4.8130 C.2     1  UNL1        0.0010
     19  C         18.6780  -21.4630   -6.0880 C.2     1  UNL1        0.0150
     20  C         23.1210  -22.6350  -11.3870 C.2     1  UNL1        0.2520
     21  O         23.6560  -23.2510  -10.4740 O.2     1  UNL1       -0.2680
     22  N         23.7450  -22.3170  -12.5750 N.am    1  UNL1       -0.3520
     23  H         23.2580  -21.7460  -13.2520 H       1  UNL1        0.1630
     24  C         25.1110  -22.7420  -12.8650 C.3     1  UNL1        0.0840
     25  C         25.1330  -24.1070  -13.5780 C.3     1  UNL1        0.0250
     26  C         25.2720  -24.0160  -15.1010 C.3     1  UNL1        0.0020
     27  C         24.6310  -22.7570  -15.6640 C.3     1  UNL1        0.0000
     28  C         25.2660  -21.4900  -15.0890 C.3     1  UNL1        0.0020
     29  C         25.8430  -21.6740  -13.6820 C.3     1  UNL1        0.0250
@<TRIPOS>BOND
     1    27    26    1
     2    27    28    1
     3    26    25    1
     4    28    29    1
     5    29    24    1
     6    25    24    1
     7    23    22    1
     8    24    22    1
     9    22    20   am
    10     2     3    1
    11     2     1    2
    12     3     4    2
    13    20     1    1
    14    20    21    2
    15     1     6    1
    16     4     5    1
    17     6     5    2
    18     5     7    1
    19     9     8    2
    20     7     8   am
    21     7    10    1
    22     8    11    1
    23    11    12   ar
    24    11    16   ar
    25    12    13   ar
    26    16    19    1
    27    16    14   ar
    28    19    18    2
    29    13    14   ar
    30    14    15    1
    31    18    17    1
    32    15    17    2
