@<TRIPOS>MOLECULE
67170_out_ligand_01.pdbqt
 40 44 0 0 0
SMALL
GASTEIGER

@<TRIPOS>ATOM
      1  C         21.1280  -21.0430  -12.2060 C.2     1  UNL1        0.2110
      2  N         21.4650  -20.6360  -13.4640 N.2     1  UNL1       -0.1220
      3  N         22.6260  -20.9890  -14.0110 N.pl3   1  UNL1       -0.1430
      4  C         23.4260  -21.7900  -13.2600 C.ar    1  UNL1        0.1370
      5  C         24.7000  -22.3570  -13.5130 C.ar    1  UNL1        0.0250
      6  C         25.5930  -22.3090  -14.6020 C.2     1  UNL1        0.0160
      7  C         26.7990  -23.0130  -14.5370 C.2     1  UNL1        0.0010
      8  C         27.1210  -23.7590  -13.4080 C.2     1  UNL1        0.0020
      9  C         26.2560  -23.8200  -12.3100 C.2     1  UNL1        0.0300
     10  C         25.0480  -23.1070  -12.3780 C.ar    1  UNL1        0.0490
     11  N         24.0070  -22.9810  -11.4730 N.ar    1  UNL1       -0.3290
     12  C         23.0210  -22.1840  -11.9980 C.ar    1  UNL1        0.1650
     13  N         21.8640  -21.8380  -11.4050 N.pl3   1  UNL1       -0.2010
     14  S         19.5890  -20.4620  -11.5340 S.3     1  UNL1       -0.0790
     15  C         18.5940  -21.9790  -11.6800 C.3     1  UNL1        0.1850
     16  C         17.2860  -21.8500  -10.9170 C.2     1  UNL1        0.2270
     17  N         16.7810  -23.0380  -10.4420 N.am    1  UNL1       -0.3560
     18  H         17.2600  -23.9100  -10.6480 H       1  UNL1        0.1620
     19  O         16.7300  -20.7680  -10.7480 O.2     1  UNL1       -0.2730
     20  C         15.5530  -23.1150   -9.6870 C.3     1  UNL1        0.1610
     21  C         15.8470  -23.1810   -8.2100 C.2     1  UNL1       -0.0400
     22  C         16.1170  -22.0020   -7.4960 C.2     1  UNL1        0.0100
     23  C         16.4070  -22.0500   -6.1310 C.2     1  UNL1        0.0250
     24  C         16.4450  -23.2850   -5.4790 C.2     1  UNL1        0.0740
     25  C         16.1780  -24.4680   -6.1740 C.2     1  UNL1        0.0250
     26  C         15.8870  -24.4140   -7.5400 C.2     1  UNL1        0.0100
     27  S         16.7830  -23.3410   -3.7450 S.O2    1  UNL1        0.2390
     28  O         16.2950  -24.5890   -3.2050 O.2     1  UNL1       -0.2060
     29  O         18.1230  -22.8630   -3.5000 O.2     1  UNL1       -0.2060
     30  N         15.7610  -22.1470   -3.1530 N.3     1  UNL1       -0.2250
     31  H         16.1740  -21.2300   -3.3190 H       1  UNL1        0.1360
     32  H         15.5410  -22.3350   -2.1750 H       1  UNL1        0.1360
     33  C         23.9480  -23.5610  -10.1390 C.3     1  UNL1        0.1350
     34  C         23.3840  -22.6070   -9.0820 C.3     1  UNL1        0.0580
     35  C         22.0020  -22.9960   -8.6110 C.2     1  UNL1       -0.0570
     36  C         21.4150  -24.1940   -9.0440 C.2     1  UNL1        0.0070
     37  C         20.1280  -24.5400   -8.6310 C.2     1  UNL1        0.0010
     38  C         19.4160  -23.6930   -7.7830 C.2     1  UNL1        0.0000
     39  C         19.9900  -22.4990   -7.3490 C.2     1  UNL1        0.0010
     40  C         21.2770  -22.1520   -7.7600 C.2     1  UNL1        0.0070
@<TRIPOS>BOND
     1     6     7    1
     2     6     5    2
     3     7     8    2
     4     3     2    1
     5     3     4    1
     6     5     4   ar
     7     5    10   ar
     8     2     1    2
     9     8     9    1
    10     4    12   ar
    11    10     9    2
    12    10    11   ar
    13     1    14    1
    14     1    13    1
    15    12    11   ar
    16    12    13    1
    17    15    14    1
    18    15    16    1
    19    11    33    1
    20    16    19    2
    21    16    17   am
    22    18    17    1
    23    17    20    1
    24    33    34    1
    25    20    21    1
    26    34    35    1
    27    36    37    1
    28    36    35    2
    29    37    38    2
    30    35    40    1
    31    21    26    2
    32    21    22    1
    33    38    39    1
    34    40    39    2
    35    26    25    1
    36    22    23    2
    37    25    24    2
    38    23    24    1
    39    24    27    1
    40    27    29    2
    41    27    28    2
    42    27    30    1
    43    31    30    1
    44    30    32    1
