@<TRIPOS>MOLECULE
67194_out_ligand_01.pdbqt
 37 39 0 0 0
SMALL
GASTEIGER

@<TRIPOS>ATOM
      1  N         22.0790  -22.9270  -10.7350 N.pl3   1  UNL1       -0.2810
      2  H         22.3360  -23.7350  -11.3040 H       1  UNL1        0.1790
      3  S         23.4040  -22.3840   -9.8310 S.O2    1  UNL1        0.2630
      4  O         22.9840  -21.3030   -8.9640 O.2     1  UNL1       -0.2000
      5  O         24.0490  -23.5630   -9.2950 O.2     1  UNL1       -0.2000
      6  C         24.4730  -21.7220  -11.0830 C.2     1  UNL1        0.0810
      7  C         24.1000  -21.8330  -12.4240 C.2     1  UNL1        0.0450
      8  C         24.9190  -21.3000  -13.4350 C.2     1  UNL1        0.0660
      9  C         26.1270  -20.6540  -13.0830 C.2     1  UNL1        0.0840
     10  C         26.4890  -20.5700  -11.7280 C.2     1  UNL1        0.0390
     11  C         25.6680  -21.1020  -10.7290 C.2     1  UNL1        0.0280
     12  C         24.4070  -21.4600  -14.8360 C.2     1  UNL1        0.2540
     13  N         25.1890  -22.1560  -15.7320 N.am    1  UNL1       -0.3570
     14  H         26.1210  -22.4270  -15.4350 H       1  UNL1        0.1620
     15  O         23.3180  -20.9830  -15.1440 O.2     1  UNL1       -0.2680
     16  C         24.8230  -22.3060  -17.1210 C.3     1  UNL1        0.1180
     17  C         23.9980  -23.5560  -17.3520 C.3     1  UNL1        0.0260
     18  O         26.8900  -20.1330  -14.0980 O.2     1  UNL1       -0.3550
     19  C         26.8490  -18.7250  -14.3130 C.3     1  UNL1        0.2100
     20  C         20.8140  -22.9430  -10.0880 C.2     1  UNL1        0.0420
     21  C         20.5940  -23.8160   -9.0220 C.2     1  UNL1        0.0310
     22  C         19.3160  -23.9340   -8.4740 C.2     1  UNL1        0.0270
     23  C         18.2660  -23.1870   -9.0150 C.2     1  UNL1        0.0800
     24  C         18.4920  -22.2780  -10.0540 C.2     1  UNL1        0.0270
     25  C         19.7720  -22.1660  -10.5980 C.2     1  UNL1        0.0310
     26  S         16.6160  -23.4010   -8.3810 S.O2    1  UNL1        0.2630
     27  O         16.6250  -24.5810   -7.5400 O.2     1  UNL1       -0.2000
     28  O         15.6930  -23.2790   -9.4890 O.2     1  UNL1       -0.2000
     29  N         16.4420  -22.0850   -7.3380 N.pl3   1  UNL1       -0.2800
     30  H         15.8260  -21.3700   -7.7170 H       1  UNL1        0.1790
     31  C         16.4600  -22.2810   -5.9240 C.2     1  UNL1        0.0480
     32  C         15.3010  -22.7290   -5.2810 C.2     1  UNL1        0.0300
     33  C         15.2860  -22.9230   -3.9010 C.2     1  UNL1        0.0020
     34  C         16.4360  -22.6780   -3.1540 C.2     1  UNL1        0.0010
     35  C         17.5970  -22.2330   -3.7870 C.2     1  UNL1        0.0090
     36  C         17.6250  -22.0310   -5.1780 C.2     1  UNL1       -0.0350
     37  C         18.8980  -21.5460   -5.8120 C.3     1  UNL1        0.0500
@<TRIPOS>BOND
     1    17    16    1
     2    16    13    1
     3    13    14    1
     4    13    12   am
     5    15    12    2
     6    12     8    1
     7    19    18    1
     8    18     9    1
     9     8     9    2
    10     8     7    1
    11     9    10    1
    12     7     6    2
    13    10    11    2
    14     2     1    1
    15     6    11    1
    16     6     3    1
    17     1    20    1
    18     1     3    1
    19    25    20    2
    20    25    24    1
    21    20    21    1
    22    24    23    2
    23     3     5    2
    24     3     4    2
    25    28    26    2
    26    21    22    2
    27    23    22    1
    28    23    26    1
    29    26    27    2
    30    26    29    1
    31    30    29    1
    32    29    31    1
    33    31    32    2
    34    31    36    1
    35    37    36    1
    36    32    33    1
    37    36    35    2
    38    33    34    2
    39    35    34    1
