@<TRIPOS>MOLECULE
67201_out_ligand_01.pdbqt
 40 44 0 0 0
SMALL
GASTEIGER

@<TRIPOS>ATOM
      1  C         22.4440  -23.0610  -10.7480 C.2     1  UNL1        0.0340
      2  C         21.6010  -22.1780  -11.4290 C.2     1  UNL1        0.0310
      3  C         20.2580  -22.0520  -11.0620 C.2     1  UNL1        0.0270
      4  C         19.7570  -22.8160  -10.0080 C.2     1  UNL1        0.0800
      5  C         20.5940  -23.6730   -9.2930 C.2     1  UNL1        0.0270
      6  C         21.9310  -23.8040   -9.6760 C.2     1  UNL1        0.0310
      7  N         23.7920  -23.2750  -11.0880 N.am    1  UNL1       -0.3250
      8  C         24.8650  -22.4260  -10.8810 C.2     1  UNL1        0.2530
      9  O         24.8500  -21.3640  -10.2620 O.2     1  UNL1       -0.2700
     10  H         24.0120  -24.1650  -11.5220 H       1  UNL1        0.1690
     11  C         26.1760  -22.9350  -11.5020 C.3     1  UNL1        0.2400
     12  C         27.1150  -21.7700  -11.8210 C.3     1  UNL1        0.1840
     13  N         26.7960  -21.1800  -13.1450 N.pl3   1  UNL1       -0.2700
     14  C         26.5830  -22.1440  -14.1850 C.2     1  UNL1        0.0780
     15  C         26.7900  -21.8220  -15.5290 C.2     1  UNL1        0.0330
     16  C         26.2030  -23.4470  -13.8400 C.2     1  UNL1        0.0970
     17  C         26.5950  -22.7860  -16.5210 C.2     1  UNL1        0.0020
     18  C         26.2050  -24.0780  -16.1740 C.2     1  UNL1        0.0030
     19  C         26.0110  -24.4090  -14.8340 C.2     1  UNL1        0.0390
     20  O         25.9930  -23.8840  -12.5580 O.2     1  UNL1       -0.3320
     21  S         25.9980  -19.6880  -13.2030 S.O2    1  UNL1        0.2320
     22  O         24.7540  -19.8180  -13.9330 O.2     1  UNL1       -0.2050
     23  O         26.0130  -19.0990  -11.8820 O.2     1  UNL1       -0.2050
     24  C         27.0990  -18.7360  -14.2400 C.3     1  UNL1        0.1590
     25  C         26.4600  -18.2230  -15.5120 C.3     1  UNL1        0.0230
     26  S         18.0430  -22.6990   -9.5660 S.O2    1  UNL1        0.2630
     27  O         17.2880  -23.4920  -10.5150 O.2     1  UNL1       -0.2000
     28  O         17.7150  -21.3060   -9.3480 O.2     1  UNL1       -0.2000
     29  N         17.9720  -23.5430   -8.1050 N.pl3   1  UNL1       -0.2800
     30  H         17.3550  -24.3510   -8.1470 H       1  UNL1        0.1790
     31  C         18.0290  -22.8030   -6.8850 C.2     1  UNL1        0.0530
     32  C         19.0920  -21.9150   -6.6940 C.2     1  UNL1        0.0310
     33  C         19.2060  -21.2110   -5.5010 C.2     1  UNL1        0.0030
     34  C         18.2580  -21.3910   -4.4940 C.2     1  UNL1        0.0120
     35  C         17.1730  -22.2640   -4.6710 C.2     1  UNL1       -0.0240
     36  C         16.2250  -22.4430   -3.6500 C.2     1  UNL1        0.0120
     37  C         17.0360  -22.9740   -5.8880 C.2     1  UNL1        0.0010
     38  C         15.1430  -23.3070   -3.8180 C.2     1  UNL1        0.0010
     39  C         14.9840  -23.9900   -5.0180 C.2     1  UNL1        0.0010
     40  C         15.9130  -23.8190   -6.0430 C.2     1  UNL1        0.0140
@<TRIPOS>BOND
     1    17    18    2
     2    17    15    1
     3    18    19    1
     4    15    14    2
     5    25    24    1
     6    19    16    2
     7    24    21    1
     8    14    16    1
     9    14    13    1
    10    22    21    2
    11    16    20    1
    12    21    13    1
    13    21    23    2
    14    13    12    1
    15    20    11    1
    16    12    11    1
    17    10     7    1
    18    11     8    1
    19     2     3    1
    20     2     1    2
    21     7     8   am
    22     7     1    1
    23     3     4    2
    24     8     9    2
    25     1     6    1
    26    27    26    2
    27     4    26    1
    28     4     5    1
    29     6     5    2
    30    26    28    2
    31    26    29    1
    32    30    29    1
    33    29    31    1
    34    31    32    2
    35    31    37    1
    36    32    33    1
    37    40    37    1
    38    40    39    2
    39    37    35    2
    40    33    34    2
    41    39    38    1
    42    35    34    1
    43    35    36    1
    44    38    36    2
