@<TRIPOS>MOLECULE
67210_out_ligand_01.pdbqt
 40 43 0 0 0
SMALL
GASTEIGER

@<TRIPOS>ATOM
      1  C         19.4550  -22.4260   -6.8030 C.2     1  UNL1        0.2560
      2  O         19.5730  -21.2310   -6.5790 O.2     1  UNL1       -0.2670
      3  N         18.4940  -23.2850   -6.3210 N.am    1  UNL1       -0.3220
      4  H         18.4960  -24.2390   -6.6900 H       1  UNL1        0.1690
      5  C         20.3990  -23.0750   -7.7460 C.2     1  UNL1        0.0400
      6  C         19.9760  -24.2600   -8.3680 C.2     1  UNL1        0.0180
      7  C         20.8280  -24.9250   -9.2420 C.2     1  UNL1        0.0030
      8  C         22.0930  -24.4020   -9.4980 C.2     1  UNL1        0.0250
      9  C         22.5110  -23.2060   -8.8960 C.2     1  UNL1        0.0290
     10  C         21.6720  -22.5200   -7.9990 C.2     1  UNL1       -0.0240
     11  C         22.1130  -21.2740   -7.2780 C.3     1  UNL1        0.0510
     12  N         23.8420  -22.7620   -9.2110 N.pl3   1  UNL1       -0.1810
     13  H         24.4770  -23.5420   -9.3730 H       1  UNL1        0.1460
     14  S         23.9460  -21.7290  -10.5660 S.O2    1  UNL1        0.2450
     15  O         22.6070  -21.6080  -11.1020 O.2     1  UNL1       -0.2060
     16  O         24.7630  -20.5760  -10.2560 O.2     1  UNL1       -0.2060
     17  C         24.8770  -22.7680  -11.6680 C.2     1  UNL1        0.0740
     18  C         26.1120  -23.2800  -11.2650 C.2     1  UNL1        0.0250
     19  C         26.8370  -24.0910  -12.1390 C.2     1  UNL1        0.0080
     20  C         26.3240  -24.4060  -13.4060 C.2     1  UNL1       -0.0620
     21  C         27.1210  -25.2480  -14.3580 C.3     1  UNL1        0.0480
     22  C         25.0810  -23.8860  -13.7940 C.2     1  UNL1        0.0080
     23  C         24.3520  -23.0740  -12.9260 C.2     1  UNL1        0.0250
     24  C         17.4510  -23.0070   -5.4040 C.2     1  UNL1        0.0500
     25  C         17.7060  -22.6160   -4.0850 C.2     1  UNL1        0.0300
     26  C         16.6570  -22.3790   -3.1920 C.2     1  UNL1        0.0020
     27  C         15.3360  -22.5320   -3.6010 C.2     1  UNL1        0.0010
     28  C         15.0580  -22.9110   -4.9130 C.2     1  UNL1        0.0190
     29  C         16.1060  -23.1340   -5.8230 C.2     1  UNL1        0.0580
     30  C         15.7870  -23.4830   -7.2400 C.2     1  UNL1        0.2540
     31  O         15.5170  -24.6400   -7.5520 O.2     1  UNL1       -0.2680
     32  N         15.8890  -22.4640   -8.1640 N.am    1  UNL1       -0.3530
     33  H         16.3930  -21.6260   -7.9050 H       1  UNL1        0.1630
     34  C         15.7550  -22.7540   -9.5740 C.3     1  UNL1        0.1620
     35  C         16.8860  -22.1650  -10.3570 C.2     1  UNL1       -0.0230
     36  C         18.1260  -22.8020  -10.4560 C.2     1  UNL1        0.0120
     37  C         19.1510  -22.2050  -11.1860 C.2     1  UNL1        0.0200
     38  C         18.9040  -20.9820  -11.7870 C.2     1  UNL1        0.1160
     39  N         17.7250  -20.3300  -11.7020 N.2     1  UNL1       -0.2730
     40  C         16.7450  -20.9350  -10.9930 C.2     1  UNL1        0.1240
@<TRIPOS>BOND
     1    21    20    1
     2    22    20    2
     3    22    23    1
     4    20    19    1
     5    23    17    2
     6    19    18    2
     7    38    39    2
     8    38    37    1
     9    39    40    1
    10    17    18    1
    11    17    14    1
    12    37    36    2
    13    15    14    2
    14    40    35    2
    15    14    16    2
    16    14    12    1
    17    36    35    1
    18    35    34    1
    19    34    32    1
    20     8     7    2
    21     8     9    1
    22    13    12    1
    23     7     6    1
    24    12     9    1
    25     9    10    2
    26     6     5    2
    27    32    33    1
    28    32    30   am
    29    10     5    1
    30    10    11    1
    31     5     1    1
    32    31    30    2
    33    30    29    1
    34     1     2    2
    35     1     3   am
    36     4     3    1
    37     3    24    1
    38    29    24    2
    39    29    28    1
    40    24    25    1
    41    28    27    2
    42    25    26    2
    43    27    26    1
