@<TRIPOS>MOLECULE
67216_out_ligand_01.pdbqt
 35 38 0 0 0
SMALL
GASTEIGER

@<TRIPOS>ATOM
      1  C         17.5660  -23.5400   -8.6530 C.2     1  UNL1        0.0860
      2  C         18.9610  -23.7060   -8.6880 C.2     1  UNL1        0.0420
      3  C         19.7210  -23.0930   -9.6870 C.2     1  UNL1        0.0330
      4  C         19.0870  -22.3070  -10.6520 C.2     1  UNL1        0.0170
      5  C         17.6980  -22.1500  -10.6250 C.2     1  UNL1        0.0090
      6  C         16.9150  -22.7570   -9.6270 C.2     1  UNL1       -0.0390
      7  C         15.4270  -22.5540   -9.6730 C.3     1  UNL1        0.0500
      8  C         21.1970  -23.2800   -9.6720 C.2     1  UNL1        0.2510
      9  O         21.6740  -24.3410   -9.2880 O.2     1  UNL1       -0.2680
     10  N         21.9470  -22.2220  -10.1360 N.am    1  UNL1       -0.3530
     11  H         21.4820  -21.4940  -10.6600 H       1  UNL1        0.1630
     12  C         23.3730  -22.3480  -10.3450 C.3     1  UNL1        0.1610
     13  C         23.6960  -22.3310  -11.8160 C.2     1  UNL1       -0.0400
     14  C         22.9240  -21.5800  -12.7020 C.2     1  UNL1        0.0110
     15  C         23.2390  -21.5380  -14.0670 C.2     1  UNL1        0.0300
     16  C         24.3330  -22.2350  -14.6030 C.2     1  UNL1        0.0300
     17  C         25.0960  -22.9810  -13.6920 C.2     1  UNL1        0.0300
     18  C         24.7930  -23.0300  -12.3240 C.2     1  UNL1        0.0110
     19  N         24.6390  -22.1880  -15.9420 N.pl3   1  UNL1       -0.3810
     20  C         25.3740  -21.1010  -16.5830 C.3     1  UNL1        0.1230
     21  C         25.1810  -21.3570  -18.0750 C.3     1  UNL1        0.0210
     22  C         25.0710  -22.8680  -18.1530 C.3     1  UNL1        0.0210
     23  C         24.2630  -23.2200  -16.9060 C.3     1  UNL1        0.1230
     24  S         16.6760  -24.3770   -7.3430 S.O2    1  UNL1        0.2630
     25  O         15.5080  -25.0060   -7.9230 O.2     1  UNL1       -0.2000
     26  O         17.6230  -25.1640   -6.5810 O.2     1  UNL1       -0.2000
     27  N         16.1110  -23.1110   -6.3830 N.pl3   1  UNL1       -0.2810
     28  H         15.4110  -22.5470   -6.8580 H       1  UNL1        0.1790
     29  C         16.9800  -22.4700   -5.4560 C.2     1  UNL1        0.0430
     30  C         16.7370  -22.6430   -4.0920 C.2     1  UNL1        0.0300
     31  C         17.5540  -22.0120   -3.1530 C.2     1  UNL1        0.0030
     32  C         18.6140  -21.2100   -3.5760 C.2     1  UNL1        0.0070
     33  C         18.8660  -21.0320   -4.9400 C.2     1  UNL1       -0.0600
     34  C         20.0210  -20.1920   -5.4000 C.3     1  UNL1        0.0480
     35  C         18.0560  -21.6880   -5.8770 C.2     1  UNL1        0.0370
@<TRIPOS>BOND
     1    22    21    1
     2    22    23    1
     3    21    20    1
     4    23    19    1
     5    20    19    1
     6    19    16    1
     7    16    15    2
     8    16    17    1
     9    15    14    1
    10    17    18    2
    11    14    13    2
    12    18    13    1
    13    13    12    1
    14    11    10    1
    15     4     5    2
    16     4     3    1
    17     5     6    1
    18    12    10    1
    19    10     8   am
    20     3     8    1
    21     3     2    2
    22     7     6    1
    23     8     9    2
    24     6     1    2
    25     2     1    1
    26     1    24    1
    27    25    24    2
    28    24    26    2
    29    24    27    1
    30    28    27    1
    31    27    29    1
    32    35    29    2
    33    35    33    1
    34    29    30    1
    35    34    33    1
    36    33    32    2
    37    30    31    2
    38    32    31    1
