@<TRIPOS>MOLECULE
67214_out_ligand_01.pdbqt
 31 33 0 0 0
SMALL
GASTEIGER

@<TRIPOS>ATOM
      1  C         21.0730  -23.1440   -9.8940 C.2     1  UNL1        0.0340
      2  C         20.7680  -23.9700   -8.8010 C.2     1  UNL1        0.0310
      3  C         19.4580  -24.0760   -8.3260 C.2     1  UNL1        0.0270
      4  C         18.4450  -23.3340   -8.9350 C.2     1  UNL1        0.0800
      5  C         18.7300  -22.5160  -10.0290 C.2     1  UNL1        0.0270
      6  C         20.0430  -22.4220  -10.5040 C.2     1  UNL1        0.0310
      7  N         22.4230  -23.0840  -10.2960 N.am    1  UNL1       -0.3270
      8  C         23.3630  -22.1230   -9.9580 C.2     1  UNL1        0.2260
      9  O         23.1530  -21.1030   -9.3060 O.2     1  UNL1       -0.2730
     10  H         22.7300  -23.8250  -10.9130 H       1  UNL1        0.1690
     11  C         24.7530  -22.4430  -10.4930 C.3     1  UNL1        0.1410
     12  C         25.1990  -21.4650  -11.5510 C.2     1  UNL1       -0.0490
     13  C         26.1440  -20.4800  -11.2490 C.2     1  UNL1        0.0080
     14  C         26.5720  -19.5880  -12.2310 C.2     1  UNL1        0.0080
     15  C         26.0710  -19.6630  -13.5390 C.2     1  UNL1       -0.0560
     16  C         26.5690  -18.6890  -14.5710 C.3     1  UNL1        0.0490
     17  C         25.1340  -20.6650  -13.8610 C.2     1  UNL1       -0.0560
     18  C         24.7060  -21.5540  -12.8610 C.2     1  UNL1        0.0140
     19  C         24.5820  -20.8030  -15.2550 C.3     1  UNL1        0.0490
     20  S         16.7770  -23.4590   -8.3430 S.O2    1  UNL1        0.2630
     21  O         16.6640  -24.6480   -7.5230 O.2     1  UNL1       -0.2000
     22  O         15.9000  -23.2550   -9.4800 O.2     1  UNL1       -0.2000
     23  N         16.6220  -22.0780   -7.3830 N.pl3   1  UNL1       -0.2800
     24  H         15.9720  -21.4100   -7.7940 H       1  UNL1        0.1790
     25  C         16.6100  -22.2360   -5.9660 C.2     1  UNL1        0.0480
     26  C         15.4170  -22.6380   -5.3570 C.2     1  UNL1        0.0300
     27  C         15.3400  -22.7560   -3.9690 C.2     1  UNL1        0.0020
     28  C         16.4550  -22.4650   -3.1870 C.2     1  UNL1        0.0010
     29  C         17.6490  -22.0680   -3.7920 C.2     1  UNL1        0.0090
     30  C         17.7470  -21.9600   -5.1900 C.2     1  UNL1       -0.0350
     31  C         19.0460  -21.5070   -5.7980 C.3     1  UNL1        0.0500
@<TRIPOS>BOND
     1    19    17    1
     2    16    15    1
     3    17    15    2
     4    17    18    1
     5    15    14    1
     6    18    12    2
     7    14    13    2
     8    12    13    1
     9    12    11    1
    10    10     7    1
    11     6     5    1
    12     6     1    2
    13    11     8    1
    14     7     8   am
    15     7     1    1
    16     5     4    2
    17     8     9    2
    18     1     2    1
    19    22    20    2
    20     4    20    1
    21     4     3    1
    22     2     3    2
    23    20    21    2
    24    20    23    1
    25    24    23    1
    26    23    25    1
    27    25    26    2
    28    25    30    1
    29    31    30    1
    30    26    27    1
    31    30    29    2
    32    27    28    2
    33    29    28    1
