@<TRIPOS>MOLECULE
67211_out_ligand_01.pdbqt
 34 36 0 0 0
SMALL
GASTEIGER

@<TRIPOS>ATOM
      1  C         21.0880  -23.3450   -8.7290 C.2     1  UNL1        0.0340
      2  C         20.1530  -24.3870   -8.6350 C.2     1  UNL1        0.0310
      3  C         19.1290  -24.3480   -7.6840 C.2     1  UNL1        0.0270
      4  C         19.0440  -23.2620   -6.8140 C.2     1  UNL1        0.0750
      5  C         19.9610  -22.2130   -6.8990 C.2     1  UNL1        0.0270
      6  C         20.9820  -22.2590   -7.8540 C.2     1  UNL1        0.0310
      7  S         17.7400  -23.1750   -5.6120 S.O2    1  UNL1        0.2450
      8  O         18.2210  -22.4080   -4.4820 O.2     1  UNL1       -0.2060
      9  O         17.1990  -24.5080   -5.4610 O.2     1  UNL1       -0.2060
     10  N         16.6250  -22.1720   -6.4290 N.pl3   1  UNL1       -0.1810
     11  H         15.7300  -22.2740   -5.9480 H       1  UNL1        0.1460
     12  C         16.4900  -22.4810   -7.8220 C.2     1  UNL1        0.0230
     13  C         15.7090  -23.5690   -8.2040 C.2     1  UNL1        0.0240
     14  C         15.5270  -23.8560   -9.5550 C.2     1  UNL1        0.0030
     15  C         16.1140  -23.0410  -10.5260 C.2     1  UNL1        0.0160
     16  C         16.8780  -21.9240  -10.1540 C.2     1  UNL1        0.0490
     17  C         17.0640  -21.6520   -8.7880 C.2     1  UNL1        0.0400
     18  C         17.5090  -21.0490  -11.2090 C.3     1  UNL1        0.4170
     19  F         16.9370  -19.8150  -11.2870 F       1  UNL1       -0.1660
     20  F         17.4060  -21.5900  -12.4540 F       1  UNL1       -0.1660
     21  F         18.8380  -20.8300  -11.0050 F       1  UNL1       -0.1660
     22  N         22.0790  -23.4640   -9.7240 N.am    1  UNL1       -0.3270
     23  C         22.3640  -22.5770  -10.7490 C.2     1  UNL1        0.2260
     24  O         21.7880  -21.5140  -10.9670 O.2     1  UNL1       -0.2730
     25  H         22.6940  -24.2630   -9.6390 H       1  UNL1        0.1690
     26  C         23.4630  -23.0580  -11.6910 C.3     1  UNL1        0.1410
     27  C         24.1730  -21.9550  -12.4410 C.2     1  UNL1       -0.0490
     28  C         23.8050  -21.6340  -13.7510 C.2     1  UNL1        0.0080
     29  C         24.4840  -20.6330  -14.4470 C.2     1  UNL1        0.0080
     30  C         25.5410  -19.9300  -13.8500 C.2     1  UNL1       -0.0560
     31  C         26.2460  -18.8570  -14.6330 C.3     1  UNL1        0.0490
     32  C         25.9120  -20.2380  -12.5270 C.2     1  UNL1       -0.0560
     33  C         25.2220  -21.2470  -11.8370 C.2     1  UNL1        0.0140
     34  C         27.0340  -19.5090  -11.8360 C.3     1  UNL1        0.0490
@<TRIPOS>BOND
     1    31    30    1
     2    29    30    2
     3    29    28    1
     4    30    32    1
     5    28    27    2
     6    32    33    2
     7    32    34    1
     8    20    18    1
     9    27    33    1
    10    27    26    1
    11    26    23    1
    12    19    18    1
    13    18    21    1
    14    18    16    1
    15    24    23    2
    16    23    22   am
    17    15    16    2
    18    15    14    1
    19    16    17    1
    20    22    25    1
    21    22     1    1
    22    14    13    2
    23    17    12    2
    24     1     2    2
    25     1     6    1
    26     2     3    1
    27    13    12    1
    28     6     5    2
    29    12    10    1
    30     3     4    2
    31     5     4    1
    32     4     7    1
    33    10    11    1
    34    10     7    1
    35     7     9    2
    36     7     8    2
