@<TRIPOS>MOLECULE
67235_out_ligand_01.pdbqt
 29 31 0 0 0
SMALL
GASTEIGER

@<TRIPOS>ATOM
      1  N         19.2030  -23.2870   -6.9730 N.am    1  UNL1       -0.3230
      2  C         18.4860  -22.3390   -6.2700 C.2     1  UNL1        0.2560
      3  O         18.8150  -21.1870   -6.0210 O.2     1  UNL1       -0.2670
      4  H         18.8190  -24.2240   -6.9770 H       1  UNL1        0.1690
      5  C         17.2160  -22.8600   -5.6980 C.2     1  UNL1        0.0380
      6  C         17.2860  -23.3320   -4.3780 C.2     1  UNL1        0.0170
      7  C         16.1660  -23.8960   -3.7730 C.2     1  UNL1        0.0010
      8  C         14.9720  -23.9910   -4.4810 C.2     1  UNL1        0.0010
      9  C         14.8900  -23.5040   -5.7880 C.2     1  UNL1        0.0080
     10  C         16.0050  -22.9190   -6.4170 C.2     1  UNL1       -0.0420
     11  C         15.8190  -22.3310   -7.8020 C.3     1  UNL1        0.0440
     12  C         16.3250  -23.2380   -8.9350 C.3     1  UNL1        0.0430
     13  C         17.1590  -22.5080   -9.9600 C.2     1  UNL1       -0.0580
     14  C         18.4150  -23.0040  -10.3400 C.2     1  UNL1        0.0070
     15  C         19.1950  -22.3160  -11.2690 C.2     1  UNL1        0.0010
     16  C         18.7270  -21.1280  -11.8300 C.2     1  UNL1        0.0000
     17  C         17.4800  -20.6270  -11.4620 C.2     1  UNL1        0.0010
     18  C         16.7000  -21.3120  -10.5290 C.2     1  UNL1        0.0070
     19  C         20.4150  -23.1040   -7.6670 C.2     1  UNL1        0.0350
     20  C         20.8310  -24.1420   -8.5130 C.2     1  UNL1        0.0300
     21  C         22.0150  -24.0350   -9.2520 C.2     1  UNL1        0.0190
     22  C         22.7980  -22.8790   -9.1540 C.2     1  UNL1        0.0320
     23  C         22.3940  -21.8490   -8.2990 C.2     1  UNL1        0.0190
     24  C         21.2060  -21.9590   -7.5660 C.2     1  UNL1        0.0300
     25  C         24.0640  -22.7170   -9.9160 C.2     1  UNL1        0.2490
     26  N         25.0110  -23.6950   -9.7790 N.am    1  UNL1       -0.3660
     27  H         24.7740  -24.6160   -9.4400 H       1  UNL1        0.1590
     28  H         25.7960  -23.6270  -10.4160 H       1  UNL1        0.1590
     29  O         24.2490  -21.7680  -10.6670 O.2     1  UNL1       -0.2680
@<TRIPOS>BOND
     1    16    17    2
     2    16    15    1
     3    17    18    1
     4    15    14    2
     5    29    25    2
     6    18    13    2
     7    28    26    1
     8    14    13    1
     9    13    12    1
    10    25    26   am
    11    25    22    1
    12    26    27    1
    13    21    22    2
    14    21    20    1
    15    22    23    1
    16    12    11    1
    17    20    19    2
    18    23    24    2
    19    11    10    1
    20    19    24    1
    21    19     1    1
    22     4     1    1
    23     1     2   am
    24    10     9    1
    25    10     5    2
    26     2     3    2
    27     2     5    1
    28     9     8    2
    29     5     6    1
    30     8     7    1
    31     6     7    2
