@<TRIPOS>MOLECULE
67240_out_ligand_01.pdbqt
 29 31 0 0 0
SMALL
GASTEIGER

@<TRIPOS>ATOM
      1  N         20.8900  -22.8350   -9.3660 N.am    1  UNL1       -0.3270
      2  C         20.4980  -24.0870   -8.9250 C.2     1  UNL1        0.2230
      3  O         20.7430  -25.1600   -9.4670 O.2     1  UNL1       -0.2730
      4  H         20.5970  -22.0410   -8.8110 H       1  UNL1        0.1690
      5  C         19.7270  -24.0350   -7.6130 C.3     1  UNL1        0.1170
      6  C         18.8530  -22.7680   -7.5330 C.3     1  UNL1        0.0600
      7  C         17.6050  -22.7990   -8.4200 C.2     1  UNL1       -0.0490
      8  C         16.5530  -23.7120   -8.2380 C.2     1  UNL1        0.0080
      9  C         15.4350  -23.6890   -9.0780 C.2     1  UNL1        0.0010
     10  C         15.3480  -22.7510  -10.1050 C.2     1  UNL1        0.0000
     11  C         16.3760  -21.8330  -10.2950 C.2     1  UNL1        0.0010
     12  C         17.4950  -21.8560   -9.4580 C.2     1  UNL1        0.0080
     13  C         18.5200  -22.4600   -6.0710 C.2     1  UNL1       -0.0490
     14  C         17.8810  -23.3960   -5.2420 C.2     1  UNL1        0.0080
     15  C         17.6150  -23.0980   -3.9030 C.2     1  UNL1        0.0010
     16  C         17.9900  -21.8650   -3.3740 C.2     1  UNL1        0.0000
     17  C         18.6310  -20.9280   -4.1810 C.2     1  UNL1        0.0010
     18  C         18.8960  -21.2240   -5.5200 C.2     1  UNL1        0.0080
     19  C         21.6180  -22.5250  -10.5350 C.2     1  UNL1        0.0340
     20  C         20.9510  -21.7860  -11.5230 C.2     1  UNL1        0.0300
     21  C         21.5940  -21.4360  -12.7180 C.2     1  UNL1        0.0190
     22  C         22.9180  -21.8310  -12.9380 C.2     1  UNL1        0.0320
     23  C         23.5910  -22.5540  -11.9480 C.2     1  UNL1        0.0190
     24  C         22.9430  -22.9030  -10.7570 C.2     1  UNL1        0.0300
     25  C         23.6480  -21.4810  -14.1850 C.2     1  UNL1        0.2490
     26  N         23.2690  -20.3390  -14.8370 N.am    1  UNL1       -0.3660
     27  H         23.6830  -20.2110  -15.7520 H       1  UNL1        0.1590
     28  H         22.3530  -19.9380  -14.6960 H       1  UNL1        0.1590
     29  O         24.5290  -22.1990  -14.6410 O.2     1  UNL1       -0.2680
@<TRIPOS>BOND
     1    27    26    1
     2    26    28    1
     3    26    25   am
     4    29    25    2
     5    25    22    1
     6    22    21    2
     7    22    23    1
     8    21    20    1
     9    23    24    2
    10    20    19    2
    11    24    19    1
    12    19     1    1
    13    11    10    2
    14    11    12    1
    15    10     9    1
    16     3     2    2
    17    12     7    2
    18     1     2   am
    19     1     4    1
    20     9     8    2
    21     2     5    1
    22     7     8    1
    23     7     6    1
    24     5     6    1
    25     6    13    1
    26    13    18    2
    27    13    14    1
    28    18    17    1
    29    14    15    2
    30    17    16    2
    31    15    16    1
