@<TRIPOS>MOLECULE
67243_out_ligand_01.pdbqt
 28 30 0 0 0
SMALL
GASTEIGER

@<TRIPOS>ATOM
      1  C         21.8130  -22.5330   -9.1950 C.2     1  UNL1        0.2510
      2  O         22.6640  -21.7740   -8.7430 O.2     1  UNL1       -0.2700
      3  N         21.6240  -22.8650  -10.5270 N.am    1  UNL1       -0.3250
      4  H         20.8080  -23.4430  -10.7100 H       1  UNL1        0.1690
      5  C         20.8400  -23.2740   -8.2570 C.3     1  UNL1        0.2170
      6  C         20.6620  -24.6940   -8.7850 C.3     1  UNL1        0.0500
      7  O         19.5390  -22.6880   -8.2150 O.2     1  UNL1       -0.3360
      8  C         19.0230  -22.2800   -7.0070 C.2     1  UNL1        0.0810
      9  C         19.6420  -21.3620   -6.1530 C.2     1  UNL1        0.0380
     10  C         19.0280  -20.9870   -4.9600 C.2     1  UNL1        0.0040
     11  C         17.7920  -21.5220   -4.6090 C.2     1  UNL1        0.0120
     12  C         17.1470  -22.4440   -5.4450 C.2     1  UNL1       -0.0230
     13  C         15.8980  -22.9780   -5.0890 C.2     1  UNL1        0.0120
     14  C         17.7620  -22.8360   -6.6600 C.2     1  UNL1        0.0070
     15  C         15.2490  -23.8970   -5.9130 C.2     1  UNL1        0.0010
     16  C         15.8410  -24.2930   -7.1060 C.2     1  UNL1        0.0010
     17  C         17.0820  -23.7700   -7.4730 C.2     1  UNL1        0.0150
     18  C         22.3440  -22.4100  -11.6460 C.2     1  UNL1        0.0340
     19  C         21.6860  -21.5290  -12.5140 C.2     1  UNL1        0.0300
     20  C         22.3290  -21.0300  -13.6530 C.2     1  UNL1        0.0190
     21  C         23.6410  -21.4170  -13.9410 C.2     1  UNL1        0.0320
     22  C         24.3050  -22.2870  -13.0690 C.2     1  UNL1        0.0190
     23  C         23.6580  -22.7840  -11.9320 C.2     1  UNL1        0.0300
     24  C         24.3730  -20.9170  -15.1360 C.2     1  UNL1        0.2490
     25  N         25.1060  -19.7710  -14.9930 N.am    1  UNL1       -0.3660
     26  H         25.4800  -19.3850  -15.8530 H       1  UNL1        0.1590
     27  H         24.9510  -19.1290  -14.2300 H       1  UNL1        0.1590
     28  O         24.3000  -21.4810  -16.2200 O.2     1  UNL1       -0.2680
@<TRIPOS>BOND
     1    28    24    2
     2    26    25    1
     3    24    25   am
     4    24    21    1
     5    25    27    1
     6    21    20    2
     7    21    22    1
     8    20    19    1
     9    22    23    2
    10    19    18    2
    11    23    18    1
    12    18     3    1
    13     4     3    1
    14     3     1   am
    15     1     2    2
    16     1     5    1
    17     6     5    1
    18     5     7    1
    19     7     8    1
    20    17    16    2
    21    17    14    1
    22    16    15    1
    23     8    14    2
    24     8     9    1
    25    14    12    1
    26     9    10    2
    27    15    13    2
    28    12    13    1
    29    12    11    2
    30    10    11    1
