@<TRIPOS>MOLECULE
67257_out_ligand_01.pdbqt
 29 32 0 0 0
SMALL
GASTEIGER

@<TRIPOS>ATOM
      1  O         22.9950  -22.5260   -8.7350 O.2     1  UNL1       -0.2670
      2  C         22.6540  -22.3950   -9.9090 C.2     1  UNL1        0.2580
      3  N         21.3320  -22.2930  -10.3890 N.am    1  UNL1       -0.3130
      4  C         21.0670  -21.6990  -11.7080 C.3     1  UNL1        0.1330
      5  C         19.8170  -20.8400  -11.7240 C.3     1  UNL1        0.0250
      6  C         18.6240  -21.6980  -11.3600 C.3     1  UNL1        0.0420
      7  C         18.8790  -22.4560  -10.0830 C.2     1  UNL1       -0.0300
      8  C         17.7570  -22.9190   -9.3690 C.2     1  UNL1        0.0340
      9  C         17.9290  -23.6360   -8.1870 C.2     1  UNL1        0.0800
     10  C         19.2070  -23.8990   -7.7070 C.2     1  UNL1        0.0270
     11  C         20.3210  -23.4560   -8.4280 C.2     1  UNL1        0.0320
     12  C         20.1880  -22.7270   -9.6230 C.2     1  UNL1        0.0430
     13  S         16.5220  -24.2290   -7.2850 S.O2    1  UNL1        0.2580
     14  O         15.5690  -24.7330   -8.2470 O.2     1  UNL1       -0.2010
     15  O         16.9840  -25.0260   -6.1700 O.2     1  UNL1       -0.2010
     16  N         15.8910  -22.8060   -6.6790 N.3     1  UNL1       -0.3130
     17  H         15.6830  -22.1010   -7.3890 H       1  UNL1        0.1720
     18  C         14.9910  -22.8540   -5.5190 C.3     1  UNL1        0.1640
     19  C         15.6980  -22.3070   -4.2690 C.3     1  UNL1        0.1400
     20  C         15.8800  -23.3310   -3.1530 C.3     1  UNL1        0.0350
     21  C         17.3400  -23.7040   -3.2460 C.3     1  UNL1        0.0290
     22  C         17.9650  -22.4190   -3.7350 C.3     1  UNL1        0.1680
     23  O         17.0130  -21.8260   -4.6270 O.3     1  UNL1       -0.3840
     24  C         23.7630  -22.3310  -10.8910 C.2     1  UNL1        0.0320
     25  C         24.7790  -21.3870  -10.7060 C.2     1  UNL1        0.0170
     26  C         25.8380  -21.3260  -11.6110 C.2     1  UNL1        0.0010
     27  C         25.8890  -22.2150  -12.6870 C.2     1  UNL1        0.0000
     28  C         24.8890  -23.1750  -12.8560 C.2     1  UNL1        0.0010
     29  C         23.8270  -23.2400  -11.9540 C.2     1  UNL1        0.0170
@<TRIPOS>BOND
     1    28    27    2
     2    28    29    1
     3    27    26    1
     4    29    24    2
     5     5     4    1
     6     5     6    1
     7     4     3    1
     8    26    25    2
     9     6     7    1
    10    24    25    1
    11    24     2    1
    12     3     2   am
    13     3    12    1
    14     7    12    2
    15     7     8    1
    16     2     1    2
    17    12    11    1
    18     8     9    2
    19    11    10    2
    20    14    13    2
    21     9    10    1
    22     9    13    1
    23    17    16    1
    24    13    16    1
    25    13    15    2
    26    16    18    1
    27    18    19    1
    28    23    19    1
    29    23    22    1
    30    19    20    1
    31    22    21    1
    32    21    20    1
