@<TRIPOS>MOLECULE
67255_out_ligand_01.pdbqt
 31 34 0 0 0
SMALL
GASTEIGER

@<TRIPOS>ATOM
      1  O         22.7130  -22.5300   -8.8790 O.2     1  UNL1       -0.2670
      2  C         22.5810  -22.3060  -10.0800 C.2     1  UNL1        0.2580
      3  N         21.3790  -21.9990  -10.7440 N.am    1  UNL1       -0.3130
      4  C         21.4020  -21.2810  -12.0280 C.3     1  UNL1        0.1330
      5  C         20.2830  -20.2640  -12.1470 C.3     1  UNL1        0.0250
      6  C         18.9510  -20.9800  -12.0480 C.3     1  UNL1        0.0420
      7  C         18.9070  -21.8710  -10.8350 C.2     1  UNL1       -0.0300
      8  C         17.6390  -22.2530  -10.3540 C.2     1  UNL1        0.0340
      9  C         17.5350  -23.0930   -9.2470 C.2     1  UNL1        0.0750
     10  C         18.6790  -23.5500   -8.6040 C.2     1  UNL1        0.0270
     11  C         19.9400  -23.1830   -9.0920 C.2     1  UNL1        0.0320
     12  C         20.0840  -22.3430  -10.2100 C.2     1  UNL1        0.0430
     13  S         15.9330  -23.5500   -8.6390 S.O2    1  UNL1        0.2410
     14  O         15.2270  -24.2360   -9.7000 O.2     1  UNL1       -0.2060
     15  O         15.3650  -22.4160   -7.9400 O.2     1  UNL1       -0.2060
     16  N         16.3490  -24.6560   -7.4330 N.3     1  UNL1       -0.2150
     17  H         17.2980  -24.9970   -7.6030 H       1  UNL1        0.1390
     18  C         16.0990  -24.2600   -6.0280 C.3     1  UNL1        0.1090
     19  C         17.3780  -24.3520   -5.1880 C.3     1  UNL1        0.0540
     20  C         17.9070  -22.9860   -4.8240 C.2     1  UNL1       -0.0570
     21  C         17.8370  -22.5350   -3.4980 C.2     1  UNL1        0.0070
     22  C         18.3400  -21.2790   -3.1530 C.2     1  UNL1        0.0010
     23  C         18.9220  -20.4690   -4.1250 C.2     1  UNL1        0.0000
     24  C         19.0020  -20.9130   -5.4440 C.2     1  UNL1        0.0010
     25  C         18.4980  -22.1670   -5.7920 C.2     1  UNL1        0.0070
     26  C         23.8250  -22.3720  -10.8870 C.2     1  UNL1        0.0320
     27  C         23.9260  -23.3160  -11.9120 C.2     1  UNL1        0.0170
     28  C         25.0790  -23.3640  -12.6980 C.2     1  UNL1        0.0010
     29  C         26.1160  -22.4570  -12.4710 C.2     1  UNL1        0.0000
     30  C         26.0030  -21.4970  -11.4630 C.2     1  UNL1        0.0010
     31  C         24.8540  -21.4490  -10.6730 C.2     1  UNL1        0.0170
@<TRIPOS>BOND
     1    28    29    2
     2    28    27    1
     3    29    30    1
     4     5     6    1
     5     5     4    1
     6     6     7    1
     7     4     3    1
     8    27    26    2
     9    30    31    2
    10    26    31    1
    11    26     2    1
    12     7     8    2
    13     7    12    1
    14     3    12    1
    15     3     2   am
    16     8     9    1
    17    12    11    2
    18     2     1    2
    19    14    13    2
    20     9    13    1
    21     9    10    2
    22    11    10    1
    23    13    15    2
    24    13    16    1
    25    17    16    1
    26    16    18    1
    27    18    19    1
    28    25    24    1
    29    25    20    2
    30    24    23    2
    31    19    20    1
    32    20    21    1
    33    23    22    1
    34    21    22    2
