@<TRIPOS>MOLECULE
67263_out_ligand_01.pdbqt
 35 38 0 0 0
SMALL
GASTEIGER

@<TRIPOS>ATOM
      1  C         23.2470  -22.3660  -11.8180 C.2     1  UNL1        0.0800
      2  C         23.3420  -22.8280  -10.5070 C.2     1  UNL1        0.0270
      3  C         22.1880  -22.8920   -9.7260 C.2     1  UNL1        0.0320
      4  C         20.9390  -22.4880  -10.2320 C.2     1  UNL1        0.0430
      5  C         20.8920  -21.8930  -11.5080 C.2     1  UNL1       -0.0300
      6  C         22.0440  -21.8560  -12.3080 C.2     1  UNL1        0.0340
      7  C         19.6060  -21.3630  -12.0800 C.3     1  UNL1        0.0420
      8  C         18.6620  -20.9700  -10.9600 C.3     1  UNL1        0.0250
      9  C         18.4840  -22.1520  -10.0260 C.3     1  UNL1        0.1330
     10  N         19.7420  -22.6450   -9.4480 N.am    1  UNL1       -0.3130
     11  C         19.6650  -23.6600   -8.4730 C.2     1  UNL1        0.2580
     12  O         20.3570  -24.6770   -8.4530 O.2     1  UNL1       -0.2670
     13  S         24.6370  -22.5660  -12.9120 S.O2    1  UNL1        0.2630
     14  O         24.9260  -23.9820  -12.9910 O.2     1  UNL1       -0.2000
     15  O         25.6520  -21.6030  -12.5390 O.2     1  UNL1       -0.2000
     16  N         23.9840  -22.1260  -14.4230 N.pl3   1  UNL1       -0.2810
     17  H         23.1540  -21.5470  -14.3000 H       1  UNL1        0.1790
     18  C         24.9020  -21.7420  -15.4480 C.2     1  UNL1        0.0440
     19  C         25.8140  -22.6610  -15.9500 C.2     1  UNL1        0.0300
     20  C         26.7890  -22.2370  -16.8510 C.2     1  UNL1        0.0040
     21  C         26.8770  -20.8910  -17.2180 C.2     1  UNL1        0.0290
     22  C         25.9830  -19.9550  -16.6940 C.2     1  UNL1        0.0360
     23  C         24.9740  -20.3990  -15.8310 C.2     1  UNL1        0.0590
     24  N         26.0490  -18.5670  -16.9450 N.am    1  UNL1       -0.3270
     25  C         26.5780  -17.5860  -16.1270 C.2     1  UNL1        0.2180
     26  C         26.4690  -16.2090  -16.7350 C.3     1  UNL1        0.1170
     27  O         27.1210  -17.7470  -15.0410 O.2     1  UNL1       -0.2740
     28  H         25.5970  -18.2460  -17.7930 H       1  UNL1        0.1690
     29  C         18.6590  -23.5000   -7.3900 C.2     1  UNL1        0.0320
     30  C         17.5700  -24.3780   -7.2920 C.2     1  UNL1        0.0180
     31  C         16.6170  -24.1960   -6.2870 C.2     1  UNL1        0.0250
     32  C         16.7490  -23.1340   -5.3930 C.2     1  UNL1        0.0340
     33 CL         15.5740  -22.9110   -4.1570 Cl      1  UNL1       -0.0840
     34  C         17.8170  -22.2420   -5.5000 C.2     1  UNL1        0.0250
     35  C         18.7730  -22.4220   -6.5040 C.2     1  UNL1        0.0180
@<TRIPOS>BOND
     1    28    24    1
     2    21    20    2
     3    21    22    1
     4    24    22    1
     5    24    25   am
     6    20    19    1
     7    26    25    1
     8    22    23    2
     9    25    27    2
    10    19    18    2
    11    23    18    1
    12    18    16    1
    13    16    17    1
    14    16    13    1
    15    14    13    2
    16    13    15    2
    17    13     1    1
    18     6     1    2
    19     6     5    1
    20     7     5    1
    21     7     8    1
    22     1     2    1
    23     5     4    2
    24     8     9    1
    25     2     3    2
    26     4     3    1
    27     4    10    1
    28     9    10    1
    29    10    11   am
    30    11    12    2
    31    11    29    1
    32    29    30    2
    33    29    35    1
    34    30    31    1
    35    35    34    2
    36    31    32    2
    37    34    32    1
    38    32    33    1
