@<TRIPOS>MOLECULE
67269_out_ligand_01.pdbqt
 30 33 0 0 0
SMALL
GASTEIGER

@<TRIPOS>ATOM
      1  O         22.5320  -24.2300   -9.6180 O.2     1  UNL1       -0.2670
      2  C         22.3060  -23.2200  -10.2910 C.2     1  UNL1        0.2580
      3  N         21.0550  -22.6200  -10.5600 N.am    1  UNL1       -0.3130
      4  C         20.9470  -21.6010  -11.6210 C.3     1  UNL1        0.1330
      5  C         19.5770  -21.5260  -12.2710 C.3     1  UNL1        0.0250
      6  C         18.5410  -21.2350  -11.2080 C.3     1  UNL1        0.0420
      7  C         18.6460  -22.2440  -10.0930 C.2     1  UNL1       -0.0300
      8  C         17.4870  -22.4790   -9.3270 C.2     1  UNL1        0.0340
      9  C         17.5090  -23.4080   -8.2890 C.2     1  UNL1        0.0750
     10  C         18.6820  -24.1000   -7.9960 C.2     1  UNL1        0.0270
     11  C         19.8420  -23.8420   -8.7410 C.2     1  UNL1        0.0320
     12  C         19.8570  -22.9180   -9.8020 C.2     1  UNL1        0.0430
     13  S         16.0310  -23.7440   -7.3660 S.O2    1  UNL1        0.2410
     14  O         15.3940  -22.4760   -7.0730 O.2     1  UNL1       -0.2060
     15  O         15.3290  -24.8210   -8.0310 O.2     1  UNL1       -0.2060
     16  N         16.6720  -24.2940   -5.9120 N.3     1  UNL1       -0.2090
     17  H         17.6730  -24.4810   -6.0000 H       1  UNL1        0.1400
     18  C         16.2990  -23.5540   -4.6880 C.3     1  UNL1        0.1690
     19  C         17.3120  -22.4870   -4.4560 C.2     1  UNL1        0.0660
     20  C         18.1500  -21.7610   -5.2860 C.2     1  UNL1        0.0360
     21  C         18.9390  -20.9390   -4.4390 C.2     1  UNL1        0.0270
     22  C         18.5200  -21.1960   -3.1530 C.2     1  UNL1        0.1420
     23  O         17.5290  -22.1310   -3.1560 O.2     1  UNL1       -0.3260
     24  C         23.5170  -22.5750  -10.8570 C.2     1  UNL1        0.0320
     25  C         23.9530  -22.9480  -12.1370 C.2     1  UNL1        0.0200
     26  C         25.0790  -22.3280  -12.6880 C.2     1  UNL1        0.0430
     27  C         25.7650  -21.3680  -11.9490 C.2     1  UNL1        0.1160
     28  F         26.8440  -20.7760  -12.4820 F       1  UNL1       -0.2060
     29  C         25.3580  -21.0210  -10.6610 C.2     1  UNL1        0.0430
     30  C         24.2270  -21.6280  -10.1090 C.2     1  UNL1        0.0200
@<TRIPOS>BOND
     1    26    25    1
     2    26    27    2
     3    28    27    1
     4     5     4    1
     5     5     6    1
     6    25    24    2
     7    27    29    1
     8     4     3    1
     9     6     7    1
    10    24     2    1
    11    24    30    1
    12    29    30    2
    13     3     2   am
    14     3    12    1
    15     2     1    2
    16     7    12    2
    17     7     8    1
    18    12    11    1
    19     8     9    2
    20    11    10    2
    21     9    10    1
    22     9    13    1
    23    15    13    2
    24    13    14    2
    25    13    16    1
    26    17    16    1
    27    16    18    1
    28    20    19    2
    29    20    21    1
    30    18    19    1
    31    19    23    1
    32    21    22    2
    33    23    22    1
