@<TRIPOS>MOLECULE
67267_out_ligand_01.pdbqt
 32 35 0 0 0
SMALL
GASTEIGER

@<TRIPOS>ATOM
      1  C         23.4310  -22.0130  -11.0950 C.2     1  UNL1        0.0800
      2  C         23.3670  -22.2670   -9.7290 C.2     1  UNL1        0.0270
      3  C         22.1210  -22.3380   -9.0960 C.2     1  UNL1        0.0320
      4  C         20.9210  -22.1360   -9.7990 C.2     1  UNL1        0.0430
      5  C         21.0100  -21.8620  -11.1840 C.2     1  UNL1       -0.0300
      6  C         22.2630  -21.8080  -11.8250 C.2     1  UNL1        0.0340
      7  C         19.7860  -21.6460  -12.0350 C.3     1  UNL1        0.0420
      8  C         18.6060  -21.2200  -11.1860 C.3     1  UNL1        0.0250
      9  C         18.4480  -22.1960  -10.0350 C.3     1  UNL1        0.1330
     10  N         19.6300  -22.2410   -9.1620 N.am    1  UNL1       -0.3130
     11  C         19.4810  -22.3450   -7.7650 C.2     1  UNL1        0.2580
     12  O         20.3120  -22.0290   -6.9160 O.2     1  UNL1       -0.2670
     13  S         25.0110  -21.9410  -11.8960 S.O2    1  UNL1        0.2590
     14  O         25.8520  -21.0070  -11.1790 O.2     1  UNL1       -0.2010
     15  O         25.4310  -23.2990  -12.1550 O.2     1  UNL1       -0.2010
     16  N         24.6160  -21.2750  -13.3730 N.3     1  UNL1       -0.3070
     17  H         23.6600  -21.4440  -13.6790 H       1  UNL1        0.1730
     18  C         25.6490  -21.0370  -14.3800 C.3     1  UNL1        0.1220
     19  C         25.9050  -19.5290  -14.4470 C.3     1  UNL1        0.0380
     20  C         25.2410  -21.6580  -15.7040 C.2     1  UNL1       -0.0350
     21  C         25.2430  -20.9460  -16.9130 C.2     1  UNL1        0.0090
     22  C         24.8300  -21.5540  -18.1020 C.2     1  UNL1        0.0010
     23  C         24.3970  -22.8770  -18.0980 C.2     1  UNL1        0.0000
     24  C         24.3690  -23.5940  -16.9050 C.2     1  UNL1        0.0010
     25  C         24.7820  -22.9880  -15.7170 C.2     1  UNL1        0.0090
     26  C         18.2020  -22.8770   -7.2330 C.2     1  UNL1        0.0320
     27  C         17.2810  -21.9870   -6.6650 C.2     1  UNL1        0.0200
     28  C         16.0840  -22.4730   -6.1380 C.2     1  UNL1        0.0430
     29  C         15.8270  -23.8410   -6.1680 C.2     1  UNL1        0.1160
     30  F         14.6790  -24.3070   -5.6610 F       1  UNL1       -0.2060
     31  C         16.7480  -24.7360   -6.7080 C.2     1  UNL1        0.0430
     32  C         17.9470  -24.2550   -7.2360 C.2     1  UNL1        0.0200
@<TRIPOS>BOND
     1    22    23    2
     2    22    21    1
     3    23    24    1
     4    21    20    2
     5    24    25    2
     6    25    20    1
     7    20    18    1
     8    19    18    1
     9    18    16    1
    10    17    16    1
    11    16    13    1
    12    15    13    2
    13     7     8    1
    14     7     5    1
    15    13    14    2
    16    13     1    1
    17     6     5    1
    18     6     1    2
    19     8     9    1
    20     5     4    2
    21     1     2    1
    22     9    10    1
    23     4    10    1
    24     4     3    1
    25     2     3    2
    26    10    11   am
    27    11    26    1
    28    11    12    2
    29    32    26    2
    30    32    31    1
    31    26    27    1
    32    31    29    2
    33    27    28    2
    34    29    28    1
    35    29    30    1
