@<TRIPOS>MOLECULE
67261_out_ligand_01.pdbqt
 33 36 0 0 0
SMALL
GASTEIGER

@<TRIPOS>ATOM
      1  O         20.1610  -21.8170   -6.8140 O.2     1  UNL1       -0.2670
      2  C         19.3860  -22.2310   -7.6730 C.2     1  UNL1        0.2580
      3  N         19.5940  -22.2230   -9.0660 N.am    1  UNL1       -0.3130
      4  C         18.4540  -22.3290   -9.9900 C.3     1  UNL1        0.1330
      5  C         18.6070  -21.4570  -11.2200 C.3     1  UNL1        0.0250
      6  C         19.8480  -21.8810  -11.9740 C.3     1  UNL1        0.0420
      7  C         21.0420  -21.9270  -11.0560 C.2     1  UNL1       -0.0300
      8  C         22.3170  -21.8390  -11.6460 C.2     1  UNL1        0.0340
      9  C         23.4610  -21.8950  -10.8520 C.2     1  UNL1        0.0800
     10  C         23.3500  -22.0190   -9.4730 C.2     1  UNL1        0.0270
     11  C         22.0820  -22.1250   -8.8890 C.2     1  UNL1        0.0320
     12  C         20.9050  -22.0820   -9.6570 C.2     1  UNL1        0.0430
     13  S         25.0700  -21.7880  -11.5990 S.O2    1  UNL1        0.2630
     14  O         25.9380  -21.0630  -10.6960 O.2     1  UNL1       -0.2000
     15  O         25.4150  -23.1060  -12.0860 O.2     1  UNL1       -0.2000
     16  N         24.7850  -20.8370  -12.9700 N.pl3   1  UNL1       -0.2810
     17  H         24.8110  -19.8430  -12.7460 H       1  UNL1        0.1790
     18  C         25.2790  -21.2600  -14.2340 C.2     1  UNL1        0.0450
     19  C         26.5850  -20.9160  -14.5920 C.2     1  UNL1        0.0300
     20  C         27.1180  -21.3440  -15.8090 C.2     1  UNL1        0.0050
     21  C         26.3450  -22.1160  -16.6750 C.2     1  UNL1        0.0360
     22  C         25.0330  -22.4540  -16.3130 C.2     1  UNL1        0.1050
     23  C         24.4920  -22.0270  -15.0930 C.2     1  UNL1        0.0660
     24  N         24.2200  -23.2680  -17.2220 N.pl3   1  UNL1       -0.1160
     25  O         24.2190  -24.4950  -17.0450 O.2     1  UNL1       -0.5320
     26  O         23.5820  -22.6860  -18.1080 O.2     1  UNL1       -0.5320
     27  C         18.1070  -22.7780   -7.1560 C.2     1  UNL1        0.0320
     28  C         17.1260  -21.8920   -6.6970 C.2     1  UNL1        0.0180
     29  C         15.9270  -22.3910   -6.1850 C.2     1  UNL1        0.0250
     30  C         15.7220  -23.7690   -6.1190 C.2     1  UNL1        0.0340
     31 CL         14.2440  -24.3840   -5.4880 Cl      1  UNL1       -0.0840
     32  C         16.7090  -24.6570   -6.5530 C.2     1  UNL1        0.0250
     33  C         17.9100  -24.1620   -7.0660 C.2     1  UNL1        0.0180
@<TRIPOS>BOND
     1    26    24    2
     2    24    25    2
     3    24    22    1
     4    21    22    2
     5    21    20    1
     6    22    23    1
     7    20    19    2
     8    23    18    2
     9    19    18    1
    10    18    16    1
    11    16    17    1
    12    16    13    1
    13    15    13    2
    14     6     5    1
    15     6     7    1
    16     8     7    2
    17     8     9    1
    18    13     9    1
    19    13    14    2
    20     5     4    1
    21     7    12    1
    22     9    10    2
    23     4     3    1
    24    12     3    1
    25    12    11    2
    26    10    11    1
    27     3     2   am
    28     2    27    1
    29     2     1    2
    30    27    33    2
    31    27    28    1
    32    33    32    1
    33    28    29    2
    34    32    30    2
    35    29    30    1
    36    30    31    1
