@<TRIPOS>MOLECULE
67266_out_ligand_01.pdbqt
 32 35 0 0 0
SMALL
GASTEIGER

@<TRIPOS>ATOM
      1  O         19.6600  -24.6760   -8.1030 O.2     1  UNL1       -0.2670
      2  C         18.9470  -23.7000   -8.3200 C.2     1  UNL1        0.2580
      3  N         19.0750  -22.7870   -9.3830 N.am    1  UNL1       -0.3130
      4  C         17.9370  -21.9510   -9.7940 C.3     1  UNL1        0.1330
      5  C         17.8240  -21.8180  -11.3010 C.3     1  UNL1        0.0250
      6  C         19.0810  -21.1670  -11.8360 C.3     1  UNL1        0.0420
      7  C         20.3120  -21.8640  -11.3230 C.2     1  UNL1       -0.0300
      8  C         21.5080  -21.6880  -12.0470 C.2     1  UNL1        0.0340
      9  C         22.6830  -22.2980  -11.6150 C.2     1  UNL1        0.0750
     10  C         22.6860  -23.0790  -10.4640 C.2     1  UNL1        0.0270
     11  C         21.5020  -23.2390   -9.7360 C.2     1  UNL1        0.0320
     12  C         20.2940  -22.6460  -10.1440 C.2     1  UNL1        0.0430
     13  S         24.1850  -22.1040  -12.5340 S.O2    1  UNL1        0.2410
     14  O         25.1620  -21.4480  -11.6930 O.2     1  UNL1       -0.2060
     15  O         23.8410  -21.6080  -13.8470 O.2     1  UNL1       -0.2060
     16  N         24.7090  -23.7100  -12.6610 N.3     1  UNL1       -0.2150
     17  H         24.4490  -24.1990  -11.8000 H       1  UNL1        0.1390
     18  C         26.1500  -23.9060  -12.9700 C.3     1  UNL1        0.1080
     19  C         26.3570  -24.5950  -14.3240 C.3     1  UNL1        0.0490
     20  C         25.8990  -23.7450  -15.4900 C.2     1  UNL1       -0.0830
     21  C         24.8130  -24.0650  -16.2170 C.2     1  UNL1       -0.0240
     22  C         24.3170  -23.2570  -17.3810 C.3     1  UNL1        0.0270
     23  C         24.9700  -21.8780  -17.4820 C.3     1  UNL1        0.0040
     24  C         26.4680  -21.9600  -17.2120 C.3     1  UNL1        0.0050
     25  C         26.7480  -22.5380  -15.8220 C.3     1  UNL1        0.0340
     26  C         17.8400  -23.5000   -7.3540 C.2     1  UNL1        0.0320
     27  C         17.9860  -22.6110   -6.2800 C.2     1  UNL1        0.0200
     28  C         16.9410  -22.4550   -5.3690 C.2     1  UNL1        0.0430
     29  C         15.7740  -23.1960   -5.5290 C.2     1  UNL1        0.1160
     30  F         14.7730  -23.0470   -4.6500 F       1  UNL1       -0.2060
     31  C         15.6300  -24.0980   -6.5790 C.2     1  UNL1        0.0430
     32  C         16.6710  -24.2570   -7.4950 C.2     1  UNL1        0.0200
@<TRIPOS>BOND
     1    23    22    1
     2    23    24    1
     3    22    21    1
     4    24    25    1
     5    21    20    2
     6    25    20    1
     7    20    19    1
     8    19    18    1
     9    15    13    2
    10    18    16    1
    11    16    13    1
    12    16    17    1
    13    13    14    2
    14    13     9    1
    15     8     9    1
    16     8     7    2
    17     6     7    1
    18     6     5    1
    19     9    10    2
    20     7    12    1
    21     5     4    1
    22    10    11    1
    23    12    11    2
    24    12     3    1
    25     4     3    1
    26     3     2   am
    27     2     1    2
    28     2    26    1
    29    32    26    2
    30    32    31    1
    31    26    27    1
    32    31    29    2
    33    27    28    2
    34    29    28    1
    35    29    30    1
