@<TRIPOS>MOLECULE
67264_out_ligand_01.pdbqt
 28 30 0 0 0
SMALL
GASTEIGER

@<TRIPOS>ATOM
      1  C         18.0390  -23.6250   -8.1100 C.2     1  UNL1        0.0800
      2  C         19.3290  -23.8620   -7.6490 C.2     1  UNL1        0.0270
      3  C         20.4240  -23.3920   -8.3820 C.2     1  UNL1        0.0320
      4  C         20.2590  -22.6570   -9.5690 C.2     1  UNL1        0.0430
      5  C         18.9380  -22.4030  -10.0060 C.2     1  UNL1       -0.0300
      6  C         17.8360  -22.8920   -9.2770 C.2     1  UNL1        0.0340
      7  C         18.6490  -21.6370  -11.2690 C.3     1  UNL1        0.0420
      8  C         19.8210  -20.7580  -11.6480 C.3     1  UNL1        0.0250
      9  C         21.0850  -21.5970  -11.6610 C.3     1  UNL1        0.1330
     10  N         21.3830  -22.1960  -10.3510 N.am    1  UNL1       -0.3130
     11  C         22.7120  -22.2760   -9.8900 C.2     1  UNL1        0.2580
     12  O         23.0740  -22.4040   -8.7220 O.2     1  UNL1       -0.2670
     13  S         16.6570  -24.2240   -7.1760 S.O2    1  UNL1        0.2590
     14  O         15.6760  -24.6990   -8.1280 O.2     1  UNL1       -0.2010
     15  O         17.1470  -25.0800   -6.1200 O.2     1  UNL1       -0.2010
     16  N         15.9980  -22.8460   -6.5030 N.3     1  UNL1       -0.3070
     17  H         16.4100  -21.9880   -6.8680 H       1  UNL1        0.1730
     18  C         15.0700  -22.7450   -5.3620 C.3     1  UNL1        0.0290
     19  C         15.8380  -22.2820   -4.1190 C.3     1  UNL1        0.0380
     20  C         14.3140  -24.0420   -5.0710 C.3     1  UNL1        0.0380
     21  C         14.0420  -21.6610   -5.7370 C.3     1  UNL1        0.0380
     22  C         23.8070  -22.1880  -10.8860 C.2     1  UNL1        0.0320
     23  C         23.8750  -23.0950  -11.9520 C.2     1  UNL1        0.0200
     24  C         24.9280  -23.0110  -12.8630 C.2     1  UNL1        0.0430
     25  C         25.9080  -22.0360  -12.6930 C.2     1  UNL1        0.1160
     26  F         26.9160  -21.9590  -13.5690 F       1  UNL1       -0.2060
     27  C         25.8610  -21.1470  -11.6220 C.2     1  UNL1        0.0430
     28  C         24.8110  -21.2260  -10.7080 C.2     1  UNL1        0.0200
@<TRIPOS>BOND
     1    26    25    1
     2    24    25    2
     3    24    23    1
     4    25    27    1
     5    23    22    2
     6     9     8    1
     7     9    10    1
     8     8     7    1
     9    27    28    2
    10     7     5    1
    11    22    28    1
    12    22    11    1
    13    10    11   am
    14    10     4    1
    15     5     4    2
    16     5     6    1
    17    11    12    2
    18     4     3    1
    19     6     1    2
    20     3     2    2
    21    14    13    2
    22     1     2    1
    23     1    13    1
    24    13    16    1
    25    13    15    2
    26    17    16    1
    27    16    18    1
    28    21    18    1
    29    18    20    1
    30    18    19    1
