@<TRIPOS>MOLECULE
67270_out_ligand_01.pdbqt
 30 33 0 0 0
SMALL
GASTEIGER

@<TRIPOS>ATOM
      1  O         20.1080  -21.9330   -6.8290 O.2     1  UNL1       -0.2670
      2  C         19.3450  -22.2870   -7.7230 C.2     1  UNL1        0.2580
      3  N         19.5790  -22.2050   -9.1090 N.am    1  UNL1       -0.3130
      4  C         18.4540  -22.2230  -10.0570 C.3     1  UNL1        0.1330
      5  C         18.6510  -21.2700  -11.2210 C.3     1  UNL1        0.0250
      6  C         19.8970  -21.6710  -11.9820 C.3     1  UNL1        0.0420
      7  C         21.0710  -21.8160  -11.0510 C.2     1  UNL1       -0.0300
      8  C         22.3600  -21.7240  -11.6100 C.2     1  UNL1        0.0340
      9  C         23.4860  -21.8610  -10.8020 C.2     1  UNL1        0.0800
     10  C         23.3440  -22.0850   -9.4370 C.2     1  UNL1        0.0270
     11  C         22.0630  -22.1950   -8.8830 C.2     1  UNL1        0.0320
     12  C         20.9040  -22.0620   -9.6670 C.2     1  UNL1        0.0430
     13  S         25.1130  -21.7370  -11.5010 S.O2    1  UNL1        0.2580
     14  O         25.7770  -20.6020  -10.8950 O.2     1  UNL1       -0.2010
     15  O         25.6940  -23.0600  -11.4910 O.2     1  UNL1       -0.2010
     16  N         24.8000  -21.3490  -13.0990 N.3     1  UNL1       -0.3130
     17  H         24.7560  -20.3440  -13.2870 H       1  UNL1        0.1720
     18  C         25.3930  -22.1670  -14.1700 C.3     1  UNL1        0.1640
     19  C         24.3870  -22.2600  -15.3290 C.3     1  UNL1        0.1400
     20  C         24.7510  -23.3390  -16.3390 C.3     1  UNL1        0.0350
     21  C         25.5550  -22.5800  -17.3660 C.3     1  UNL1        0.0290
     22  C         24.8550  -21.2420  -17.3840 C.3     1  UNL1        0.1680
     23  O         24.4030  -21.0020  -16.0440 O.3     1  UNL1       -0.3840
     24  C         18.0480  -22.8450   -7.2620 C.2     1  UNL1        0.0320
     25  C         17.8370  -24.2300   -7.2400 C.2     1  UNL1        0.0200
     26  C         16.6190  -24.7330   -6.7790 C.2     1  UNL1        0.0430
     27  C         15.6370  -23.8530   -6.3320 C.2     1  UNL1        0.1160
     28  F         14.4710  -24.3410   -5.8910 F       1  UNL1       -0.2060
     29  C         15.8490  -22.4780   -6.3280 C.2     1  UNL1        0.0430
     30  C         17.0640  -21.9680   -6.7870 C.2     1  UNL1        0.0200
@<TRIPOS>BOND
     1    22    21    1
     2    22    23    1
     3    21    20    1
     4    20    19    1
     5    23    19    1
     6    19    18    1
     7    18    16    1
     8    17    16    1
     9    16    13    1
    10     6     5    1
    11     6     7    1
    12     8     7    2
    13     8     9    1
    14    13    15    2
    15    13    14    2
    16    13     9    1
    17     5     4    1
    18     7    12    1
    19     9    10    2
    20     4     3    1
    21    12     3    1
    22    12    11    2
    23    10    11    1
    24     3     2   am
    25     2    24    1
    26     2     1    2
    27    24    25    2
    28    24    30    1
    29    25    26    1
    30    30    29    2
    31    26    27    2
    32    27    29    1
    33    27    28    1
