@<TRIPOS>MOLECULE
67271_out_ligand_01.pdbqt
 31 34 0 0 0
SMALL
GASTEIGER

@<TRIPOS>ATOM
      1  O         19.6120  -24.7810   -7.9640 O.2     1  UNL1       -0.2670
      2  C         18.9320  -23.7890   -8.2150 C.2     1  UNL1        0.2580
      3  N         19.1290  -22.8910   -9.2800 N.am    1  UNL1       -0.3130
      4  C         18.0190  -22.0630   -9.7730 C.3     1  UNL1        0.1330
      5  C         18.0020  -21.9500  -11.2850 C.3     1  UNL1        0.0250
      6  C         19.2920  -21.3030  -11.7470 C.3     1  UNL1        0.0420
      7  C         20.4890  -21.9970  -11.1490 C.2     1  UNL1       -0.0300
      8  C         21.7290  -21.8290  -11.7940 C.2     1  UNL1        0.0340
      9  C         22.8730  -22.4290  -11.2760 C.2     1  UNL1        0.0800
     10  C         22.7980  -23.2010  -10.1220 C.2     1  UNL1        0.0270
     11  C         21.5690  -23.3560   -9.4720 C.2     1  UNL1        0.0320
     12  C         20.3930  -22.7660   -9.9650 C.2     1  UNL1        0.0430
     13  S         24.4390  -22.2100  -12.0750 S.O2    1  UNL1        0.2590
     14  O         25.1840  -21.2230  -11.3280 O.2     1  UNL1       -0.2010
     15  O         24.9910  -23.5070  -12.3960 O.2     1  UNL1       -0.2010
     16  N         23.9850  -21.4820  -13.5090 N.3     1  UNL1       -0.3110
     17  H         23.0820  -21.0120  -13.4710 H       1  UNL1        0.1720
     18  C         25.0240  -20.9480  -14.3770 C.3     1  UNL1        0.1720
     19  C         24.9770  -21.5930  -15.7320 C.2     1  UNL1       -0.0220
     20  C         24.9430  -20.8400  -16.9080 C.2     1  UNL1        0.0120
     21  C         24.8860  -21.4870  -18.1390 C.2     1  UNL1        0.0200
     22  C         24.8590  -22.8720  -18.1530 C.2     1  UNL1        0.1160
     23  N         24.8820  -23.6330  -17.0380 N.2     1  UNL1       -0.2730
     24  C         24.9320  -22.9780  -15.8560 C.2     1  UNL1        0.1240
     25  C         17.7940  -23.5480   -7.2940 C.2     1  UNL1        0.0320
     26  C         17.9410  -22.6970   -6.1880 C.2     1  UNL1        0.0200
     27  C         16.8650  -22.5030   -5.3210 C.2     1  UNL1        0.0430
     28  C         15.6640  -23.1680   -5.5570 C.2     1  UNL1        0.1160
     29  F         14.6340  -22.9790   -4.7220 F       1  UNL1       -0.2060
     30  C         15.5190  -24.0330   -6.6380 C.2     1  UNL1        0.0430
     31  C         16.5910  -24.2310   -7.5080 C.2     1  UNL1        0.0200
@<TRIPOS>BOND
     1    22    21    2
     2    22    23    1
     3    21    20    1
     4    23    24    2
     5    20    19    2
     6    24    19    1
     7    19    18    1
     8    18    16    1
     9    16    17    1
    10    16    13    1
    11    15    13    2
    12    13    14    2
    13    13     9    1
    14     8     9    1
    15     8     7    2
    16     6     5    1
    17     6     7    1
    18     5     4    1
    19     9    10    2
    20     7    12    1
    21    10    11    1
    22    12    11    2
    23    12     3    1
    24     4     3    1
    25     3     2   am
    26     2     1    2
    27     2    25    1
    28    31    25    2
    29    31    30    1
    30    25    26    1
    31    30    28    2
    32    26    27    2
    33    28    27    1
    34    28    29    1
