@<TRIPOS>MOLECULE
67273_out_ligand_01.pdbqt
 33 36 0 0 0
SMALL
GASTEIGER

@<TRIPOS>ATOM
      1  C         17.5660  -23.0890   -9.5530 C.2     1  UNL1        0.0800
      2  C         17.7730  -22.2250  -10.6230 C.2     1  UNL1        0.0270
      3  C         19.0710  -22.0190  -11.1040 C.2     1  UNL1        0.0320
      4  C         20.1830  -22.6510  -10.5240 C.2     1  UNL1        0.0430
      5  C         19.9530  -23.5100   -9.4240 C.2     1  UNL1       -0.0300
      6  C         18.6470  -23.7200   -8.9420 C.2     1  UNL1        0.0340
      7  C         21.0680  -24.2690   -8.7560 C.3     1  UNL1        0.0420
      8  C         22.4070  -23.6090   -9.0140 C.3     1  UNL1        0.0250
      9  C         22.5590  -23.3680  -10.5050 C.3     1  UNL1        0.1330
     10  N         21.5180  -22.4780  -11.0440 N.am    1  UNL1       -0.3130
     11  C         21.8390  -21.5040  -12.0090 C.2     1  UNL1        0.2580
     12  O         21.1780  -20.5030  -12.2880 O.2     1  UNL1       -0.2670
     13  S         15.9220  -23.3760   -8.9580 S.O2    1  UNL1        0.2630
     14  O         15.3310  -22.1120   -8.5730 O.2     1  UNL1       -0.2000
     15  O         15.2610  -24.2510   -9.9030 O.2     1  UNL1       -0.2000
     16  N         16.1920  -24.3140   -7.5730 N.pl3   1  UNL1       -0.2810
     17  H         15.6970  -25.2030   -7.6460 H       1  UNL1        0.1790
     18  C         16.1920  -23.6550   -6.3140 C.2     1  UNL1        0.0430
     19  C         15.0500  -23.7040   -5.5140 C.2     1  UNL1        0.0300
     20  C         15.0190  -23.0130   -4.3030 C.2     1  UNL1        0.0030
     21  C         16.1230  -22.2600   -3.8960 C.2     1  UNL1        0.0150
     22  C         17.2650  -22.1970   -4.7040 C.2     1  UNL1        0.0110
     23  C         17.2940  -22.9020   -5.9150 C.2     1  UNL1        0.0450
     24  C         18.4620  -21.3860   -4.3280 C.2     1  UNL1        0.1550
     25  C         19.2150  -20.6530   -5.4070 C.3     1  UNL1        0.0960
     26  O         18.8180  -21.3300   -3.1530 O.2     1  UNL1       -0.2930
     27  C         23.0990  -21.6660  -12.7710 C.2     1  UNL1        0.0320
     28  C         23.0610  -21.6210  -14.1670 C.2     1  UNL1        0.0170
     29  C         24.2420  -21.7710  -14.8940 C.2     1  UNL1        0.0070
     30  C         25.4600  -21.9920  -14.2330 C.2     1  UNL1       -0.0620
     31  C         26.7330  -22.1170  -15.0170 C.3     1  UNL1        0.0480
     32  C         25.4830  -22.0490  -12.8320 C.2     1  UNL1        0.0070
     33  C         24.3040  -21.8980  -12.1000 C.2     1  UNL1        0.0170
@<TRIPOS>BOND
     1    31    30    1
     2    29    30    2
     3    29    28    1
     4    30    32    1
     5    28    27    2
     6    32    33    2
     7    27    33    1
     8    27    11    1
     9    12    11    2
    10    11    10   am
    11     3     2    1
    12     3     4    2
    13    10     4    1
    14    10     9    1
    15     2     1    2
    16     4     5    1
    17     9     8    1
    18    15    13    2
    19     1    13    1
    20     1     6    1
    21     5     6    2
    22     5     7    1
    23     8     7    1
    24    13    14    2
    25    13    16    1
    26    17    16    1
    27    16    18    1
    28    18    23    2
    29    18    19    1
    30    23    22    1
    31    19    20    2
    32    25    24    1
    33    22    24    1
    34    22    21    2
    35    24    26    2
    36    20    21    1
