@<TRIPOS>MOLECULE
67277_out_ligand_01.pdbqt
 31 34 0 0 0
SMALL
GASTEIGER

@<TRIPOS>ATOM
      1  O         23.0690  -22.6100   -8.9410 O.2     1  UNL1       -0.2670
      2  C         22.7290  -22.4110  -10.1050 C.2     1  UNL1        0.2580
      3  N         21.4130  -22.2440  -10.5760 N.am    1  UNL1       -0.3130
      4  C         21.1620  -21.5650  -11.8570 C.3     1  UNL1        0.1330
      5  C         19.9440  -20.6610  -11.8120 C.3     1  UNL1        0.0250
      6  C         18.7220  -21.4920  -11.4870 C.3     1  UNL1        0.0420
      7  C         18.9570  -22.3370  -10.2640 C.2     1  UNL1       -0.0300
      8  C         17.8240  -22.8010   -9.5680 C.2     1  UNL1        0.0340
      9  C         17.9760  -23.5990   -8.4350 C.2     1  UNL1        0.0750
     10  C         19.2460  -23.9390   -7.9840 C.2     1  UNL1        0.0270
     11  C         20.3720  -23.4920   -8.6850 C.2     1  UNL1        0.0320
     12  C         20.2580  -22.6840   -9.8300 C.2     1  UNL1        0.0430
     13  S         16.5500  -24.1790   -7.5530 S.O2    1  UNL1        0.2460
     14  O         15.5570  -24.5400   -8.5420 O.2     1  UNL1       -0.2060
     15  O         16.9810  -25.1180   -6.5400 O.2     1  UNL1       -0.2060
     16  N         15.9840  -22.7630   -6.8080 N.pl3   1  UNL1       -0.1780
     17  H         14.9630  -22.7970   -6.7830 H       1  UNL1        0.1460
     18  C         16.6100  -22.3950   -5.5770 C.2     1  UNL1        0.0610
     19  C         17.8490  -21.7560   -5.5780 C.2     1  UNL1        0.0270
     20  C         18.4760  -21.4600   -4.3640 C.2     1  UNL1        0.0020
     21  C         17.8720  -21.8120   -3.1540 C.2     1  UNL1        0.0030
     22  C         16.6360  -22.4590   -3.1530 C.2     1  UNL1        0.0440
     23  C         16.0170  -22.7510   -4.3620 C.2     1  UNL1        0.1380
     24  F         14.8250  -23.3690   -4.3580 F       1  UNL1       -0.2040
     25  C         23.8420  -22.3330  -11.0840 C.2     1  UNL1        0.0320
     26  C         23.9030  -23.2250  -12.1650 C.2     1  UNL1        0.0200
     27  C         24.9720  -23.1500  -13.0590 C.2     1  UNL1        0.0430
     28  C         25.9700  -22.2020  -12.8590 C.2     1  UNL1        0.1160
     29  F         26.9940  -22.1330  -13.7190 F       1  UNL1       -0.2060
     30  C         25.9290  -21.3290  -11.7740 C.2     1  UNL1        0.0430
     31  C         24.8640  -21.3990  -10.8760 C.2     1  UNL1        0.0200
@<TRIPOS>BOND
     1    29    28    1
     2    27    28    2
     3    27    26    1
     4    28    30    1
     5    26    25    2
     6     4     5    1
     7     4     3    1
     8     5     6    1
     9    30    31    2
    10     6     7    1
    11    25    31    1
    12    25     2    1
    13     3     2   am
    14     3    12    1
    15     7    12    2
    16     7     8    1
    17     2     1    2
    18    12    11    1
    19     8     9    2
    20    11    10    2
    21    14    13    2
    22     9    10    1
    23     9    13    1
    24    13    16    1
    25    13    15    2
    26    16    17    1
    27    16    18    1
    28    19    18    2
    29    19    20    1
    30    18    23    1
    31    20    21    2
    32    23    24    1
    33    23    22    2
    34    21    22    1
