@<TRIPOS>MOLECULE
67278_out_ligand_01.pdbqt
 31 34 0 0 0
SMALL
GASTEIGER

@<TRIPOS>ATOM
      1  O         20.2660  -22.0370   -6.8880 O.2     1  UNL1       -0.2670
      2  C         19.4670  -22.3450   -7.7700 C.2     1  UNL1        0.2580
      3  N         19.6740  -22.2480   -9.1590 N.am    1  UNL1       -0.3130
      4  C         18.5290  -22.2140  -10.0810 C.3     1  UNL1        0.1330
      5  C         18.7350  -21.2560  -11.2400 C.3     1  UNL1        0.0250
      6  C         19.9470  -21.6940  -12.0330 C.3     1  UNL1        0.0420
      7  C         21.1350  -21.8920  -11.1290 C.2     1  UNL1       -0.0300
      8  C         22.4120  -21.8440  -11.7180 C.2     1  UNL1        0.0340
      9  C         23.5500  -22.0450  -10.9410 C.2     1  UNL1        0.0800
     10  C         23.4330  -22.2730   -9.5740 C.2     1  UNL1        0.0270
     11  C         22.1620  -22.3350   -8.9910 C.2     1  UNL1        0.0320
     12  C         20.9900  -22.1490   -9.7460 C.2     1  UNL1        0.0430
     13  S         25.1620  -21.9920  -11.6900 S.O2    1  UNL1        0.2630
     14  O         26.0630  -21.3260  -10.7740 O.2     1  UNL1       -0.2000
     15  O         25.4510  -23.3150  -12.2010 O.2     1  UNL1       -0.2000
     16  N         24.9140  -21.0100  -13.0440 N.pl3   1  UNL1       -0.2810
     17  H         25.0870  -20.0290  -12.8330 H       1  UNL1        0.1790
     18  C         25.2800  -21.4930  -14.3300 C.2     1  UNL1        0.0420
     19  C         26.5830  -21.3370  -14.8080 C.2     1  UNL1        0.0330
     20  C         26.9120  -21.7800  -16.0910 C.2     1  UNL1        0.0440
     21  C         25.9340  -22.3730  -16.8820 C.2     1  UNL1        0.1160
     22  F         26.2460  -22.7920  -18.1140 F       1  UNL1       -0.2060
     23  C         24.6350  -22.5360  -16.4130 C.2     1  UNL1        0.0440
     24  C         24.3050  -22.0950  -15.1310 C.2     1  UNL1        0.0330
     25  C         18.1610  -22.8580   -7.2870 C.2     1  UNL1        0.0320
     26  C         17.9020  -24.2350   -7.2630 C.2     1  UNL1        0.0200
     27  C         16.6770  -24.6970   -6.7820 C.2     1  UNL1        0.0430
     28  C         15.7330  -23.7840   -6.3150 C.2     1  UNL1        0.1160
     29  F         14.5590  -24.2320   -5.8530 F       1  UNL1       -0.2060
     30  C         15.9930  -22.4170   -6.3120 C.2     1  UNL1        0.0430
     31  C         17.2180  -21.9490   -6.7930 C.2     1  UNL1        0.0200
@<TRIPOS>BOND
     1    22    21    1
     2    21    23    2
     3    21    20    1
     4    23    24    1
     5    20    19    2
     6    24    18    2
     7    19    18    1
     8    18    16    1
     9    16    17    1
    10    16    13    1
    11    15    13    2
    12     6     5    1
    13     6     7    1
    14     8     7    2
    15     8     9    1
    16    13     9    1
    17    13    14    2
    18     5     4    1
    19     7    12    1
    20     9    10    2
    21     4     3    1
    22    12     3    1
    23    12    11    2
    24    10    11    1
    25     3     2   am
    26     2    25    1
    27     2     1    2
    28    25    26    2
    29    25    31    1
    30    26    27    1
    31    31    30    2
    32    27    28    2
    33    28    30    1
    34    28    29    1
