@<TRIPOS>MOLECULE
67279_out_ligand_01.pdbqt
 31 34 0 0 0
SMALL
GASTEIGER

@<TRIPOS>ATOM
      1  O         23.2500  -22.6200   -9.0080 O.2     1  UNL1       -0.2670
      2  C         22.8720  -22.4180  -10.1590 C.2     1  UNL1        0.2580
      3  N         21.5420  -22.2460  -10.5860 N.am    1  UNL1       -0.3130
      4  C         21.2490  -21.5640  -11.8560 C.3     1  UNL1        0.1330
      5  C         20.0380  -20.6550  -11.7690 C.3     1  UNL1        0.0250
      6  C         18.8240  -21.4830  -11.4060 C.3     1  UNL1        0.0420
      7  C         19.0970  -22.3300  -10.1900 C.2     1  UNL1       -0.0300
      8  C         17.9860  -22.7900   -9.4570 C.2     1  UNL1        0.0340
      9  C         18.1730  -23.5890   -8.3320 C.2     1  UNL1        0.0750
     10  C         19.4560  -23.9350   -7.9230 C.2     1  UNL1        0.0270
     11  C         20.5600  -23.4910   -8.6620 C.2     1  UNL1        0.0320
     12  C         20.4110  -22.6820   -9.8020 C.2     1  UNL1        0.0430
     13  S         16.7760  -24.1650   -7.4030 S.O2    1  UNL1        0.2450
     14  O         15.7650  -24.5620   -8.3600 O.2     1  UNL1       -0.2060
     15  O         17.2420  -25.0710   -6.3770 O.2     1  UNL1       -0.2060
     16  N         16.2080  -22.7370   -6.6800 N.pl3   1  UNL1       -0.1800
     17  H         15.2000  -22.8270   -6.5360 H       1  UNL1        0.1460
     18  C         16.9470  -22.2520   -5.5520 C.2     1  UNL1        0.0440
     19  C         18.1030  -21.4990   -5.7680 C.2     1  UNL1        0.0260
     20  C         18.8710  -21.0710   -4.6830 C.2     1  UNL1        0.0020
     21  C         18.4920  -21.4000   -3.3820 C.2     1  UNL1        0.0020
     22  C         17.3390  -22.1570   -3.1600 C.2     1  UNL1        0.0260
     23  C         16.5690  -22.5860   -4.2420 C.2     1  UNL1        0.0560
     24 CL         15.1410  -23.5050   -3.9320 Cl      1  UNL1       -0.0820
     25  C         23.9510  -22.3420  -11.1750 C.2     1  UNL1        0.0320
     26  C         24.0180  -23.2820  -12.2130 C.2     1  UNL1        0.0200
     27  C         25.0560  -23.2070  -13.1440 C.2     1  UNL1        0.0430
     28  C         26.0210  -22.2110  -13.0190 C.2     1  UNL1        0.1160
     29  F         27.0140  -22.1440  -13.9140 F       1  UNL1       -0.2060
     30  C         25.9750  -21.2900  -11.9770 C.2     1  UNL1        0.0430
     31  C         24.9400  -21.3590  -11.0420 C.2     1  UNL1        0.0200
@<TRIPOS>BOND
     1    29    28    1
     2    27    28    2
     3    27    26    1
     4    28    30    1
     5    26    25    2
     6    30    31    2
     7     4     5    1
     8     4     3    1
     9     5     6    1
    10     6     7    1
    11    25    31    1
    12    25     2    1
    13     3     2   am
    14     3    12    1
    15     7    12    2
    16     7     8    1
    17     2     1    2
    18    12    11    1
    19     8     9    2
    20    11    10    2
    21    14    13    2
    22     9    10    1
    23     9    13    1
    24    13    16    1
    25    13    15    2
    26    16    17    1
    27    16    18    1
    28    19    18    2
    29    19    20    1
    30    18    23    1
    31    20    21    2
    32    23    24    1
    33    23    22    2
    34    21    22    1
