@<TRIPOS>MOLECULE
67274_out_ligand_01.pdbqt
 33 36 0 0 0
SMALL
GASTEIGER

@<TRIPOS>ATOM
      1  C         19.1990  -23.6890   -8.3510 C.2     1  UNL1        0.2580
      2  O         19.9060  -24.6740   -8.1530 O.2     1  UNL1       -0.2670
      3  N         19.2930  -22.7950   -9.4360 N.am    1  UNL1       -0.3130
      4  C         18.1510  -21.9390   -9.7930 C.3     1  UNL1        0.1330
      5  C         17.9840  -21.7710  -11.2900 C.3     1  UNL1        0.0250
      6  C         19.2330  -21.1310  -11.8580 C.3     1  UNL1        0.0420
      7  C         20.4630  -21.8810  -11.4210 C.2     1  UNL1       -0.0300
      8  C         21.6260  -21.7310  -12.2010 C.2     1  UNL1        0.0340
      9  C         22.8020  -22.3850  -11.8370 C.2     1  UNL1        0.0800
     10  C         22.8310  -23.2020  -10.7140 C.2     1  UNL1        0.0270
     11  C         21.6790  -23.3370   -9.9290 C.2     1  UNL1        0.0320
     12  C         20.4760  -22.6870  -10.2580 C.2     1  UNL1        0.0430
     13  S         24.2710  -22.1880  -12.8190 S.O2    1  UNL1        0.2630
     14  O         24.8800  -23.4900  -12.9840 O.2     1  UNL1       -0.2000
     15  O         25.0120  -21.0690  -12.2800 O.2     1  UNL1       -0.2000
     16  N         23.6590  -21.6730  -14.3100 N.pl3   1  UNL1       -0.2810
     17  H         22.7260  -22.0470  -14.4800 H       1  UNL1        0.1790
     18  C         24.5400  -21.5220  -15.4160 C.2     1  UNL1        0.0450
     19  C         24.7510  -22.6170  -16.2580 C.2     1  UNL1        0.0300
     20  C         25.6350  -22.5200  -17.3340 C.2     1  UNL1        0.0050
     21  C         26.3120  -21.3240  -17.5720 C.2     1  UNL1        0.0360
     22  C         26.0920  -20.2260  -16.7270 C.2     1  UNL1        0.1050
     23  C         25.2050  -20.3190  -15.6470 C.2     1  UNL1        0.0660
     24  N         26.8070  -18.9690  -16.9760 N.pl3   1  UNL1       -0.1160
     25  O         27.0650  -18.6780  -18.1530 O.2     1  UNL1       -0.5320
     26  O         27.1180  -18.2760  -15.9970 O.2     1  UNL1       -0.5320
     27  C         18.1460  -23.4510   -7.3350 C.2     1  UNL1        0.0320
     28  C         18.3560  -22.5430   -6.2920 C.2     1  UNL1        0.0170
     29  C         17.3600  -22.3470   -5.3330 C.2     1  UNL1        0.0070
     30  C         16.1540  -23.0590   -5.4070 C.2     1  UNL1       -0.0620
     31  C         15.1010  -22.8770   -4.3520 C.3     1  UNL1        0.0480
     32  C         15.9710  -23.9950   -6.4340 C.2     1  UNL1        0.0070
     33  C         16.9630  -24.1940   -7.3950 C.2     1  UNL1        0.0170
@<TRIPOS>BOND
     1    25    24    2
     2    21    20    2
     3    21    22    1
     4    20    19    1
     5    24    22    1
     6    24    26    2
     7    22    23    2
     8    19    18    2
     9    23    18    1
    10    18    16    1
    11    17    16    1
    12    16    13    1
    13    14    13    2
    14    13    15    2
    15    13     9    1
    16     8     9    1
    17     8     7    2
    18     6     7    1
    19     6     5    1
    20     9    10    2
    21     7    12    1
    22     5     4    1
    23    10    11    1
    24    12    11    2
    25    12     3    1
    26     4     3    1
    27     3     1   am
    28     1     2    2
    29     1    27    1
    30    33    27    2
    31    33    32    1
    32    27    28    1
    33    32    30    2
    34    28    29    2
    35    30    29    1
    36    30    31    1
