@<TRIPOS>MOLECULE
67287_out_ligand_01.pdbqt
 33 36 0 0 0
SMALL
GASTEIGER

@<TRIPOS>ATOM
      1  C         18.0660  -23.5990   -8.2980 C.2     1  UNL1        0.0750
      2  C         19.3440  -23.9220   -7.8580 C.2     1  UNL1        0.0270
      3  C         20.4570  -23.4670   -8.5760 C.2     1  UNL1        0.0320
      4  C         20.3190  -22.6720   -9.7280 C.2     1  UNL1        0.0430
      5  C         19.0090  -22.3400  -10.1460 C.2     1  UNL1       -0.0300
      6  C         17.8910  -22.8080   -9.4300 C.2     1  UNL1        0.0340
      7  C         18.7500  -21.5140  -11.3780 C.3     1  UNL1        0.0420
      8  C         19.9630  -20.6810  -11.7370 C.3     1  UNL1        0.0250
      9  C         21.1840  -21.5810  -11.7850 C.3     1  UNL1        0.1330
     10  N         21.4600  -22.2330  -10.4970 N.am    1  UNL1       -0.3130
     11  C         22.7830  -22.3820  -10.0400 C.2     1  UNL1        0.2580
     12  O         23.1390  -22.5470   -8.8760 O.2     1  UNL1       -0.2670
     13  S         16.6550  -24.2040   -7.4050 S.O2    1  UNL1        0.2460
     14  O         17.1130  -25.1380   -6.3980 O.2     1  UNL1       -0.2060
     15  O         15.6620  -24.5840   -8.3850 O.2     1  UNL1       -0.2060
     16  N         16.0770  -22.7920   -6.6560 N.pl3   1  UNL1       -0.1790
     17  H         15.1170  -22.9710   -6.3500 H       1  UNL1        0.1460
     18  C         16.9090  -22.2310   -5.6330 C.2     1  UNL1        0.0570
     19  C         18.0440  -21.5020   -5.9870 C.2     1  UNL1        0.0510
     20  C         18.8880  -21.0330   -4.9860 C.2     1  UNL1        0.0350
     21  C         18.6060  -21.2840   -3.6430 C.2     1  UNL1        0.0260
     22 CL         20.2950  -20.1350   -5.4100 Cl      1  UNL1       -0.0840
     23  C         17.4690  -22.0180   -3.2900 C.2     1  UNL1        0.0400
     24  C         16.6190  -22.5070   -4.2850 C.2     1  UNL1        0.0900
     25  O         15.4720  -23.2240   -4.0550 O.2     1  UNL1       -0.3540
     26  C         15.5890  -24.3200   -3.1540 C.3     1  UNL1        0.2100
     27  C         23.8810  -22.3230  -11.0380 C.2     1  UNL1        0.0320
     28  C         24.8710  -21.3430  -10.8990 C.2     1  UNL1        0.0200
     29  C         25.9230  -21.2890  -11.8150 C.2     1  UNL1        0.0430
     30  C         25.9840  -22.2240  -12.8450 C.2     1  UNL1        0.1160
     31  F         26.9940  -22.1720  -13.7220 F       1  UNL1       -0.2060
     32  C         25.0170  -23.2170  -12.9740 C.2     1  UNL1        0.0430
     33  C         23.9620  -23.2760  -12.0630 C.2     1  UNL1        0.0200
@<TRIPOS>BOND
     1    31    30    1
     2    32    30    2
     3    32    33    1
     4    30    29    1
     5    33    27    2
     6    29    28    2
     7     9     8    1
     8     9    10    1
     9     8     7    1
    10     7     5    1
    11    27    28    1
    12    27    11    1
    13    10    11   am
    14    10     4    1
    15     5     4    2
    16     5     6    1
    17    11    12    2
    18     4     3    1
    19     6     1    2
    20     3     2    2
    21    15    13    2
    22     1     2    1
    23     1    13    1
    24    13    16    1
    25    13    14    2
    26    16    17    1
    27    16    18    1
    28    19    18    2
    29    19    20    1
    30    18    24    1
    31    22    20    1
    32    20    21    2
    33    24    25    1
    34    24    23    2
    35    25    26    1
    36    21    23    1
