@<TRIPOS>MOLECULE
67289_out_ligand_01.pdbqt
 34 37 0 0 0
SMALL
GASTEIGER

@<TRIPOS>ATOM
      1  C         18.3230  -23.6050   -8.3950 C.2     1  UNL1        0.0750
      2  C         19.6050  -23.9900   -8.0220 C.2     1  UNL1        0.0270
      3  C         20.7030  -23.5550   -8.7730 C.2     1  UNL1        0.0320
      4  C         20.5510  -22.7160   -9.8910 C.2     1  UNL1        0.0430
      5  C         19.2380  -22.3230  -10.2430 C.2     1  UNL1       -0.0300
      6  C         18.1330  -22.7740   -9.4970 C.2     1  UNL1        0.0340
      7  C         18.9610  -21.4420  -11.4320 C.3     1  UNL1        0.0420
      8  C         20.1870  -20.6350  -11.8030 C.3     1  UNL1        0.0250
      9  C         21.3730  -21.5700  -11.9360 C.3     1  UNL1        0.1330
     10  N         21.6750  -22.2880  -10.6890 N.am    1  UNL1       -0.3130
     11  C         23.0100  -22.5040  -10.2950 C.2     1  UNL1        0.2580
     12  O         23.4060  -22.7430   -9.1570 O.2     1  UNL1       -0.2670
     13  S         16.9320  -24.1660   -7.4510 S.O2    1  UNL1        0.2450
     14  O         15.9120  -24.5840   -8.3890 O.2     1  UNL1       -0.2060
     15  O         17.3990  -25.0520   -6.4070 O.2     1  UNL1       -0.2060
     16  N         16.3650  -22.7280   -6.7430 N.pl3   1  UNL1       -0.1800
     17  H         15.3490  -22.8160   -6.6340 H       1  UNL1        0.1460
     18  C         17.0550  -22.2800   -5.5680 C.2     1  UNL1        0.0390
     19  C         18.1280  -21.4000   -5.7570 C.2     1  UNL1        0.0250
     20  C         18.9000  -20.9800   -4.6730 C.2     1  UNL1        0.0020
     21  C         18.6130  -21.4440   -3.3930 C.2     1  UNL1        0.0010
     22  C         17.5490  -22.3260   -3.1960 C.2     1  UNL1        0.0190
     23  C         16.7550  -22.7500   -4.2760 C.2     1  UNL1        0.0610
     24  C         15.6410  -23.6840   -3.9540 C.2     1  UNL1        0.2940
     25  O         15.7440  -24.6010   -3.1540 O.2     1  UNL1       -0.2590
     26  O         14.5050  -23.3410   -4.6140 O.3     1  UNL1       -0.3220
     27  C         13.8550  -24.4410   -5.2570 C.3     1  UNL1        0.2130
     28  C         24.0690  -22.4290  -11.3310 C.2     1  UNL1        0.0320
     29  C         24.9640  -21.3500  -11.3580 C.2     1  UNL1        0.0200
     30  C         25.9370  -21.2870  -12.3580 C.2     1  UNL1        0.0430
     31  C         25.9960  -22.2890  -13.3230 C.2     1  UNL1        0.1160
     32  F         26.9300  -22.2240  -14.2800 F       1  UNL1       -0.2060
     33  C         25.0950  -23.3500  -13.3170 C.2     1  UNL1        0.0430
     34  C         24.1200  -23.4190  -12.3210 C.2     1  UNL1        0.0200
@<TRIPOS>BOND
     1    32    31    1
     2    31    33    2
     3    31    30    1
     4    33    34    1
     5    30    29    2
     6    34    28    2
     7     9     8    1
     8     9    10    1
     9     8     7    1
    10     7     5    1
    11    29    28    1
    12    28    11    1
    13    10    11   am
    14    10     4    1
    15    11    12    2
    16     5     4    2
    17     5     6    1
    18     4     3    1
    19     6     1    2
    20     3     2    2
    21     1     2    1
    22     1    13    1
    23    14    13    2
    24    13    16    1
    25    13    15    2
    26    16    17    1
    27    16    18    1
    28    19    18    2
    29    19    20    1
    30    18    23    1
    31    27    26    1
    32    20    21    2
    33    26    24    1
    34    23    24    1
    35    23    22    2
    36    24    25    2
    37    21    22    1
