@<TRIPOS>MOLECULE
67280_out_ligand_01.pdbqt
 31 34 0 0 0
SMALL
GASTEIGER

@<TRIPOS>ATOM
      1  O         22.8010  -22.7320   -8.9110 O.2     1  UNL1       -0.2670
      2  C         22.6060  -22.4210  -10.0840 C.2     1  UNL1        0.2580
      3  N         21.3670  -22.1010  -10.6690 N.am    1  UNL1       -0.3130
      4  C         21.3080  -21.3080  -11.9060 C.3     1  UNL1        0.1330
      5  C         20.1710  -20.3020  -11.9030 C.3     1  UNL1        0.0250
      6  C         18.8570  -21.0430  -11.7730 C.3     1  UNL1        0.0420
      7  C         18.8920  -22.0010  -10.6120 C.2     1  UNL1       -0.0300
      8  C         17.6590  -22.4240  -10.0820 C.2     1  UNL1        0.0340
      9  C         17.6240  -23.3360   -9.0290 C.2     1  UNL1        0.0800
     10  C         18.8070  -23.8190   -8.4810 C.2     1  UNL1        0.0270
     11  C         20.0330  -23.4060   -9.0150 C.2     1  UNL1        0.0320
     12  C         20.1070  -22.4960  -10.0840 C.2     1  UNL1        0.0430
     13  S         16.0660  -23.8850   -8.3830 S.O2    1  UNL1        0.2630
     14  O         16.2860  -25.0460   -7.5470 O.2     1  UNL1       -0.2000
     15  O         15.1250  -23.9260   -9.4830 O.2     1  UNL1       -0.2000
     16  N         15.5930  -22.5800   -7.4120 N.pl3   1  UNL1       -0.2810
     17  H         14.7150  -22.1850   -7.7500 H       1  UNL1        0.1790
     18  C         15.7630  -22.7050   -6.0070 C.2     1  UNL1        0.0430
     19  C         14.8890  -23.5030   -5.2670 C.2     1  UNL1        0.0300
     20  C         15.0910  -23.6690   -3.8960 C.2     1  UNL1        0.0040
     21  C         16.1730  -23.0470   -3.2690 C.2     1  UNL1        0.0190
     22  C         17.0470  -22.2600   -4.0190 C.2     1  UNL1        0.0130
     23 BR         18.5250  -21.4350   -3.1780 Br      1  UNL1       -0.0510
     24  C         16.8460  -22.0830   -5.3870 C.2     1  UNL1        0.0490
     25  C         23.8180  -22.3770  -10.9400 C.2     1  UNL1        0.0320
     26  C         23.9370  -23.2900  -11.9940 C.2     1  UNL1        0.0200
     27  C         25.0590  -23.2460  -12.8240 C.2     1  UNL1        0.0430
     28  C         26.0390  -22.2820  -12.6010 C.2     1  UNL1        0.1160
     29  F         27.1140  -22.2400  -13.3970 F       1  UNL1       -0.2060
     30  C         25.9160  -21.3540  -11.5700 C.2     1  UNL1        0.0430
     31  C         24.7970  -21.3930  -10.7370 C.2     1  UNL1        0.0200
@<TRIPOS>BOND
     1    29    28    1
     2    27    28    2
     3    27    26    1
     4    28    30    1
     5    26    25    2
     6     4     5    1
     7     4     3    1
     8     5     6    1
     9     6     7    1
    10    30    31    2
    11    25    31    1
    12    25     2    1
    13     3    12    1
    14     3     2   am
    15     7    12    2
    16     7     8    1
    17    12    11    1
    18     2     1    2
    19     8     9    2
    20    15    13    2
    21     9    10    1
    22     9    13    1
    23    11    10    2
    24    13    14    2
    25    13    16    1
    26    17    16    1
    27    16    18    1
    28    18    24    2
    29    18    19    1
    30    24    22    1
    31    19    20    2
    32    22    21    2
    33    22    23    1
    34    20    21    1
