@<TRIPOS>MOLECULE
67285_out_ligand_01.pdbqt
 32 35 0 0 0
SMALL
GASTEIGER

@<TRIPOS>ATOM
      1  C         17.6530  -23.2520   -8.8160 C.2     1  UNL1        0.0800
      2  C         18.8610  -23.6710   -8.2680 C.2     1  UNL1        0.0270
      3  C         20.0640  -23.2870   -8.8720 C.2     1  UNL1        0.0320
      4  C         20.0910  -22.4660  -10.0140 C.2     1  UNL1        0.0430
      5  C         18.8520  -22.0310  -10.5390 C.2     1  UNL1       -0.0300
      6  C         17.6420  -22.4270   -9.9390 C.2     1  UNL1        0.0340
      7  C         18.7650  -21.1670  -11.7690 C.3     1  UNL1        0.0420
      8  C         20.0590  -20.4120  -11.9900 C.3     1  UNL1        0.0250
      9  C         21.2160  -21.3940  -11.9530 C.3     1  UNL1        0.1330
     10  N         21.3260  -22.0970  -10.6650 N.am    1  UNL1       -0.3130
     11  C         22.5880  -22.3620  -10.1030 C.2     1  UNL1        0.2580
     12  O         22.8280  -22.6030   -8.9220 O.2     1  UNL1       -0.2670
     13  S         16.1220  -23.7540   -8.0670 S.O2    1  UNL1        0.2630
     14  O         15.5010  -24.7400   -8.9250 O.2     1  UNL1       -0.2000
     15  O         15.4140  -22.5540   -7.6690 O.2     1  UNL1       -0.2000
     16  N         16.6270  -24.4960   -6.6330 N.pl3   1  UNL1       -0.2810
     17  H         16.2620  -25.4440   -6.5520 H       1  UNL1        0.1790
     18  C         16.7260  -23.7170   -5.4450 C.2     1  UNL1        0.0450
     19  C         15.7730  -23.8960   -4.4420 C.2     1  UNL1        0.0300
     20  C         15.8250  -23.1100   -3.2930 C.2     1  UNL1        0.0050
     21  C         16.8270  -22.1500   -3.1530 C.2     1  UNL1        0.0370
     22  C         17.7850  -21.9680   -4.1540 C.2     1  UNL1        0.0700
     23  C         17.7340  -22.7600   -5.3020 C.2     1  UNL1        0.0660
     24  O         18.7070  -20.9910   -3.8930 O.2     1  UNL1       -0.3560
     25  C         19.2260  -20.2820   -5.0120 C.3     1  UNL1        0.2100
     26  C         23.7730  -22.3460  -10.9970 C.2     1  UNL1        0.0320
     27  C         23.8820  -23.2640  -12.0510 C.2     1  UNL1        0.0200
     28  C         25.0170  -23.2480  -12.8630 C.2     1  UNL1        0.0430
     29  C         26.0330  -22.3320  -12.6060 C.2     1  UNL1        0.1160
     30  F         27.1210  -22.3200  -13.3880 F       1  UNL1       -0.2060
     31  C         25.9440  -21.4340  -11.5460 C.2     1  UNL1        0.0430
     32  C         24.8120  -21.4450  -10.7300 C.2     1  UNL1        0.0200
@<TRIPOS>BOND
     1    30    29    1
     2    28    29    2
     3    28    27    1
     4    29    31    1
     5    27    26    2
     6     8     9    1
     7     8     7    1
     8     9    10    1
     9     7     5    1
    10    31    32    2
    11    26    32    1
    12    26    11    1
    13    10    11   am
    14    10     4    1
    15     5     4    2
    16     5     6    1
    17    11    12    2
    18     4     3    1
    19     6     1    2
    20    14    13    2
    21     3     2    2
    22     1     2    1
    23     1    13    1
    24    13    15    2
    25    13    16    1
    26    16    17    1
    27    16    18    1
    28    18    23    2
    29    18    19    1
    30    23    22    1
    31    25    24    1
    32    19    20    2
    33    22    24    1
    34    22    21    2
    35    20    21    1
