@<TRIPOS>MOLECULE
67281_out_ligand_01.pdbqt
 31 34 0 0 0
SMALL
GASTEIGER

@<TRIPOS>ATOM
      1  O         19.6650  -24.8040   -7.9880 O.2     1  UNL1       -0.2670
      2  C         19.0770  -23.7820   -8.3340 C.2     1  UNL1        0.2580
      3  N         19.4650  -22.8980   -9.3590 N.am    1  UNL1       -0.3130
      4  C         18.4810  -22.0010   -9.9830 C.3     1  UNL1        0.1330
      5  C         18.6780  -21.8650  -11.4810 C.3     1  UNL1        0.0250
      6  C         20.0530  -21.2910  -11.7470 C.3     1  UNL1        0.0420
      7  C         21.1120  -22.0710  -11.0150 C.2     1  UNL1       -0.0300
      8  C         22.4330  -21.9800  -11.4920 C.2     1  UNL1        0.0340
      9  C         23.4610  -22.6620  -10.8450 C.2     1  UNL1        0.0800
     10  C         23.1880  -23.4460   -9.7300 C.2     1  UNL1        0.0270
     11  C         21.8770  -23.5250   -9.2470 C.2     1  UNL1        0.0320
     12  C         20.8140  -22.8480   -9.8710 C.2     1  UNL1        0.0430
     13  S         25.1230  -22.5510  -11.4550 S.O2    1  UNL1        0.2630
     14  O         25.4040  -21.1530  -11.7030 O.2     1  UNL1       -0.2000
     15  O         25.9880  -23.3460  -10.6090 O.2     1  UNL1       -0.2000
     16  N         25.0060  -23.2810  -12.9770 N.pl3   1  UNL1       -0.2810
     17  H         24.1620  -23.8510  -13.0350 H       1  UNL1        0.1790
     18  C         25.3580  -22.5070  -14.1140 C.2     1  UNL1        0.0420
     19  C         26.6700  -22.5130  -14.5850 C.2     1  UNL1        0.0310
     20  C         27.0000  -21.7830  -15.7290 C.2     1  UNL1        0.0210
     21  C         26.0130  -21.0550  -16.3940 C.2     1  UNL1        0.0110
     22 BR         26.4580  -20.0680  -17.9430 Br      1  UNL1       -0.0510
     23  C         24.6980  -21.0530  -15.9280 C.2     1  UNL1        0.0210
     24  C         24.3700  -21.7850  -14.7850 C.2     1  UNL1        0.0310
     25  C         17.8300  -23.4850   -7.5850 C.2     1  UNL1        0.0320
     26  C         17.8000  -22.4570   -6.6330 C.2     1  UNL1        0.0200
     27  C         16.6240  -22.2100   -5.9220 C.2     1  UNL1        0.0430
     28  C         15.5020  -23.0000   -6.1560 C.2     1  UNL1        0.1160
     29  F         14.3770  -22.7610   -5.4710 F       1  UNL1       -0.2060
     30  C         15.5320  -24.0400   -7.0820 C.2     1  UNL1        0.0430
     31  C         16.7030  -24.2900   -7.7950 C.2     1  UNL1        0.0200
@<TRIPOS>BOND
     1    22    21    1
     2    21    23    2
     3    21    20    1
     4    23    24    1
     5    20    19    2
     6    24    18    2
     7    19    18    1
     8    18    16    1
     9    17    16    1
    10    16    13    1
    11     6     5    1
    12     6     7    1
    13    14    13    2
    14     8     7    2
    15     8     9    1
    16     5     4    1
    17    13     9    1
    18    13    15    2
    19     7    12    1
    20     9    10    2
    21     4     3    1
    22    12     3    1
    23    12    11    2
    24    10    11    1
    25     3     2   am
    26     2     1    2
    27     2    25    1
    28    31    25    2
    29    31    30    1
    30    25    26    1
    31    30    28    2
    32    26    27    2
    33    28    27    1
    34    28    29    1
