@<TRIPOS>MOLECULE
67288_out_ligand_01.pdbqt
 33 36 0 0 0
SMALL
GASTEIGER

@<TRIPOS>ATOM
      1  C         23.2760  -22.7420  -10.9200 C.2     1  UNL1        0.0800
      2  C         23.0480  -23.5270   -9.7940 C.2     1  UNL1        0.0270
      3  C         21.7570  -23.6150   -9.2640 C.2     1  UNL1        0.0320
      4  C         20.6680  -22.9500   -9.8530 C.2     1  UNL1        0.0430
      5  C         20.9150  -22.1820  -11.0160 C.2     1  UNL1       -0.0300
      6  C         22.2180  -22.0810  -11.5410 C.2     1  UNL1        0.0340
      7  C         19.8200  -21.4210  -11.7150 C.3     1  UNL1        0.0420
      8  C         18.4580  -21.9870  -11.3720 C.3     1  UNL1        0.0250
      9  C         18.3350  -22.1020   -9.8640 C.3     1  UNL1        0.1330
     10  N         19.3440  -22.9980   -9.2830 N.am    1  UNL1       -0.3130
     11  C         19.0020  -23.8760   -8.2380 C.2     1  UNL1        0.2580
     12  O         19.5910  -24.9100   -7.9330 O.2     1  UNL1       -0.2670
     13  S         24.9210  -22.5750  -11.5710 S.O2    1  UNL1        0.2630
     14  O         25.0410  -21.2700  -12.1830 O.2     1  UNL1       -0.2000
     15  O         25.8420  -23.0140  -10.5430 O.2     1  UNL1       -0.2000
     16  N         24.9680  -23.7620  -12.7780 N.pl3   1  UNL1       -0.2810
     17  H         24.1730  -24.3950  -12.7120 H       1  UNL1        0.1790
     18  C         25.4390  -23.4080  -14.0730 C.2     1  UNL1        0.0440
     19  C         26.6920  -22.8230  -14.2400 C.2     1  UNL1        0.0330
     20  C         27.1200  -22.4220  -15.5100 C.2     1  UNL1        0.0410
     21  C         26.2950  -22.5970  -16.6250 C.2     1  UNL1        0.0900
     22  C         25.0330  -23.1900  -16.4410 C.2     1  UNL1        0.0690
     23  C         24.6070  -23.5960  -15.1730 C.2     1  UNL1        0.0560
     24 CL         23.9470  -23.4300  -17.7670 Cl      1  UNL1       -0.0810
     25  O         26.6240  -22.2300  -17.9020 O.2     1  UNL1       -0.3540
     26  C         26.8610  -20.8520  -18.1530 C.3     1  UNL1        0.2100
     27  C         17.8120  -23.5530   -7.4120 C.2     1  UNL1        0.0320
     28  C         17.8890  -22.5840   -6.4020 C.2     1  UNL1        0.0200
     29  C         16.7640  -22.3130   -5.6210 C.2     1  UNL1        0.0430
     30  C         15.5850  -23.0200   -5.8440 C.2     1  UNL1        0.1160
     31  F         14.5100  -22.7560   -5.0920 F       1  UNL1       -0.2060
     32  C         15.5090  -24.0010   -6.8290 C.2     1  UNL1        0.0430
     33  C         16.6290  -24.2770   -7.6130 C.2     1  UNL1        0.0200
@<TRIPOS>BOND
     1    26    25    1
     2    25    21    1
     3    24    22    1
     4    21    22    2
     5    21    20    1
     6    22    23    1
     7    20    19    2
     8    23    18    2
     9    19    18    1
    10    18    16    1
    11    16    17    1
    12    16    13    1
    13    14    13    2
    14     7     8    1
    15     7     5    1
    16    13     1    1
    17    13    15    2
    18     6     5    1
    19     6     1    2
    20     8     9    1
    21     5     4    2
    22     1     2    1
    23     9    10    1
    24     4    10    1
    25     4     3    1
    26     2     3    2
    27    10    11   am
    28    11    12    2
    29    11    27    1
    30    33    27    2
    31    33    32    1
    32    27    28    1
    33    32    30    2
    34    28    29    2
    35    30    29    1
    36    30    31    1
