@<TRIPOS>MOLECULE
67284_out_ligand_01.pdbqt
 34 37 0 0 0
SMALL
GASTEIGER

@<TRIPOS>ATOM
      1  O         22.7020  -22.8970   -8.8980 O.2     1  UNL1       -0.2670
      2  C         22.5260  -22.5140  -10.0520 C.2     1  UNL1        0.2580
      3  N         21.2940  -22.1620  -10.6370 N.am    1  UNL1       -0.3130
      4  C         21.2560  -21.2990  -11.8280 C.3     1  UNL1        0.1330
      5  C         20.1090  -20.3060  -11.7990 C.3     1  UNL1        0.0250
      6  C         18.8010  -21.0660  -11.7430 C.3     1  UNL1        0.0420
      7  C         18.8170  -22.0760  -10.6250 C.2     1  UNL1       -0.0300
      8  C         17.5750  -22.5260  -10.1400 C.2     1  UNL1        0.0340
      9  C         17.5250  -23.4740   -9.1200 C.2     1  UNL1        0.0800
     10  C         18.7000  -23.9760   -8.5700 C.2     1  UNL1        0.0270
     11  C         19.9340  -23.5410   -9.0660 C.2     1  UNL1        0.0320
     12  C         20.0250  -22.5880  -10.0960 C.2     1  UNL1        0.0430
     13  S         15.9630  -24.0560   -8.5170 S.O2    1  UNL1        0.2630
     14  O         15.1110  -24.2790   -9.6660 O.2     1  UNL1       -0.2000
     15  O         16.1930  -25.1020   -7.5430 O.2     1  UNL1       -0.2000
     16  N         15.3420  -22.6920   -7.7300 N.pl3   1  UNL1       -0.2810
     17  H         14.3710  -22.5380   -7.9980 H       1  UNL1        0.1790
     18  C         15.6950  -22.4900   -6.3690 C.2     1  UNL1        0.0430
     19  C         14.8300  -22.9080   -5.3610 C.2     1  UNL1        0.0300
     20  C         15.1940  -22.7480   -4.0230 C.2     1  UNL1        0.0030
     21  C         16.4280  -22.1830   -3.6980 C.2     1  UNL1        0.0160
     22  C         17.3100  -21.7630   -4.7090 C.2     1  UNL1        0.0500
     23  C         16.9300  -21.9290   -6.0500 C.2     1  UNL1        0.0460
     24  C         18.6490  -21.1730   -4.3490 C.3     1  UNL1        0.4170
     25  F         19.6120  -21.4570   -5.2690 F       1  UNL1       -0.1660
     26  F         19.1370  -21.6130   -3.1540 F       1  UNL1       -0.1660
     27  F         18.6080  -19.8140   -4.2560 F       1  UNL1       -0.1660
     28  C         23.7540  -22.4100  -10.8790 C.2     1  UNL1        0.0320
     29  C         24.7110  -21.4180  -10.6180 C.2     1  UNL1        0.0200
     30  C         25.8430  -21.3230  -11.4300 C.2     1  UNL1        0.0430
     31  C         26.0020  -22.2040  -12.4960 C.2     1  UNL1        0.1160
     32  F         27.0890  -22.1070  -13.2730 F       1  UNL1       -0.2060
     33  C         25.0450  -23.1750  -12.7770 C.2     1  UNL1        0.0430
     34  C         23.9100  -23.2740  -11.9710 C.2     1  UNL1        0.0200
@<TRIPOS>BOND
     1    32    31    1
     2    33    31    2
     3    33    34    1
     4    31    30    1
     5    34    28    2
     6     4     5    1
     7     4     3    1
     8     5     6    1
     9     6     7    1
    10    30    29    2
    11    28    29    1
    12    28     2    1
    13     3    12    1
    14     3     2   am
    15     7     8    2
    16     7    12    1
    17     8     9    1
    18    12    11    2
    19     2     1    2
    20    14    13    2
    21     9    10    2
    22     9    13    1
    23    11    10    1
    24    13    16    1
    25    13    15    2
    26    17    16    1
    27    16    18    1
    28    18    23    2
    29    18    19    1
    30    23    22    1
    31    19    20    2
    32    25    24    1
    33    22    24    1
    34    22    21    2
    35    24    27    1
    36    24    26    1
    37    20    21    1
