@<TRIPOS>MOLECULE
67283_out_ligand_01.pdbqt
 32 35 0 0 0
SMALL
GASTEIGER

@<TRIPOS>ATOM
      1  O         22.8430  -22.7030   -8.8800 O.2     1  UNL1       -0.2670
      2  C         22.6370  -22.4120  -10.0560 C.2     1  UNL1        0.2580
      3  N         21.3930  -22.1080  -10.6370 N.am    1  UNL1       -0.3130
      4  C         21.3230  -21.3360  -11.8870 C.3     1  UNL1        0.1330
      5  C         20.1760  -20.3430  -11.9000 C.3     1  UNL1        0.0250
      6  C         18.8690  -21.0950  -11.7540 C.3     1  UNL1        0.0420
      7  C         18.9170  -22.0330  -10.5770 C.2     1  UNL1       -0.0300
      8  C         17.6890  -22.4660  -10.0430 C.2     1  UNL1        0.0340
      9  C         17.6660  -23.3620   -8.9760 C.2     1  UNL1        0.0800
     10  C         18.8560  -23.8060   -8.4100 C.2     1  UNL1        0.0270
     11  C         20.0760  -23.3870   -8.9510 C.2     1  UNL1        0.0320
     12  C         20.1380  -22.5030  -10.0410 C.2     1  UNL1        0.0430
     13  S         16.1080  -23.9330   -8.3390 S.O2    1  UNL1        0.2630
     14  O         16.3770  -25.0580   -7.4680 O.2     1  UNL1       -0.2000
     15  O         15.1810  -24.0420   -9.4450 O.2     1  UNL1       -0.2000
     16  N         15.6200  -22.6600   -7.3290 N.pl3   1  UNL1       -0.2790
     17  H         14.6890  -22.3310   -7.5950 H       1  UNL1        0.1790
     18  C         15.8640  -22.7760   -5.9200 C.2     1  UNL1        0.0660
     19  C         14.9340  -23.4400   -5.1170 C.2     1  UNL1        0.0320
     20  C         15.1240  -23.5190   -3.7380 C.2     1  UNL1        0.0040
     21  C         16.2460  -22.9320   -3.1550 C.2     1  UNL1        0.0260
     22  C         17.1890  -22.2710   -3.9500 C.2     1  UNL1        0.0580
     23 CL         18.5520  -21.5680   -3.1530 Cl      1  UNL1       -0.0820
     24  C         17.0070  -22.1940   -5.3370 C.2     1  UNL1        0.0830
     25 CL         18.1620  -21.3920   -6.3560 Cl      1  UNL1       -0.0800
     26  C         23.8430  -22.3780  -10.9200 C.2     1  UNL1        0.0320
     27  C         23.9380  -23.2810  -11.9870 C.2     1  UNL1        0.0200
     28  C         25.0540  -23.2460  -12.8240 C.2     1  UNL1        0.0430
     29  C         26.0520  -22.3010  -12.5970 C.2     1  UNL1        0.1160
     30  F         27.1210  -22.2690  -13.4020 F       1  UNL1       -0.2060
     31  C         25.9540  -21.3850  -11.5550 C.2     1  UNL1        0.0430
     32  C         24.8410  -21.4150  -10.7140 C.2     1  UNL1        0.0200
@<TRIPOS>BOND
     1    30    29    1
     2    28    29    2
     3    28    27    1
     4    29    31    1
     5    27    26    2
     6     5     4    1
     7     5     6    1
     8     4     3    1
     9     6     7    1
    10    31    32    2
    11    26    32    1
    12    26     2    1
    13     3     2   am
    14     3    12    1
    15     7     8    2
    16     7    12    1
    17     2     1    2
    18     8     9    1
    19    12    11    2
    20    15    13    2
    21     9    10    2
    22     9    13    1
    23    11    10    1
    24    13    14    2
    25    13    16    1
    26    17    16    1
    27    16    18    1
    28    25    24    1
    29    18    24    2
    30    18    19    1
    31    24    22    1
    32    19    20    2
    33    22    21    2
    34    22    23    1
    35    20    21    1
