@<TRIPOS>MOLECULE
67290_out_ligand_01.pdbqt
 33 36 0 0 0
SMALL
GASTEIGER

@<TRIPOS>ATOM
      1  C         17.5450  -23.1350   -9.6570 C.2     1  UNL1        0.0800
      2  C         17.7500  -22.2910  -10.7440 C.2     1  UNL1        0.0270
      3  C         19.0500  -22.0690  -11.2120 C.2     1  UNL1        0.0320
      4  C         20.1690  -22.6600  -10.5990 C.2     1  UNL1        0.0430
      5  C         19.9400  -23.4960   -9.4820 C.2     1  UNL1       -0.0300
      6  C         18.6310  -23.7290   -9.0190 C.2     1  UNL1        0.0340
      7  C         21.0620  -24.1980   -8.7630 C.3     1  UNL1        0.0420
      8  C         22.3770  -23.4850   -8.9960 C.3     1  UNL1        0.0250
      9  C         22.5730  -23.2840  -10.4860 C.3     1  UNL1        0.1330
     10  N         21.5110  -22.4690  -11.0990 N.am    1  UNL1       -0.3130
     11  C         21.8200  -21.5340  -12.1060 C.2     1  UNL1        0.2580
     12  O         21.1350  -20.5740  -12.4490 O.2     1  UNL1       -0.2670
     13  S         15.8930  -23.4370   -9.0800 S.O2    1  UNL1        0.2630
     14  O         15.2560  -22.1660   -8.8140 O.2     1  UNL1       -0.2000
     15  O         15.2900  -24.4010   -9.9760 O.2     1  UNL1       -0.2000
     16  N         16.1330  -24.2500   -7.6270 N.pl3   1  UNL1       -0.2810
     17  H         16.6480  -25.1200   -7.7610 H       1  UNL1        0.1790
     18  C         16.2130  -23.5950   -6.3650 C.2     1  UNL1        0.0430
     19  C         15.1100  -23.7080   -5.5130 C.2     1  UNL1        0.0300
     20  C         15.1010  -23.0700   -4.2700 C.2     1  UNL1        0.0030
     21  C         16.1930  -22.3010   -3.8730 C.2     1  UNL1        0.0150
     22  C         17.2860  -22.1560   -4.7320 C.2     1  UNL1        0.0110
     23  C         17.2840  -22.7860   -5.9840 C.2     1  UNL1        0.0450
     24  C         18.4870  -21.3650   -4.3410 C.2     1  UNL1        0.1550
     25  C         19.2920  -20.6880   -5.4180 C.3     1  UNL1        0.0960
     26  O         18.7820  -21.2590   -3.1530 O.2     1  UNL1       -0.2930
     27  C         23.0990  -21.6910  -12.8410 C.2     1  UNL1        0.0320
     28  C         24.2860  -21.8370  -12.1140 C.2     1  UNL1        0.0200
     29  C         25.5010  -21.9600  -12.7890 C.2     1  UNL1        0.0430
     30  C         25.5180  -21.9200  -14.1810 C.2     1  UNL1        0.1160
     31  F         26.6840  -22.0360  -14.8290 F       1  UNL1       -0.2060
     32  C         24.3450  -21.7490  -14.9130 C.2     1  UNL1        0.0430
     33  C         23.1280  -21.6260  -14.2420 C.2     1  UNL1        0.0200
@<TRIPOS>BOND
     1    32    33    1
     2    32    30    2
     3    31    30    1
     4    33    27    2
     5    30    29    1
     6    27    28    1
     7    27    11    1
     8    29    28    2
     9    12    11    2
    10    11    10   am
    11     3     2    1
    12     3     4    2
    13    10     4    1
    14    10     9    1
    15     2     1    2
    16     4     5    1
    17     9     8    1
    18    15    13    2
    19     1    13    1
    20     1     6    1
    21     5     6    2
    22     5     7    1
    23    13    14    2
    24    13    16    1
    25     8     7    1
    26    17    16    1
    27    16    18    1
    28    18    23    2
    29    18    19    1
    30    23    22    1
    31    19    20    2
    32    25    24    1
    33    22    24    1
    34    22    21    2
    35    24    26    2
    36    20    21    1
