@<TRIPOS>MOLECULE
67293_out_ligand_01.pdbqt
 30 32 0 0 0
SMALL
GASTEIGER

@<TRIPOS>ATOM
      1  N         21.7040  -23.8210   -8.8480 N.am    1  UNL1       -0.3560
      2  C         20.9690  -22.8870   -8.1380 C.2     1  UNL1        0.2310
      3  O         21.5000  -21.9550   -7.5370 O.2     1  UNL1       -0.2720
      4  H         21.2150  -24.5120   -9.4020 H       1  UNL1        0.1620
      5  C         23.1220  -23.6670   -9.0650 C.3     1  UNL1        0.1610
      6  C         23.3750  -23.0030  -10.3960 C.2     1  UNL1       -0.0400
      7  C         22.3320  -22.8380  -11.3210 C.2     1  UNL1        0.0100
      8  C         22.5590  -22.1820  -12.5320 C.2     1  UNL1        0.0250
      9  C         23.8360  -21.6950  -12.8230 C.2     1  UNL1        0.0740
     10  C         24.8800  -21.8310  -11.9050 C.2     1  UNL1        0.0250
     11  C         24.6440  -22.4840  -10.6930 C.2     1  UNL1        0.0100
     12  S         24.1040  -20.8490  -14.3570 S.O2    1  UNL1        0.2390
     13  O         25.1550  -19.8780  -14.1630 O.2     1  UNL1       -0.2060
     14  O         24.1370  -21.8260  -15.4230 O.2     1  UNL1       -0.2060
     15  N         22.6500  -20.0210  -14.5480 N.3     1  UNL1       -0.2250
     16  H         22.6820  -19.1680  -13.9860 H       1  UNL1        0.1360
     17  H         22.4290  -19.8140  -15.5210 H       1  UNL1        0.1360
     18  C         19.4430  -23.1340   -8.1680 C.3     1  UNL1        0.1430
     19  C         18.8390  -22.9050   -6.7830 C.2     1  UNL1       -0.0410
     20  C         18.9800  -21.6730   -6.1190 C.2     1  UNL1        0.0080
     21  C         18.4130  -21.4770   -4.8590 C.2     1  UNL1        0.0010
     22  C         17.6990  -22.5040   -4.2460 C.2     1  UNL1        0.0000
     23  C         17.5400  -23.7280   -4.8960 C.2     1  UNL1        0.0010
     24  C         18.1040  -23.9280   -6.1570 C.2     1  UNL1        0.0080
     25  C         18.7500  -22.4280   -9.3360 C.2     1  UNL1       -0.0410
     26  C         17.3410  -22.4050   -9.3790 C.2     1  UNL1        0.0080
     27  C         16.6600  -21.7390  -10.4020 C.2     1  UNL1        0.0010
     28  C         17.3720  -21.0740  -11.3970 C.2     1  UNL1        0.0000
     29  C         18.7640  -21.0770  -11.3700 C.2     1  UNL1        0.0010
     30  C         19.4470  -21.7440  -10.3460 C.2     1  UNL1        0.0080
@<TRIPOS>BOND
     1    17    15    1
     2    14    12    2
     3    15    12    1
     4    15    16    1
     5    12    13    2
     6    12     9    1
     7     9     8    2
     8     9    10    1
     9     8     7    1
    10    10    11    2
    11    28    29    2
    12    28    27    1
    13    29    30    1
    14     7     6    2
    15    11     6    1
    16    27    26    2
    17     6     5    1
    18    30    25    2
    19     4     1    1
    20    26    25    1
    21    25    18    1
    22     5     1    1
    23     1     2   am
    24    18     2    1
    25    18    19    1
    26     2     3    2
    27    19    24    2
    28    19    20    1
    29    24    23    1
    30    20    21    2
    31    23    22    2
    32    21    22    1
