@<TRIPOS>MOLECULE
67296_out_ligand_01.pdbqt
 31 34 0 0 0
SMALL
GASTEIGER

@<TRIPOS>ATOM
      1  O         21.5220  -21.5070  -12.8770 O.2     1  UNL1       -0.2670
      2  C         22.3160  -21.9260  -12.0380 C.2     1  UNL1        0.2580
      3  N         22.0370  -22.1960  -10.6850 N.am    1  UNL1       -0.3130
      4  C         23.1220  -22.2360   -9.6930 C.3     1  UNL1        0.1330
      5  C         22.7280  -21.6120   -8.3670 C.3     1  UNL1        0.0250
      6  C         21.5560  -22.3760   -7.7910 C.3     1  UNL1        0.0420
      7  C         20.4540  -22.5180   -8.8070 C.2     1  UNL1       -0.0300
      8  C         19.1590  -22.7930   -8.3270 C.2     1  UNL1        0.0340
      9  C         18.1040  -22.9700   -9.2180 C.2     1  UNL1        0.0800
     10  C         18.3150  -22.8470  -10.5870 C.2     1  UNL1        0.0270
     11  C         19.6040  -22.5860  -11.0660 C.2     1  UNL1        0.0320
     12  C         20.6970  -22.4190  -10.1970 C.2     1  UNL1        0.0430
     13  S         16.4780  -23.3540   -8.6090 S.O2    1  UNL1        0.2630
     14  O         16.5950  -24.5100   -7.7450 O.2     1  UNL1       -0.2000
     15  O         15.5620  -23.3410   -9.7290 O.2     1  UNL1       -0.2000
     16  N         16.1430  -22.0390   -7.5940 N.pl3   1  UNL1       -0.2810
     17  H         15.4170  -21.4420   -7.9870 H       1  UNL1        0.1790
     18  C         16.1500  -22.2440   -6.1850 C.2     1  UNL1        0.0440
     19  C         15.0030  -22.6990   -5.5330 C.2     1  UNL1        0.0300
     20  C         14.9980  -22.8420   -4.1450 C.2     1  UNL1        0.0040
     21  C         16.1380  -22.5200   -3.4090 C.2     1  UNL1        0.0240
     22  C         17.2790  -22.0610   -4.0670 C.2     1  UNL1        0.0360
     23 CL         18.6790  -21.6450   -3.1570 Cl      1  UNL1       -0.0840
     24  C         17.2930  -21.9230   -5.4550 C.2     1  UNL1        0.0540
     25  C         23.6970  -22.1470  -12.5290 C.2     1  UNL1        0.0340
     26  C         24.1940  -23.4550  -12.5940 C.2     1  UNL1        0.0170
     27  C         25.4990  -23.6800  -13.0310 C.2     1  UNL1        0.0030
     28  C         26.3100  -22.6000  -13.3870 C.2     1  UNL1        0.0240
     29  C         25.8160  -21.2980  -13.2940 C.2     1  UNL1        0.0350
     30 CL         26.8240  -19.9710  -13.7210 Cl      1  UNL1       -0.0840
     31  C         24.5150  -21.0610  -12.8570 C.2     1  UNL1        0.0410
@<TRIPOS>BOND
     1    30    29    1
     2    28    29    2
     3    28    27    1
     4    29    31    1
     5    27    26    2
     6     1     2    2
     7    31    25    2
     8    26    25    1
     9    25     2    1
    10     2     3   am
    11    11    10    2
    12    11    12    1
    13     3    12    1
    14     3     4    1
    15    10     9    1
    16    12     7    2
    17    15    13    2
    18     4     5    1
    19     9    13    1
    20     9     8    2
    21     7     8    1
    22     7     6    1
    23    13    14    2
    24    13    16    1
    25     5     6    1
    26    17    16    1
    27    16    18    1
    28    18    19    2
    29    18    24    1
    30    19    20    1
    31    24    22    2
    32    20    21    2
    33    22    21    1
    34    22    23    1
