@<TRIPOS>MOLECULE
67297_out_ligand_01.pdbqt
 31 34 0 0 0
SMALL
GASTEIGER

@<TRIPOS>ATOM
      1  O         19.0490  -21.3210   -5.8460 O.2     1  UNL1       -0.2670
      2  C         18.3380  -22.0410   -6.5400 C.2     1  UNL1        0.2580
      3  N         18.5960  -22.4550   -7.8600 N.am    1  UNL1       -0.3130
      4  C         17.5000  -22.9170   -8.7260 C.3     1  UNL1        0.1330
      5  C         17.6510  -22.4550  -10.1620 C.3     1  UNL1        0.0250
      6  C         18.9420  -23.0090  -10.7260 C.3     1  UNL1        0.0420
      7  C         20.1010  -22.7090   -9.8120 C.2     1  UNL1       -0.0300
      8  C         21.3930  -22.7490  -10.3700 C.2     1  UNL1        0.0340
      9  C         22.5080  -22.5160   -9.5680 C.2     1  UNL1        0.0800
     10  C         22.3520  -22.2110   -8.2220 C.2     1  UNL1        0.0270
     11  C         21.0680  -22.1810   -7.6660 C.2     1  UNL1        0.0320
     12  C         19.9200  -22.4320   -8.4380 C.2     1  UNL1        0.0430
     13  S         24.1410  -22.6190  -10.2650 S.O2    1  UNL1        0.2630
     14  O         24.6520  -21.2730  -10.4190 O.2     1  UNL1       -0.2000
     15  O         24.8730  -23.6230   -9.5220 O.2     1  UNL1       -0.2000
     16  N         23.8490  -23.2860  -11.7960 N.pl3   1  UNL1       -0.2810
     17  H         23.0130  -23.8660  -11.7940 H       1  UNL1        0.1790
     18  C         24.0980  -22.4810  -12.9440 C.2     1  UNL1        0.0430
     19  C         23.1800  -21.5030  -13.3300 C.2     1  UNL1        0.0300
     20  C         23.3950  -20.7640  -14.4930 C.2     1  UNL1        0.0040
     21  C         24.5230  -21.0100  -15.2770 C.2     1  UNL1        0.0190
     22  C         25.4320  -21.9940  -14.8890 C.2     1  UNL1        0.0130
     23 BR         26.9430  -22.3510  -15.9680 Br      1  UNL1       -0.0510
     24  C         25.2290  -22.7300  -13.7220 C.2     1  UNL1        0.0490
     25  C         17.0830  -22.4970   -5.8960 C.2     1  UNL1        0.0340
     26  C         17.0930  -23.5910   -5.0190 C.2     1  UNL1        0.0170
     27  C         15.9070  -23.9910   -4.4010 C.2     1  UNL1        0.0030
     28  C         14.7240  -23.2930   -4.6490 C.2     1  UNL1        0.0240
     29  C         14.7290  -22.1890   -5.5050 C.2     1  UNL1        0.0350
     30 CL         13.2680  -21.3290   -5.7930 Cl      1  UNL1       -0.0840
     31  C         15.9060  -21.7800   -6.1260 C.2     1  UNL1        0.0410
@<TRIPOS>BOND
     1    23    22    1
     2    21    22    2
     3    21    20    1
     4    22    24    1
     5    20    19    2
     6    24    18    2
     7    19    18    1
     8    18    16    1
     9    16    17    1
    10    16    13    1
    11     6     5    1
    12     6     7    1
    13    14    13    2
    14     8     7    2
    15     8     9    1
    16    13     9    1
    17    13    15    2
    18     5     4    1
    19     7    12    1
    20     9    10    2
    21     4     3    1
    22    12     3    1
    23    12    11    2
    24    10    11    1
    25     3     2   am
    26     2    25    1
    27     2     1    2
    28    31    25    2
    29    31    29    1
    30    25    26    1
    31    30    29    1
    32    29    28    2
    33    26    27    2
    34    28    27    1
