@<TRIPOS>MOLECULE
67298_out_ligand_01.pdbqt
 31 34 0 0 0
SMALL
GASTEIGER

@<TRIPOS>ATOM
      1  O         19.2450  -24.9550   -7.6560 O.2     1  UNL1       -0.2670
      2  C         18.5460  -23.9610   -7.8370 C.2     1  UNL1        0.2580
      3  N         18.6800  -23.0180   -8.8730 N.am    1  UNL1       -0.3130
      4  C         17.5480  -22.1580   -9.2490 C.3     1  UNL1        0.1330
      5  C         17.4420  -21.9470  -10.7480 C.3     1  UNL1        0.0250
      6  C         18.7080  -21.2800  -11.2440 C.3     1  UNL1        0.0420
      7  C         19.9280  -22.0250  -10.7710 C.2     1  UNL1       -0.0300
      8  C         21.1230  -21.8340  -11.4890 C.2     1  UNL1        0.0340
      9  C         22.2910  -22.4810  -11.0900 C.2     1  UNL1        0.0800
     10  C         22.2810  -23.3250   -9.9860 C.2     1  UNL1        0.0270
     11  C         21.0950  -23.5030   -9.2630 C.2     1  UNL1        0.0320
     12  C         19.8980  -22.8660   -9.6330 C.2     1  UNL1        0.0430
     13  S         23.7930  -22.2450  -12.0010 S.O2    1  UNL1        0.2630
     14  O         24.2840  -23.5340  -12.4420 O.2     1  UNL1       -0.2000
     15  O         24.6340  -21.3510  -11.2320 O.2     1  UNL1       -0.2000
     16  N         23.2740  -21.3550  -13.3440 N.pl3   1  UNL1       -0.2810
     17  H         22.7240  -20.5490  -13.0480 H       1  UNL1        0.1790
     18  C         24.1920  -21.1710  -14.4120 C.2     1  UNL1        0.0420
     19  C         25.0620  -20.0800  -14.3910 C.2     1  UNL1        0.0310
     20  C         25.9400  -19.8700  -15.4550 C.2     1  UNL1        0.0210
     21  C         25.9360  -20.7490  -16.5380 C.2     1  UNL1        0.0110
     22 BR         27.1210  -20.4620  -17.9820 Br      1  UNL1       -0.0510
     23  C         25.0620  -21.8350  -16.5650 C.2     1  UNL1        0.0210
     24  C         24.1850  -22.0460  -15.4990 C.2     1  UNL1        0.0310
     25  C         17.4530  -23.7730   -6.8540 C.2     1  UNL1        0.0340
     26  C         16.1470  -24.1760   -7.1580 C.2     1  UNL1        0.0170
     27  C         15.1250  -23.9680   -6.2310 C.2     1  UNL1        0.0030
     28  C         15.4080  -23.3460   -5.0130 C.2     1  UNL1        0.0240
     29  C         16.7080  -22.9240   -4.7300 C.2     1  UNL1        0.0350
     30 CL         17.0420  -22.1470   -3.2300 Cl      1  UNL1       -0.0840
     31  C         17.7350  -23.1250   -5.6470 C.2     1  UNL1        0.0410
@<TRIPOS>BOND
     1    22    21    1
     2    23    21    2
     3    23    24    1
     4    21    20    1
     5    24    18    2
     6    20    19    2
     7    18    19    1
     8    18    16    1
     9    16    17    1
    10    16    13    1
    11    14    13    2
    12    13    15    2
    13    13     9    1
    14     8     9    1
    15     8     7    2
    16     6     7    1
    17     6     5    1
    18     9    10    2
    19     7    12    1
    20     5     4    1
    21    10    11    1
    22    12    11    2
    23    12     3    1
    24     4     3    1
    25     3     2   am
    26     2     1    2
    27     2    25    1
    28    26    25    2
    29    26    27    1
    30    25    31    1
    31    27    28    2
    32    31    29    2
    33    28    29    1
    34    29    30    1
