@<TRIPOS>MOLECULE
67291_out_ligand_01.pdbqt
 33 36 0 0 0
SMALL
GASTEIGER

@<TRIPOS>ATOM
      1  O         22.6710  -22.9130   -8.8990 O.2     1  UNL1       -0.2670
      2  C         22.5070  -22.5270  -10.0530 C.2     1  UNL1        0.2580
      3  N         21.2810  -22.1850  -10.6560 N.am    1  UNL1       -0.3130
      4  C         21.2500  -21.3240  -11.8480 C.3     1  UNL1        0.1330
      5  C         20.1020  -20.3330  -11.8290 C.3     1  UNL1        0.0250
      6  C         18.7940  -21.0930  -11.7800 C.3     1  UNL1        0.0420
      7  C         18.8030  -22.1050  -10.6630 C.2     1  UNL1       -0.0300
      8  C         17.5570  -22.5510  -10.1810 C.2     1  UNL1        0.0340
      9  C         17.5010  -23.4920   -9.1560 C.2     1  UNL1        0.0800
     10  C         18.6720  -23.9960   -8.6020 C.2     1  UNL1        0.0270
     11  C         19.9100  -23.5670   -9.0950 C.2     1  UNL1        0.0320
     12  C         20.0080  -22.6150  -10.1250 C.2     1  UNL1        0.0430
     13  S         15.9350  -24.0460   -8.5370 S.O2    1  UNL1        0.2630
     14  O         16.1550  -25.1160   -7.5890 O.2     1  UNL1       -0.2000
     15  O         15.0550  -24.2160   -9.6740 O.2     1  UNL1       -0.2000
     16  N         15.3640  -22.6830   -7.7060 N.pl3   1  UNL1       -0.2810
     17  H         14.3950  -22.4950   -7.9640 H       1  UNL1        0.1790
     18  C         15.7290  -22.5450   -6.3390 C.2     1  UNL1        0.0450
     19  C         14.8220  -22.9110   -5.3420 C.2     1  UNL1        0.0300
     20  C         15.1480  -22.7300   -3.9970 C.2     1  UNL1        0.0050
     21  C         16.3770  -22.1720   -3.6460 C.2     1  UNL1        0.0360
     22  C         17.2770  -21.7980   -4.6540 C.2     1  UNL1        0.1050
     23  C         16.9580  -21.9790   -6.0060 C.2     1  UNL1        0.0660
     24  N         18.5700  -21.2080   -4.2900 N.pl3   1  UNL1       -0.1160
     25  O         19.1500  -20.5210   -5.1420 O.2     1  UNL1       -0.5320
     26  O         19.0080  -21.4400   -3.1540 O.2     1  UNL1       -0.5320
     27  C         23.7450  -22.4080  -10.8630 C.2     1  UNL1        0.0320
     28  C         24.6860  -21.4060  -10.5870 C.2     1  UNL1        0.0200
     29  C         25.8320  -21.3010  -11.3770 C.2     1  UNL1        0.0430
     30  C         26.0190  -22.1820  -12.4390 C.2     1  UNL1        0.1160
     31  F         27.1210  -22.0790  -13.1930 F       1  UNL1       -0.2060
     32  C         25.0780  -23.1660  -12.7340 C.2     1  UNL1        0.0430
     33  C         23.9300  -23.2750  -11.9480 C.2     1  UNL1        0.0200
@<TRIPOS>BOND
     1    31    30    1
     2    32    30    2
     3    32    33    1
     4    30    29    1
     5    33    27    2
     6     4     5    1
     7     4     3    1
     8     5     6    1
     9     6     7    1
    10    29    28    2
    11    27    28    1
    12    27     2    1
    13     7     8    2
    14     7    12    1
    15     3    12    1
    16     3     2   am
    17     8     9    1
    18    12    11    2
    19     2     1    2
    20    15    13    2
    21     9    10    2
    22     9    13    1
    23    11    10    1
    24    13    16    1
    25    13    14    2
    26    17    16    1
    27    16    18    1
    28    18    23    2
    29    18    19    1
    30    23    22    1
    31    19    20    2
    32    25    24    2
    33    22    24    1
    34    22    21    2
    35    24    26    2
    36    20    21    1
