@<TRIPOS>MOLECULE
67299_out_ligand_01.pdbqt
 32 35 0 0 0
SMALL
GASTEIGER

@<TRIPOS>ATOM
      1  C         22.9460  -22.4110  -11.1360 C.2     1  UNL1        0.0800
      2  C         22.8490  -23.2360  -10.0220 C.2     1  UNL1        0.0270
      3  C         21.6060  -23.4160   -9.4020 C.2     1  UNL1        0.0320
      4  C         20.4400  -22.8040   -9.8920 C.2     1  UNL1        0.0430
      5  C         20.5560  -21.9920  -11.0450 C.2     1  UNL1       -0.0300
      6  C         21.8090  -21.7980  -11.6580 C.2     1  UNL1        0.0340
      7  C         19.3700  -21.2820  -11.6430 C.3     1  UNL1        0.0420
      8  C         18.0740  -21.9450  -11.2280 C.3     1  UNL1        0.0250
      9  C         18.0620  -22.1080   -9.7190 C.3     1  UNL1        0.1330
     10  N         19.1640  -22.9510   -9.2330 N.am    1  UNL1       -0.3130
     11  C         18.9520  -23.8730   -8.1910 C.2     1  UNL1        0.2580
     12  O         19.6290  -24.8710   -7.9520 O.2     1  UNL1       -0.2670
     13  S         24.5250  -22.1410  -11.9080 S.O2    1  UNL1        0.2630
     14  O         25.0400  -23.4340  -12.3070 O.2     1  UNL1       -0.2000
     15  O         25.2960  -21.2490  -11.0700 O.2     1  UNL1       -0.2000
     16  N         24.1100  -21.3430  -13.3430 N.pl3   1  UNL1       -0.2810
     17  H         23.7940  -20.3900  -13.1660 H       1  UNL1        0.1790
     18  C         24.8780  -21.5900  -14.5150 C.2     1  UNL1        0.0440
     19  C         26.1620  -21.0660  -14.6480 C.2     1  UNL1        0.0310
     20  C         26.8810  -21.2690  -15.8280 C.2     1  UNL1        0.0110
     21  C         26.3230  -21.9960  -16.8910 C.2     1  UNL1       -0.0400
     22  C         27.1170  -22.1890  -18.1520 C.3     1  UNL1        0.0500
     23  C         25.0280  -22.5170  -16.7410 C.2     1  UNL1        0.0420
     24  C         24.3100  -22.3190  -15.5570 C.2     1  UNL1        0.0540
     25 CL         24.2610  -23.4100  -18.0050 Cl      1  UNL1       -0.0840
     26  C         17.8000  -23.6550   -7.2840 C.2     1  UNL1        0.0340
     27  C         16.5460  -24.1630   -7.6430 C.2     1  UNL1        0.0170
     28  C         15.4570  -23.9880   -6.7910 C.2     1  UNL1        0.0030
     29  C         15.6230  -23.3200   -5.5770 C.2     1  UNL1        0.0240
     30  C         16.8830  -22.8390   -5.2130 C.2     1  UNL1        0.0350
     31 CL         17.0850  -22.0280   -3.7100 Cl      1  UNL1       -0.0840
     32  C         17.9780  -23.0080   -6.0560 C.2     1  UNL1        0.0410
@<TRIPOS>BOND
     1    22    21    1
     2    25    23    1
     3    21    23    2
     4    21    20    1
     5    23    24    1
     6    20    19    2
     7    24    18    2
     8    19    18    1
     9    18    16    1
    10    16    17    1
    11    16    13    1
    12    14    13    2
    13    13     1    1
    14    13    15    2
    15     6     1    2
    16     6     5    1
    17     7     8    1
    18     7     5    1
    19     8     9    1
    20     1     2    1
    21     5     4    2
    22     2     3    2
    23     4     3    1
    24     4    10    1
    25     9    10    1
    26    10    11   am
    27    11    12    2
    28    11    26    1
    29    27    26    2
    30    27    28    1
    31    26    32    1
    32    28    29    2
    33    32    30    2
    34    29    30    1
    35    30    31    1
