@<TRIPOS>MOLECULE
67309_out_ligand_01.pdbqt
 30 33 0 0 0
SMALL
GASTEIGER

@<TRIPOS>ATOM
      1  O         19.9030  -21.9530   -6.7480 O.2     1  UNL1       -0.2670
      2  C         19.1730  -22.3360   -7.6590 C.2     1  UNL1        0.2580
      3  N         19.4460  -22.2630   -9.0380 N.am    1  UNL1       -0.3130
      4  C         18.3520  -22.3050  -10.0200 C.3     1  UNL1        0.1330
      5  C         18.5670  -21.3510  -11.1790 C.3     1  UNL1        0.0250
      6  C         19.8410  -21.7330  -11.9030 C.3     1  UNL1        0.0420
      7  C         20.9890  -21.8620  -10.9360 C.2     1  UNL1       -0.0300
      8  C         22.2920  -21.7590  -11.4590 C.2     1  UNL1        0.0340
      9  C         23.3960  -21.8880  -10.6180 C.2     1  UNL1        0.0800
     10  C         23.2170  -22.1100   -9.2570 C.2     1  UNL1        0.0270
     11  C         21.9220  -22.2280   -8.7410 C.2     1  UNL1        0.0320
     12  C         20.7840  -22.1070   -9.5580 C.2     1  UNL1        0.0430
     13  S         25.0400  -21.7470  -11.2700 S.O2    1  UNL1        0.2580
     14  O         25.6800  -23.0370  -11.1460 O.2     1  UNL1       -0.2010
     15  O         25.6410  -20.5410  -10.7450 O.2     1  UNL1       -0.2010
     16  N         24.7660  -21.5100  -12.8980 N.3     1  UNL1       -0.3130
     17  H         24.3390  -20.6240  -13.1560 H       1  UNL1        0.1720
     18  C         25.4680  -22.3100  -13.9020 C.3     1  UNL1        0.1640
     19  C         24.6250  -22.4420  -15.1700 C.3     1  UNL1        0.1400
     20  C         24.9460  -23.6740  -16.0040 C.3     1  UNL1        0.0350
     21  C         24.4970  -23.2360  -17.3750 C.3     1  UNL1        0.0290
     22  C         24.9150  -21.7810  -17.3900 C.3     1  UNL1        0.1680
     23  O         24.8480  -21.3100  -16.0340 O.3     1  UNL1       -0.3840
     24  C         17.8790  -22.9200   -7.2290 C.2     1  UNL1        0.0340
     25  C         17.6780  -24.2990   -7.3630 C.2     1  UNL1        0.0170
     26  C         16.4590  -24.8620   -6.9860 C.2     1  UNL1        0.0030
     27  C         15.4400  -24.0460   -6.4890 C.2     1  UNL1        0.0240
     28  C         15.6400  -22.6690   -6.3820 C.2     1  UNL1        0.0350
     29 CL         14.3750  -21.6680   -5.7830 Cl      1  UNL1       -0.0840
     30  C         16.8520  -22.0960   -6.7580 C.2     1  UNL1        0.0410
@<TRIPOS>BOND
     1    22    21    1
     2    22    23    1
     3    21    20    1
     4    23    19    1
     5    20    19    1
     6    19    18    1
     7    18    16    1
     8    17    16    1
     9    16    13    1
    10     6     5    1
    11     6     7    1
    12     8     7    2
    13     8     9    1
    14    13    14    2
    15    13    15    2
    16    13     9    1
    17     5     4    1
    18     7    12    1
    19     9    10    2
    20     4     3    1
    21    12     3    1
    22    12    11    2
    23    10    11    1
    24     3     2   am
    25     2    24    1
    26     2     1    2
    27    25    24    2
    28    25    26    1
    29    24    30    1
    30    26    27    2
    31    30    28    2
    32    27    28    1
    33    28    29    1
