@<TRIPOS>MOLECULE
67302_out_ligand_01.pdbqt
 29 31 0 0 0
SMALL
GASTEIGER

@<TRIPOS>ATOM
      1  C         18.2350  -23.5940   -8.2290 C.2     1  UNL1        0.0800
      2  C         19.5270  -23.9050   -7.8210 C.2     1  UNL1        0.0270
      3  C         20.6180  -23.4610   -8.5780 C.2     1  UNL1        0.0320
      4  C         20.4460  -22.6850   -9.7380 C.2     1  UNL1        0.0430
      5  C         19.1230  -22.3670  -10.1260 C.2     1  UNL1       -0.0300
      6  C         18.0260  -22.8290   -9.3740 C.2     1  UNL1        0.0340
      7  C         18.8280  -21.5570  -11.3610 C.3     1  UNL1        0.0420
      8  C         20.0260  -20.7190  -11.7570 C.3     1  UNL1        0.0250
      9  C         21.2510  -21.6100  -11.8280 C.3     1  UNL1        0.1330
     10  N         21.5640  -22.2500  -10.5420 N.am    1  UNL1       -0.3130
     11  C         22.9000  -22.3900  -10.1210 C.2     1  UNL1        0.2580
     12  O         23.2910  -22.5520   -8.9670 O.2     1  UNL1       -0.2670
     13  S         16.8570  -24.1740   -7.2760 S.O2    1  UNL1        0.2590
     14  O         17.3170  -25.1990   -6.3660 O.2     1  UNL1       -0.2010
     15  O         15.7550  -24.3980   -8.1850 O.2     1  UNL1       -0.2010
     16  N         16.4640  -22.8190   -6.3800 N.3     1  UNL1       -0.3110
     17  H         15.9890  -22.0780   -6.8880 H       1  UNL1        0.1720
     18  C         16.4290  -22.8650   -4.9150 C.3     1  UNL1        0.0890
     19  C         15.1070  -22.2670   -4.4460 C.3     1  UNL1        0.0330
     20  C         17.6530  -22.0960   -4.3960 C.3     1  UNL1        0.0250
     21  C         18.4630  -21.4270   -5.5080 C.3     1  UNL1       -0.0020
     22  C         19.2080  -20.2050   -4.9940 C.3     1  UNL1        0.0050
     23  C         23.9700  -22.3290  -11.1470 C.2     1  UNL1        0.0320
     24  C         24.9490  -21.3320  -11.0480 C.2     1  UNL1        0.0200
     25  C         25.9750  -21.2750  -11.9920 C.2     1  UNL1        0.0430
     26  C         26.0220  -22.2220  -13.0120 C.2     1  UNL1        0.1160
     27  F         27.0080  -22.1670  -13.9160 F       1  UNL1       -0.2060
     28  C         25.0670  -23.2320  -13.1030 C.2     1  UNL1        0.0430
     29  C         24.0390  -23.2940  -12.1630 C.2     1  UNL1        0.0200
@<TRIPOS>BOND
     1    27    26    1
     2    28    26    2
     3    28    29    1
     4    26    25    1
     5    29    23    2
     6    25    24    2
     7     9     8    1
     8     9    10    1
     9     8     7    1
    10     7     5    1
    11    23    24    1
    12    23    11    1
    13    10    11   am
    14    10     4    1
    15     5     4    2
    16     5     6    1
    17    11    12    2
    18     4     3    1
    19     6     1    2
    20     3     2    2
    21     1     2    1
    22     1    13    1
    23    15    13    2
    24    13    16    1
    25    13    14    2
    26    17    16    1
    27    16    18    1
    28    21    22    1
    29    21    20    1
    30    18    19    1
    31    18    20    1
