@<TRIPOS>MOLECULE
67300_out_ligand_01.pdbqt
 32 35 0 0 0
SMALL
GASTEIGER

@<TRIPOS>ATOM
      1  O         19.4330  -24.8450   -7.8180 O.2     1  UNL1       -0.2670
      2  C         18.7250  -23.8670   -8.0380 C.2     1  UNL1        0.2580
      3  N         18.8580  -22.9590   -9.1070 N.am    1  UNL1       -0.3130
      4  C         17.7220  -22.1180   -9.5170 C.3     1  UNL1        0.1330
      5  C         17.6240  -21.9530  -11.0220 C.3     1  UNL1        0.0250
      6  C         18.8880  -21.2910  -11.5270 C.3     1  UNL1        0.0420
      7  C         20.1090  -22.0160  -11.0270 C.2     1  UNL1       -0.0300
      8  C         21.3080  -21.8380  -11.7420 C.2     1  UNL1        0.0340
      9  C         22.4790  -22.4580  -11.3140 C.2     1  UNL1        0.0800
     10  C         22.4670  -23.2800  -10.1920 C.2     1  UNL1        0.0270
     11  C         21.2770  -23.4460   -9.4730 C.2     1  UNL1        0.0320
     12  C         20.0790  -22.8240   -9.8660 C.2     1  UNL1        0.0430
     13  S         23.9970  -22.2110  -12.2060 S.O2    1  UNL1        0.2630
     14  O         24.4600  -23.4990  -12.6740 O.2     1  UNL1       -0.2000
     15  O         24.8410  -21.3480  -11.4090 O.2     1  UNL1       -0.2000
     16  N         23.4990  -21.2860  -13.5350 N.pl3   1  UNL1       -0.2810
     17  H         22.5040  -21.4060  -13.7200 H       1  UNL1        0.1790
     18  C         24.3800  -21.1210  -14.6400 C.2     1  UNL1        0.0440
     19  C         25.2680  -20.0450  -14.6350 C.2     1  UNL1        0.0320
     20  C         26.1080  -19.8300  -15.7290 C.2     1  UNL1        0.0280
     21  C         26.0640  -20.6920  -16.8290 C.2     1  UNL1        0.0550
     22 CL         27.1200  -20.3570  -18.1530 Cl      1  UNL1       -0.0830
     23  C         25.1790  -21.7760  -16.8270 C.2     1  UNL1        0.0580
     24 CL         25.0680  -22.8790  -18.1520 Cl      1  UNL1       -0.0820
     25  C         24.3390  -21.9910  -15.7290 C.2     1  UNL1        0.0550
     26  C         17.6250  -23.6520   -7.0670 C.2     1  UNL1        0.0340
     27  C         16.3650  -24.1980   -7.3370 C.2     1  UNL1        0.0170
     28  C         15.3250  -24.0280   -6.4230 C.2     1  UNL1        0.0030
     29  C         15.5510  -23.3270   -5.2370 C.2     1  UNL1        0.0240
     30  C         16.8160  -22.8090   -4.9630 C.2     1  UNL1        0.0350
     31 CL         17.0910  -21.9580   -3.4930 Cl      1  UNL1       -0.0840
     32  C         17.8630  -22.9730   -5.8670 C.2     1  UNL1        0.0410
@<TRIPOS>BOND
     1    22    21    1
     2    24    23    1
     3    21    23    2
     4    21    20    1
     5    23    25    1
     6    20    19    2
     7    25    18    2
     8    18    19    1
     9    18    16    1
    10    17    16    1
    11    16    13    1
    12    14    13    2
    13    13    15    2
    14    13     9    1
    15     8     9    1
    16     8     7    2
    17     6     7    1
    18     6     5    1
    19     9    10    2
    20     7    12    1
    21     5     4    1
    22    10    11    1
    23    12    11    2
    24    12     3    1
    25     4     3    1
    26     3     2   am
    27     2     1    2
    28     2    26    1
    29    27    26    2
    30    27    28    1
    31    26    32    1
    32    28    29    2
    33    32    30    2
    34    29    30    1
    35    30    31    1
