@<TRIPOS>MOLECULE
67306_out_ligand_01.pdbqt
 34 37 0 0 0
SMALL
GASTEIGER

@<TRIPOS>ATOM
      1  C         17.4750  -22.9250   -9.9050 C.2     1  UNL1        0.0800
      2  C         17.7930  -22.0680  -10.9520 C.2     1  UNL1        0.0270
      3  C         19.1280  -21.9230  -11.3470 C.2     1  UNL1        0.0320
      4  C         20.1700  -22.6070  -10.6980 C.2     1  UNL1        0.0430
      5  C         19.8260  -23.4640   -9.6260 C.2     1  UNL1       -0.0300
      6  C         18.4810  -23.6220   -9.2400 C.2     1  UNL1        0.0340
      7  C         20.8620  -24.2600   -8.8770 C.3     1  UNL1        0.0420
      8  C         22.2310  -23.6270   -9.0150 C.3     1  UNL1        0.0250
      9  C         22.5190  -23.3890  -10.4850 C.3     1  UNL1        0.1330
     10  N         21.5460  -22.4850  -11.1170 N.am    1  UNL1       -0.3130
     11  C         21.9700  -21.5270  -12.0590 C.2     1  UNL1        0.2580
     12  O         21.3720  -20.5050  -12.3830 O.2     1  UNL1       -0.2670
     13  S         15.7830  -23.1090   -9.4090 S.O2    1  UNL1        0.2590
     14  O         15.4480  -24.5130   -9.4980 O.2     1  UNL1       -0.2010
     15  O         14.9900  -22.0910  -10.0630 O.2     1  UNL1       -0.2010
     16  N         15.8590  -22.7430   -7.7780 N.3     1  UNL1       -0.3110
     17  H         16.5320  -22.0190   -7.5350 H       1  UNL1        0.1720
     18  C         15.4640  -23.7450   -6.7750 C.3     1  UNL1        0.0890
     19  C         14.7480  -22.9950   -5.6520 C.3     1  UNL1        0.0330
     20  C         16.7230  -24.4800   -6.2820 C.3     1  UNL1        0.0300
     21  C         17.2650  -23.9410   -4.9500 C.3     1  UNL1        0.0400
     22  C         18.0870  -22.6850   -5.0770 C.2     1  UNL1       -0.0580
     23  C         18.9480  -22.5060   -6.1690 C.2     1  UNL1        0.0070
     24  C         19.7010  -21.3380   -6.2920 C.2     1  UNL1        0.0010
     25  C         19.6020  -20.3380   -5.3260 C.2     1  UNL1        0.0000
     26  C         18.7540  -20.5090   -4.2330 C.2     1  UNL1        0.0010
     27  C         18.0010  -21.6770   -4.1090 C.2     1  UNL1        0.0070
     28  C         23.2720  -21.7410  -12.7390 C.2     1  UNL1        0.0320
     29  C         23.3330  -21.8840  -14.1310 C.2     1  UNL1        0.0200
     30  C         24.5710  -22.0620  -14.7510 C.2     1  UNL1        0.0430
     31  C         25.7300  -22.0780  -13.9800 C.2     1  UNL1        0.1160
     32  F         26.9150  -22.2490  -14.5790 F       1  UNL1       -0.2060
     33  C         25.6800  -21.9120  -12.5990 C.2     1  UNL1        0.0430
     34  C         24.4450  -21.7340  -11.9730 C.2     1  UNL1        0.0200
@<TRIPOS>BOND
     1    30    29    1
     2    30    31    2
     3    32    31    1
     4    29    28    2
     5    31    33    1
     6    28    11    1
     7    28    34    1
     8    33    34    2
     9    12    11    2
    10    11    10   am
    11     3     2    1
    12     3     4    2
    13    10     4    1
    14    10     9    1
    15     2     1    2
    16     4     5    1
    17     9     8    1
    18    15    13    2
    19     1    13    1
    20     1     6    1
    21     5     6    2
    22     5     7    1
    23    14    13    2
    24    13    16    1
    25     8     7    1
    26    16    17    1
    27    16    18    1
    28    18    20    1
    29    18    19    1
    30    24    23    1
    31    24    25    2
    32    20    21    1
    33    23    22    2
    34    25    26    1
    35    22    21    1
    36    22    27    1
    37    26    27    2
