@<TRIPOS>MOLECULE
67301_out_ligand_01.pdbqt
 32 35 0 0 0
SMALL
GASTEIGER

@<TRIPOS>ATOM
      1  C         18.1660  -22.7300   -9.2270 C.2     1  UNL1        0.0800
      2  C         18.3650  -22.6160  -10.5980 C.2     1  UNL1        0.0270
      3  C         19.6590  -22.4210  -11.0950 C.2     1  UNL1        0.0320
      4  C         20.7710  -22.3160  -10.2430 C.2     1  UNL1        0.0430
      5  C         20.5440  -22.4100   -8.8500 C.2     1  UNL1       -0.0300
      6  C         19.2440  -22.6180   -8.3510 C.2     1  UNL1        0.0340
      7  C         21.6670  -22.3330   -7.8510 C.3     1  UNL1        0.0420
      8  C         22.8690  -21.6250   -8.4400 C.3     1  UNL1        0.0250
      9  C         23.2110  -22.2600   -9.7750 C.3     1  UNL1        0.1330
     10  N         22.1130  -22.1580  -10.7500 N.am    1  UNL1       -0.3130
     11  C         22.3850  -21.8920  -12.1040 C.2     1  UNL1        0.2580
     12  O         21.6030  -21.4320  -12.9320 O.2     1  UNL1       -0.2670
     13  S         16.5280  -23.0000   -8.5920 S.O2    1  UNL1        0.2630
     14  O         15.7330  -23.5690   -9.6600 O.2     1  UNL1       -0.2000
     15  O         16.1080  -21.7970   -7.9040 O.2     1  UNL1       -0.2000
     16  N         16.7600  -24.2410   -7.4670 N.pl3   1  UNL1       -0.2810
     17  H         17.6000  -24.7790   -7.6700 H       1  UNL1        0.1790
     18  C         16.4450  -24.0010   -6.0990 C.2     1  UNL1        0.0450
     19  C         15.1420  -24.1570   -5.6320 C.2     1  UNL1        0.0300
     20  C         14.8460  -23.8800   -4.2990 C.2     1  UNL1        0.0050
     21  C         15.8510  -23.4450   -3.4300 C.2     1  UNL1        0.0370
     22  C         17.1570  -23.2880   -3.8950 C.2     1  UNL1        0.0700
     23  C         17.4490  -23.5670   -5.2340 C.2     1  UNL1        0.0660
     24  O         18.2290  -22.8650   -3.1540 O.2     1  UNL1       -0.3560
     25  C         18.5070  -21.4710   -3.1640 C.3     1  UNL1        0.2100
     26  C         23.7480  -22.1770  -12.6150 C.2     1  UNL1        0.0340
     27  C         24.2710  -23.4760  -12.5570 C.2     1  UNL1        0.0170
     28  C         25.5450  -23.7310  -13.0650 C.2     1  UNL1        0.0030
     29  C         26.2840  -22.6960  -13.6410 C.2     1  UNL1        0.0240
     30  C         25.7440  -21.4100  -13.7170 C.2     1  UNL1        0.0350
     31 CL         26.6590  -20.1450  -14.4400 Cl      1  UNL1       -0.0840
     32  C         24.4740  -21.1430  -13.2140 C.2     1  UNL1        0.0410
@<TRIPOS>BOND
     1    31    30    1
     2    30    29    2
     3    30    32    1
     4    29    28    1
     5    32    26    2
     6    28    27    2
     7    12    11    2
     8    26    27    1
     9    26    11    1
    10    11    10   am
    11     3     2    1
    12     3     4    2
    13    10     4    1
    14    10     9    1
    15     2     1    2
    16     4     5    1
    17     9     8    1
    18    14    13    2
    19     1    13    1
    20     1     6    1
    21     5     6    2
    22     5     7    1
    23    13    15    2
    24    13    16    1
    25     8     7    1
    26    17    16    1
    27    16    18    1
    28    18    19    2
    29    18    23    1
    30    19    20    1
    31    23    22    2
    32    20    21    2
    33    22    21    1
    34    22    24    1
    35    25    24    1
