@<TRIPOS>MOLECULE
67304_out_ligand_01.pdbqt
 38 42 0 0 0
SMALL
GASTEIGER

@<TRIPOS>ATOM
      1  O         19.5830  -24.5670   -7.6940 O.2     1  UNL1       -0.2670
      2  C         18.8910  -23.6500   -8.1330 C.2     1  UNL1        0.2580
      3  N         19.2130  -22.7980   -9.2050 N.am    1  UNL1       -0.3130
      4  C         18.1570  -22.0650   -9.9190 C.3     1  UNL1        0.1330
      5  C         18.3920  -22.0070  -11.4170 C.3     1  UNL1        0.0250
      6  C         19.7010  -21.2970  -11.6840 C.3     1  UNL1        0.0420
      7  C         20.8140  -21.8900  -10.8630 C.2     1  UNL1       -0.0300
      8  C         22.1330  -21.6640  -11.2990 C.2     1  UNL1        0.0340
      9  C         23.2100  -22.1570  -10.5640 C.2     1  UNL1        0.0750
     10  C         22.9870  -22.8940   -9.4070 C.2     1  UNL1        0.0270
     11  C         21.6760  -23.1120   -8.9670 C.2     1  UNL1        0.0320
     12  C         20.5670  -22.6180   -9.6760 C.2     1  UNL1        0.0430
     13  S         24.8700  -21.8410  -11.1010 S.O2    1  UNL1        0.2460
     14  O         25.3280  -20.6550  -10.4080 O.2     1  UNL1       -0.2060
     15  O         25.6180  -23.0780  -11.0460 O.2     1  UNL1       -0.2060
     16  N         24.6470  -21.3860  -12.7230 N.pl3   1  UNL1       -0.1790
     17  H         24.8340  -20.3840  -12.8020 H       1  UNL1        0.1460
     18  C         25.2860  -22.2030  -13.7090 C.2     1  UNL1        0.0580
     19  C         24.7990  -23.4860  -13.9610 C.2     1  UNL1        0.0510
     20  C         25.4740  -24.3140  -14.8560 C.2     1  UNL1        0.0350
     21 CL         24.8790  -25.9010  -15.1570 Cl      1  UNL1       -0.0840
     22  C         26.6310  -23.8750  -15.4980 C.2     1  UNL1        0.0260
     23  C         27.1210  -22.5910  -15.2470 C.2     1  UNL1        0.0410
     24  C         26.4400  -21.7460  -14.3630 C.2     1  UNL1        0.0980
     25  O         26.8940  -20.4840  -14.0450 O.2     1  UNL1       -0.3090
     26  C         26.7430  -19.5010  -14.9950 C.2     1  UNL1        0.0760
     27  C         26.9640  -18.1840  -14.5900 C.2     1  UNL1        0.0370
     28  C         26.8010  -17.1430  -15.5030 C.2     1  UNL1        0.0030
     29  C         26.3990  -17.4190  -16.8100 C.2     1  UNL1        0.0000
     30  C         26.1530  -18.7330  -17.2050 C.2     1  UNL1        0.0030
     31  C         26.3160  -19.7780  -16.2950 C.2     1  UNL1        0.0370
     32  C         17.5880  -23.4570   -7.4500 C.2     1  UNL1        0.0320
     33  C         17.4290  -22.4430   -6.4950 C.2     1  UNL1        0.0200
     34  C         16.2010  -22.2920   -5.8490 C.2     1  UNL1        0.0430
     35  C         15.1550  -23.1600   -6.1510 C.2     1  UNL1        0.1160
     36  F         13.9790  -23.0120   -5.5290 F       1  UNL1       -0.2060
     37  C         15.3130  -24.1840   -7.0810 C.2     1  UNL1        0.0430
     38  C         16.5390  -24.3410   -7.7300 C.2     1  UNL1        0.0200
@<TRIPOS>BOND
     1    30    29    2
     2    30    31    1
     3    29    28    1
     4    31    26    2
     5    28    27    2
     6    22    23    2
     7    22    20    1
     8    23    24    1
     9    21    20    1
    10    26    27    1
    11    26    25    1
    12    20    19    2
    13    24    25    1
    14    24    18    2
    15    19    18    1
    16    18    16    1
    17    17    16    1
    18    16    13    1
    19     6     5    1
    20     6     7    1
    21     5     4    1
    22     8     7    2
    23     8     9    1
    24    13    15    2
    25    13     9    1
    26    13    14    2
    27     7    12    1
    28     9    10    2
    29     4     3    1
    30    12     3    1
    31    12    11    2
    32    10    11    1
    33     3     2   am
    34     2     1    2
    35     2    32    1
    36    38    32    2
    37    38    37    1
    38    32    33    1
    39    37    35    2
    40    33    34    2
    41    35    34    1
    42    35    36    1
