@<TRIPOS>MOLECULE
67305_out_ligand_01.pdbqt
 35 38 0 0 0
SMALL
GASTEIGER

@<TRIPOS>ATOM
      1  C         23.7540  -22.2010  -10.9830 C.2     1  UNL1        0.0800
      2  C         23.6320  -22.4360   -9.6180 C.2     1  UNL1        0.0270
      3  C         22.3600  -22.4610   -9.0340 C.2     1  UNL1        0.0320
      4  C         21.1940  -22.2330   -9.7850 C.2     1  UNL1        0.0430
      5  C         21.3440  -21.9680  -11.1670 C.2     1  UNL1       -0.0300
      6  C         22.6220  -21.9540  -11.7560 C.2     1  UNL1        0.0340
      7  C         20.1600  -21.7310  -12.0680 C.3     1  UNL1        0.0420
      8  C         18.9590  -21.2700  -11.2710 C.3     1  UNL1        0.0250
      9  C         18.7310  -22.2320  -10.1200 C.3     1  UNL1        0.1330
     10  N         19.8750  -22.3000   -9.1980 N.am    1  UNL1       -0.3130
     11  C         19.6690  -22.4000   -7.8100 C.2     1  UNL1        0.2580
     12  O         20.4740  -22.1120   -6.9270 O.2     1  UNL1       -0.2670
     13  S         25.3640  -22.2010  -11.7370 S.O2    1  UNL1        0.2630
     14  O         25.3390  -23.1530  -12.8270 O.2     1  UNL1       -0.2000
     15  O         26.3560  -22.2890  -10.6860 O.2     1  UNL1       -0.2000
     16  N         25.4440  -20.6680  -12.4530 N.pl3   1  UNL1       -0.2810
     17  H         25.9270  -20.0010  -11.8540 H       1  UNL1        0.1790
     18  C         25.6610  -20.5780  -13.8580 C.2     1  UNL1        0.0440
     19  C         26.7470  -19.8440  -14.3300 C.2     1  UNL1        0.0300
     20  C         27.0020  -19.7990  -15.6990 C.2     1  UNL1        0.0040
     21  C         26.1770  -20.4890  -16.5940 C.2     1  UNL1        0.0290
     22  C         25.0860  -21.2270  -16.1280 C.2     1  UNL1        0.0360
     23  C         24.8310  -21.2580  -14.7510 C.2     1  UNL1        0.0590
     24  N         24.2090  -21.9530  -16.9600 N.am    1  UNL1       -0.3270
     25  C         24.2040  -23.3180  -17.1890 C.2     1  UNL1        0.2180
     26  C         23.1160  -23.7240  -18.1530 C.3     1  UNL1        0.1170
     27  O         24.9440  -24.1540  -16.6840 O.2     1  UNL1       -0.2740
     28  H         23.4890  -21.4120  -17.4240 H       1  UNL1        0.1690
     29  C         18.3520  -22.8890   -7.3290 C.2     1  UNL1        0.0320
     30  C         18.0560  -24.2590   -7.3370 C.2     1  UNL1        0.0200
     31  C         16.8220  -24.6990   -6.8560 C.2     1  UNL1        0.0430
     32  C         15.9080  -23.7740   -6.3610 C.2     1  UNL1        0.1160
     33  F         14.7240  -24.2000   -5.9000 F       1  UNL1       -0.2060
     34  C         16.2040  -22.4140   -6.3270 C.2     1  UNL1        0.0430
     35  C         17.4360  -21.9670   -6.8060 C.2     1  UNL1        0.0200
@<TRIPOS>BOND
     1    26    25    1
     2    28    24    1
     3    25    24   am
     4    25    27    2
     5    24    22    1
     6    21    22    2
     7    21    20    1
     8    22    23    1
     9    20    19    2
    10    23    18    2
    11    19    18    1
    12    18    16    1
    13    14    13    2
    14    16    17    1
    15    16    13    1
    16     7     8    1
    17     7     5    1
    18     6     5    1
    19     6     1    2
    20    13     1    1
    21    13    15    2
    22     8     9    1
    23     5     4    2
    24     1     2    1
    25     9    10    1
    26     4    10    1
    27     4     3    1
    28     2     3    2
    29    10    11   am
    30    11    29    1
    31    11    12    2
    32    30    29    2
    33    30    31    1
    34    29    35    1
    35    31    32    2
    36    35    34    2
    37    32    34    1
    38    32    33    1
