@<TRIPOS>MOLECULE
67317_out_ligand_01.pdbqt
 37 41 0 0 0
SMALL
GASTEIGER

@<TRIPOS>ATOM
      1  O         22.8970  -20.4020  -14.7280 O.2     1  UNL1       -0.2670
      2  C         23.9340  -21.0480  -14.6020 C.2     1  UNL1        0.2580
      3  N         24.3870  -21.7040  -13.4410 N.am    1  UNL1       -0.3130
      4  C         25.8070  -22.0630  -13.3000 C.3     1  UNL1        0.1330
      5  C         26.3130  -21.9390  -11.8750 C.3     1  UNL1        0.0250
      6  C         25.5120  -22.8660  -10.9880 C.3     1  UNL1        0.0420
      7  C         24.0370  -22.6250  -11.1670 C.2     1  UNL1       -0.0300
      8  C         23.1840  -23.0260  -10.1210 C.2     1  UNL1        0.0340
      9  C         21.8090  -22.8440  -10.2320 C.2     1  UNL1        0.0750
     10  C         21.2710  -22.2490  -11.3670 C.2     1  UNL1        0.0270
     11  C         22.1170  -21.8730  -12.4170 C.2     1  UNL1        0.0320
     12  C         23.5100  -22.0510  -12.3480 C.2     1  UNL1        0.0430
     13  S         20.7300  -23.3580   -8.9150 S.O2    1  UNL1        0.2460
     14  O         21.3720  -23.0070   -7.6660 O.2     1  UNL1       -0.2060
     15  O         20.3050  -24.7160   -9.1840 O.2     1  UNL1       -0.2060
     16  N         19.4010  -22.3190   -9.0790 N.pl3   1  UNL1       -0.1790
     17  H         19.5370  -21.6970   -9.8790 H       1  UNL1        0.1460
     18  C         18.0930  -22.8870   -8.9740 C.2     1  UNL1        0.0560
     19  C         17.1770  -22.7510  -10.0170 C.2     1  UNL1        0.0270
     20  C         15.8860  -23.2700   -9.8820 C.2     1  UNL1        0.0020
     21  C         15.5060  -23.9170   -8.7050 C.2     1  UNL1        0.0030
     22  C         16.4170  -24.0530   -7.6560 C.2     1  UNL1        0.0390
     23  C         17.7120  -23.5530   -7.8020 C.2     1  UNL1        0.0980
     24  O         18.5920  -23.6300   -6.7500 O.2     1  UNL1       -0.3090
     25  C         18.3490  -22.8460   -5.6440 C.2     1  UNL1        0.0760
     26  C         17.6380  -23.2520   -4.5120 C.2     1  UNL1        0.0370
     27  C         17.5040  -22.3840   -3.4230 C.2     1  UNL1        0.0030
     28  C         18.0820  -21.1150   -3.4630 C.2     1  UNL1        0.0000
     29  C         18.7950  -20.7090   -4.5900 C.2     1  UNL1        0.0030
     30  C         18.9300  -21.5750   -5.6770 C.2     1  UNL1        0.0370
     31  C         24.7760  -21.1180  -15.8190 C.2     1  UNL1        0.0340
     32  C         24.8240  -22.2920  -16.5820 C.2     1  UNL1        0.0170
     33  C         25.6010  -22.3330  -17.7400 C.2     1  UNL1        0.0030
     34  C         26.3160  -21.2010  -18.1380 C.2     1  UNL1        0.0240
     35  C         26.2420  -20.0270  -17.3850 C.2     1  UNL1        0.0350
     36 CL         27.1180  -18.6360  -17.8910 Cl      1  UNL1       -0.0840
     37  C         25.4690  -19.9750  -16.2290 C.2     1  UNL1        0.0410
@<TRIPOS>BOND
     1    34    33    2
     2    34    35    1
     3    36    35    1
     4    33    32    1
     5    35    37    2
     6    32    31    2
     7    37    31    1
     8    31     2    1
     9     1     2    2
    10     2     3   am
    11     3     4    1
    12     3    12    1
    13     4     5    1
    14    11    12    1
    15    11    10    2
    16    12     7    2
    17     5     6    1
    18    10     9    1
    19     7     6    1
    20     7     8    1
    21     9     8    2
    22     9    13    1
    23    19    20    1
    24    19    18    2
    25    20    21    2
    26    17    16    1
    27    15    13    2
    28    16    18    1
    29    16    13    1
    30    18    23    1
    31    13    14    2
    32    21    22    1
    33    23    22    2
    34    23    24    1
    35    24    25    1
    36    30    25    2
    37    30    29    1
    38    25    26    1
    39    29    28    2
    40    26    27    2
    41    28    27    1
