@<TRIPOS>MOLECULE
67313_out_ligand_01.pdbqt
 34 38 0 0 0
SMALL
GASTEIGER

@<TRIPOS>ATOM
      1  O         22.8310  -22.6170   -8.8740 O.2     1  UNL1       -0.2670
      2  C         22.6350  -22.3450  -10.0560 C.2     1  UNL1        0.2580
      3  N         21.3940  -22.0550  -10.6520 N.am    1  UNL1       -0.3130
      4  C         21.3280  -21.2720  -11.8940 C.3     1  UNL1        0.1330
      5  C         20.1740  -20.2870  -11.9010 C.3     1  UNL1        0.0250
      6  C         18.8730  -21.0510  -11.7750 C.3     1  UNL1        0.0420
      7  C         18.9190  -22.0110  -10.6160 C.2     1  UNL1       -0.0300
      8  C         17.6910  -22.4710  -10.1040 C.2     1  UNL1        0.0340
      9  C         17.6700  -23.3890   -9.0550 C.2     1  UNL1        0.0800
     10  C         18.8600  -23.8260   -8.4840 C.2     1  UNL1        0.0270
     11  C         20.0800  -23.3800   -9.0020 C.2     1  UNL1        0.0320
     12  C         20.1400  -22.4750  -10.0750 C.2     1  UNL1        0.0430
     13  S         16.1160  -23.9870   -8.4350 S.O2    1  UNL1        0.2630
     14  O         15.1900  -24.0740   -9.5430 O.2     1  UNL1       -0.2000
     15  O         16.3950  -25.1390   -7.6020 O.2     1  UNL1       -0.2000
     16  N         15.6150  -22.7680   -7.3790 N.pl3   1  UNL1       -0.2800
     17  H         14.7770  -22.2900   -7.6990 H       1  UNL1        0.1790
     18  C         15.7930  -22.9510   -5.9720 C.2     1  UNL1        0.0530
     19  C         14.8400  -23.7070   -5.2850 C.2     1  UNL1        0.0310
     20  C         14.9340  -23.8690   -3.9080 C.2     1  UNL1        0.0030
     21  C         15.9810  -23.2710   -3.2100 C.2     1  UNL1        0.0120
     22  C         16.9480  -22.5030   -3.8760 C.2     1  UNL1       -0.0240
     23  C         17.9910  -21.8980   -3.1540 C.2     1  UNL1        0.0120
     24  C         16.8700  -22.3320   -5.2820 C.2     1  UNL1        0.0010
     25  C         18.9570  -21.1270   -3.7960 C.2     1  UNL1        0.0010
     26  C         18.8960  -20.9480   -5.1720 C.2     1  UNL1        0.0010
     27  C         17.8680  -21.5440   -5.9050 C.2     1  UNL1        0.0140
     28  C         23.8450  -22.3240  -10.9140 C.2     1  UNL1        0.0340
     29  C         24.8540  -21.3930  -10.6420 C.2     1  UNL1        0.0170
     30  C         26.0090  -21.3740  -11.4260 C.2     1  UNL1        0.0030
     31  C         26.1590  -22.2930  -12.4660 C.2     1  UNL1        0.0240
     32  C         25.1580  -23.2360  -12.7120 C.2     1  UNL1        0.0350
     33 CL         25.3560  -24.3750  -13.9870 Cl      1  UNL1       -0.0840
     34  C         24.0030  -23.2640  -11.9370 C.2     1  UNL1        0.0410
@<TRIPOS>BOND
     1    33    32    1
     2    32    31    2
     3    32    34    1
     4    31    30    1
     5    34    28    2
     6     5     4    1
     7     5     6    1
     8     4     3    1
     9     6     7    1
    10    30    29    2
    11    28    29    1
    12    28     2    1
    13     3    12    1
    14     3     2   am
    15     7     8    2
    16     7    12    1
    17     8     9    1
    18    12    11    2
    19     2     1    2
    20    14    13    2
    21     9    10    2
    22     9    13    1
    23    11    10    1
    24    13    15    2
    25    13    16    1
    26    17    16    1
    27    16    18    1
    28    18    19    2
    29    18    24    1
    30    27    24    1
    31    27    26    2
    32    19    20    1
    33    24    22    2
    34    26    25    1
    35    20    21    2
    36    22    21    1
    37    22    23    1
    38    25    23    2
