@<TRIPOS>MOLECULE
67311_out_ligand_01.pdbqt
 32 35 0 0 0
SMALL
GASTEIGER

@<TRIPOS>ATOM
      1  C         18.0800  -23.6670   -8.3180 C.2     1  UNL1        0.0800
      2  C         19.3620  -23.9990   -7.8940 C.2     1  UNL1        0.0270
      3  C         20.4700  -23.5350   -8.6130 C.2     1  UNL1        0.0320
      4  C         20.3270  -22.7190   -9.7490 C.2     1  UNL1        0.0430
      5  C         19.0150  -22.3760  -10.1500 C.2     1  UNL1       -0.0300
      6  C         17.9010  -22.8540   -9.4360 C.2     1  UNL1        0.0340
      7  C         18.7480  -21.5240  -11.3640 C.3     1  UNL1        0.0420
      8  C         19.9580  -20.6840  -11.7100 C.3     1  UNL1        0.0250
      9  C         21.1800  -21.5810  -11.7870 C.3     1  UNL1        0.1330
     10  N         21.4630  -22.2660  -10.5160 N.am    1  UNL1       -0.3130
     11  C         22.7900  -22.4320  -10.0760 C.2     1  UNL1        0.2580
     12  O         23.1590  -22.6430   -8.9240 O.2     1  UNL1       -0.2670
     13  S         16.6740  -24.2640   -7.4180 S.O2    1  UNL1        0.2630
     14  O         17.1250  -25.2280   -6.4370 O.2     1  UNL1       -0.2000
     15  O         15.6560  -24.6120   -8.3880 O.2     1  UNL1       -0.2000
     16  N         16.1130  -22.8730   -6.6370 N.pl3   1  UNL1       -0.2800
     17  H         15.1030  -22.9060   -6.5140 H       1  UNL1        0.1790
     18  C         16.8950  -22.3330   -5.5740 C.2     1  UNL1        0.0490
     19  C         16.6120  -22.6430   -4.2360 C.2     1  UNL1       -0.0350
     20  C         17.4610  -22.1370   -3.2390 C.2     1  UNL1        0.0090
     21  C         15.4640  -23.5280   -3.8440 C.3     1  UNL1        0.0500
     22  C         18.5550  -21.3320   -3.5690 C.2     1  UNL1        0.0070
     23  C         18.8200  -21.0080   -4.9030 C.2     1  UNL1       -0.0600
     24  C         20.0110  -20.1730   -5.2640 C.3     1  UNL1        0.0480
     25  C         17.9890  -21.5260   -5.9020 C.2     1  UNL1        0.0370
     26  C         23.8790  -22.3390  -11.0780 C.2     1  UNL1        0.0340
     27  C         24.0140  -23.3180  -12.0710 C.2     1  UNL1        0.0170
     28  C         25.0590  -23.2300  -12.9920 C.2     1  UNL1        0.0030
     29  C         25.9690  -22.1750  -12.9100 C.2     1  UNL1        0.0240
     30  C         25.8400  -21.2170  -11.9010 C.2     1  UNL1        0.0350
     31 CL         26.9760  -19.9280  -11.8030 Cl      1  UNL1       -0.0840
     32  C         24.8030  -21.2960  -10.9770 C.2     1  UNL1        0.0410
@<TRIPOS>BOND
     1    28    29    2
     2    28    27    1
     3    29    30    1
     4    27    26    2
     5    30    31    1
     6    30    32    2
     7     9     8    1
     8     9    10    1
     9     8     7    1
    10     7     5    1
    11    26    32    1
    12    26    11    1
    13    10    11   am
    14    10     4    1
    15     5     4    2
    16     5     6    1
    17    11    12    2
    18     4     3    1
    19     6     1    2
    20     3     2    2
    21    15    13    2
    22     1     2    1
    23     1    13    1
    24    13    16    1
    25    13    14    2
    26    16    17    1
    27    16    18    1
    28    25    18    2
    29    25    23    1
    30    18    19    1
    31    24    23    1
    32    23    22    2
    33    19    21    1
    34    19    20    2
    35    22    20    1
