@<TRIPOS>MOLECULE
67319_out_ligand_01.pdbqt
 34 37 0 0 0
SMALL
GASTEIGER

@<TRIPOS>ATOM
      1  C         17.4440  -22.9470   -9.9040 C.2     1  UNL1        0.0800
      2  C         17.7670  -22.0600  -10.9250 C.2     1  UNL1        0.0270
      3  C         19.1030  -21.9120  -11.3160 C.2     1  UNL1        0.0320
      4  C         20.1410  -22.6220  -10.6880 C.2     1  UNL1        0.0430
      5  C         19.7910  -23.5080   -9.6410 C.2     1  UNL1       -0.0300
      6  C         18.4440  -23.6700   -9.2610 C.2     1  UNL1        0.0340
      7  C         20.8220  -24.3290   -8.9140 C.3     1  UNL1        0.0420
      8  C         22.1950  -23.7040   -9.0370 C.3     1  UNL1        0.0250
      9  C         22.4830  -23.4280  -10.5000 C.3     1  UNL1        0.1330
     10  N         21.5180  -22.4990  -11.1050 N.am    1  UNL1       -0.3130
     11  C         21.9470  -21.5230  -12.0250 C.2     1  UNL1        0.2580
     12  O         21.3550  -20.4900  -12.3270 O.2     1  UNL1       -0.2670
     13  S         15.7480  -23.1410   -9.4230 S.O2    1  UNL1        0.2590
     14  O         14.9650  -22.0950  -10.0430 O.2     1  UNL1       -0.2010
     15  O         15.4080  -24.5390   -9.5660 O.2     1  UNL1       -0.2010
     16  N         15.8190  -22.8330   -7.7800 N.3     1  UNL1       -0.3110
     17  H         16.4080  -22.0420   -7.5190 H       1  UNL1        0.1720
     18  C         15.5370  -23.8950   -6.8080 C.3     1  UNL1        0.0890
     19  C         14.7570  -23.2690   -5.6550 C.3     1  UNL1        0.0330
     20  C         16.8670  -24.5130   -6.3550 C.3     1  UNL1        0.0300
     21  C         17.3240  -23.9950   -4.9890 C.3     1  UNL1        0.0400
     22  C         18.1110  -22.7150   -5.1150 C.2     1  UNL1       -0.0580
     23  C         18.0200  -21.7260   -4.1260 C.2     1  UNL1        0.0070
     24  C         18.7610  -20.5490   -4.2310 C.2     1  UNL1        0.0010
     25  C         19.6020  -20.3500   -5.3240 C.2     1  UNL1        0.0000
     26  C         19.7050  -21.3290   -6.3110 C.2     1  UNL1        0.0010
     27  C         18.9650  -22.5080   -6.2060 C.2     1  UNL1        0.0070
     28  C         23.2460  -21.7260  -12.7080 C.2     1  UNL1        0.0340
     29  C         23.3030  -21.8460  -14.1030 C.2     1  UNL1        0.0170
     30  C         24.5370  -22.0100  -14.7330 C.2     1  UNL1        0.0030
     31  C         25.7080  -22.0410  -13.9710 C.2     1  UNL1        0.0240
     32  C         25.6430  -21.8940  -12.5840 C.2     1  UNL1        0.0350
     33 CL         27.0930  -21.9200  -11.6580 Cl      1  UNL1       -0.0840
     34  C         24.4180  -21.7280  -11.9460 C.2     1  UNL1        0.0410
@<TRIPOS>BOND
     1    30    29    1
     2    30    31    2
     3    29    28    2
     4    31    32    1
     5    28    11    1
     6    28    34    1
     7    32    34    2
     8    32    33    1
     9    12    11    2
    10    11    10   am
    11     3     2    1
    12     3     4    2
    13    10     4    1
    14    10     9    1
    15     2     1    2
    16     4     5    1
    17     9     8    1
    18    14    13    2
    19     1    13    1
    20     1     6    1
    21     5     6    2
    22     5     7    1
    23    15    13    2
    24    13    16    1
    25     8     7    1
    26    16    17    1
    27    16    18    1
    28    18    20    1
    29    18    19    1
    30    20    21    1
    31    26    27    1
    32    26    25    2
    33    27    22    2
    34    25    24    1
    35    22    21    1
    36    22    23    1
    37    24    23    2
