@<TRIPOS>MOLECULE
67312_out_ligand_01.pdbqt
 32 35 0 0 0
SMALL
GASTEIGER

@<TRIPOS>ATOM
      1  C         17.5720  -23.4560   -9.3410 C.2     1  UNL1        0.0800
      2  C         18.7240  -24.0130   -8.7970 C.2     1  UNL1        0.0270
      3  C         19.9770  -23.6020   -9.2660 C.2     1  UNL1        0.0320
      4  C         20.1090  -22.6190  -10.2630 C.2     1  UNL1        0.0430
      5  C         18.9250  -22.0530  -10.7890 C.2     1  UNL1       -0.0300
      6  C         17.6640  -22.4780  -10.3280 C.2     1  UNL1        0.0340
      7  C         18.9520  -21.0090  -11.8720 C.3     1  UNL1        0.0420
      8  C         20.2850  -20.2940  -11.9010 C.3     1  UNL1        0.0250
      9  C         21.3990  -21.3240  -11.9460 C.3     1  UNL1        0.1330
     10  N         21.3970  -22.2150  -10.7760 N.am    1  UNL1       -0.3130
     11  C         22.6090  -22.6150  -10.1810 C.2     1  UNL1        0.2580
     12  O         22.7600  -23.0340   -9.0370 O.2     1  UNL1       -0.2670
     13  S         15.9810  -23.9780   -8.7560 S.O2    1  UNL1        0.2630
     14  O         16.1440  -25.1640   -7.9440 O.2     1  UNL1       -0.2000
     15  O         15.0770  -23.9720   -9.8870 O.2     1  UNL1       -0.2000
     16  N         15.5050  -22.6840   -7.7760 N.pl3   1  UNL1       -0.2810
     17  H         14.4940  -22.6760   -7.6560 H       1  UNL1        0.1790
     18  C         16.3030  -22.3830   -6.6390 C.2     1  UNL1        0.0430
     19  C         15.7680  -22.5450   -5.3660 C.2     1  UNL1        0.0300
     20  C         16.5330  -22.2210   -4.2460 C.2     1  UNL1        0.0090
     21  C         17.8390  -21.7260   -4.3890 C.2     1  UNL1       -0.0560
     22  C         18.6360  -21.3840   -3.1580 C.3     1  UNL1        0.0490
     23  C         18.3780  -21.5590   -5.6820 C.2     1  UNL1       -0.0540
     24  C         17.5970  -21.8890   -6.8010 C.2     1  UNL1        0.0370
     25  C         19.7660  -21.0160   -5.8900 C.3     1  UNL1        0.0490
     26  C         23.8490  -22.5230  -10.9890 C.2     1  UNL1        0.0340
     27  C         24.8160  -21.5520  -10.6970 C.2     1  UNL1        0.0170
     28  C         25.9650  -21.4640  -11.4830 C.2     1  UNL1        0.0030
     29  C         26.1380  -22.3310  -12.5630 C.2     1  UNL1        0.0240
     30  C         25.1560  -23.2790  -12.8610 C.2     1  UNL1        0.0350
     31 CL         25.3740  -24.3350  -14.2020 Cl      1  UNL1       -0.0840
     32  C         24.0050  -23.3760  -12.0860 C.2     1  UNL1        0.0410
@<TRIPOS>BOND
     1    31    30    1
     2    30    29    2
     3    30    32    1
     4    29    28    1
     5    32    26    2
     6     9     8    1
     7     9    10    1
     8     8     7    1
     9     7     5    1
    10    28    27    2
    11    26    27    1
    12    26    11    1
    13     5     6    1
    14     5     4    2
    15    10     4    1
    16    10    11   am
    17     6     1    2
    18     4     3    1
    19    11    12    2
    20    15    13    2
    21     1     2    1
    22     1    13    1
    23     3     2    2
    24    13    14    2
    25    13    16    1
    26    16    17    1
    27    16    18    1
    28    24    18    2
    29    24    23    1
    30    18    19    1
    31    25    23    1
    32    23    21    2
    33    19    20    2
    34    21    20    1
    35    21    22    1
