@<TRIPOS>MOLECULE
67315_out_ligand_01.pdbqt
 37 41 0 0 0
SMALL
GASTEIGER

@<TRIPOS>ATOM
      1  O         19.6800  -22.0760   -6.6480 O.2     1  UNL1       -0.2670
      2  C         18.9320  -22.4170   -7.5620 C.2     1  UNL1        0.2580
      3  N         19.1910  -22.3140   -8.9420 N.am    1  UNL1       -0.3130
      4  C         18.0850  -22.3300   -9.9120 C.3     1  UNL1        0.1330
      5  C         18.2950  -21.3590  -11.0570 C.3     1  UNL1        0.0250
      6  C         19.5580  -21.7370  -11.8010 C.3     1  UNL1        0.0420
      7  C         20.7160  -21.8890  -10.8500 C.2     1  UNL1       -0.0300
      8  C         22.0140  -21.7800  -11.3840 C.2     1  UNL1        0.0340
      9  C         23.1260  -21.9260  -10.5580 C.2     1  UNL1        0.0750
     10  C         22.9610  -22.1760   -9.2010 C.2     1  UNL1        0.0270
     11  C         21.6710  -22.3010   -8.6720 C.2     1  UNL1        0.0320
     12  C         20.5250  -22.1580   -9.4740 C.2     1  UNL1        0.0430
     13  S         24.7620  -21.7710  -11.2270 S.O2    1  UNL1        0.2450
     14  O         25.4280  -20.6720  -10.5600 O.2     1  UNL1       -0.2060
     15  O         25.3400  -23.0980  -11.2510 O.2     1  UNL1       -0.2060
     16  N         24.4460  -21.3650  -12.8400 N.pl3   1  UNL1       -0.1800
     17  H         23.4400  -21.4100  -13.0070 H       1  UNL1        0.1460
     18  C         25.2720  -21.9690  -13.8390 C.2     1  UNL1        0.0400
     19  C         24.8930  -23.2190  -14.3380 C.2     1  UNL1        0.0260
     20  C         25.6300  -23.8220  -15.3570 C.2     1  UNL1        0.0020
     21  C         26.7420  -23.1720  -15.8890 C.2     1  UNL1        0.0010
     22  C         27.1210  -21.9200  -15.4010 C.2     1  UNL1        0.0210
     23  C         26.3980  -21.3070  -14.3680 C.2     1  UNL1        0.0270
     24  S         26.9490  -19.6930  -13.8160 S.3     1  UNL1       -0.0890
     25  C         26.7030  -18.6870  -15.2670 C.2     1  UNL1        0.0050
     26  C         26.2700  -19.2320  -16.4810 C.2     1  UNL1        0.0190
     27  C         26.1030  -18.4150  -17.6000 C.2     1  UNL1        0.0010
     28  C         26.3590  -17.0480  -17.5120 C.2     1  UNL1        0.0000
     29  C         26.7780  -16.4950  -16.3040 C.2     1  UNL1        0.0010
     30  C         26.9440  -17.3100  -15.1830 C.2     1  UNL1        0.0190
     31  C         17.6300  -22.9790   -7.1330 C.2     1  UNL1        0.0340
     32  C         17.4300  -24.3650   -7.1030 C.2     1  UNL1        0.0170
     33  C         16.2060  -24.8780   -6.6730 C.2     1  UNL1        0.0030
     34  C         15.1940  -24.0080   -6.2620 C.2     1  UNL1        0.0240
     35  C         15.4110  -22.6290   -6.2710 C.2     1  UNL1        0.0350
     36 CL         14.1610  -21.5680   -5.7510 Cl      1  UNL1       -0.0840
     37  C         16.6290  -22.1060   -6.6970 C.2     1  UNL1        0.0410
@<TRIPOS>BOND
     1    27    28    2
     2    27    26    1
     3    28    29    1
     4    26    25    2
     5    29    30    2
     6    21    22    2
     7    21    20    1
     8    22    23    1
     9    20    19    2
    10    25    30    1
    11    25    24    1
    12    23    18    2
    13    23    24    1
    14    19    18    1
    15    18    16    1
    16    17    16    1
    17    16    13    1
    18     6     5    1
    19     6     7    1
    20     8     7    2
    21     8     9    1
    22    15    13    2
    23    13    14    2
    24    13     9    1
    25     5     4    1
    26     7    12    1
    27     9    10    2
    28     4     3    1
    29    12     3    1
    30    12    11    2
    31    10    11    1
    32     3     2   am
    33     2    31    1
    34     2     1    2
    35    31    32    2
    36    31    37    1
    37    32    33    1
    38    37    35    2
    39    33    34    2
    40    35    34    1
    41    35    36    1
