@<TRIPOS>MOLECULE
67316_out_ligand_01.pdbqt
 38 42 0 0 0
SMALL
GASTEIGER

@<TRIPOS>ATOM
      1  O         20.7060  -24.5960   -8.4840 O.2     1  UNL1       -0.2670
      2  C         20.0220  -23.6030   -8.7200 C.2     1  UNL1        0.2580
      3  N         20.1710  -22.7090   -9.7970 N.am    1  UNL1       -0.3130
      4  C         19.0660  -21.8170  -10.1810 C.3     1  UNL1        0.1330
      5  C         18.9780  -21.5890  -11.6780 C.3     1  UNL1        0.0250
      6  C         20.2670  -20.9550  -12.1540 C.3     1  UNL1        0.0420
      7  C         21.4520  -21.7620  -11.6960 C.2     1  UNL1       -0.0300
      8  C         22.6520  -21.6110  -12.4160 C.2     1  UNL1        0.0340
      9  C         23.7890  -22.3200  -12.0340 C.2     1  UNL1        0.0800
     10  C         23.7410  -23.1900  -10.9520 C.2     1  UNL1        0.0270
     11  C         22.5530  -23.3200  -10.2220 C.2     1  UNL1        0.0320
     12  C         21.3900  -22.6140  -10.5680 C.2     1  UNL1        0.0430
     13  S         25.3130  -22.0990  -12.9200 S.O2    1  UNL1        0.2630
     14  O         25.7510  -23.3960  -13.3900 O.2     1  UNL1       -0.2000
     15  O         26.1720  -21.2610  -12.1110 O.2     1  UNL1       -0.2000
     16  N         24.8480  -21.1640  -14.2520 N.pl3   1  UNL1       -0.2780
     17  H         23.9590  -20.6970  -14.0650 H       1  UNL1        0.1790
     18  C         24.9900  -21.7190  -15.5650 C.2     1  UNL1        0.0780
     19  C         23.9970  -22.5190  -16.1230 C.2     1  UNL1        0.0560
     20  C         24.1630  -23.0170  -17.4170 C.2     1  UNL1        0.0360
     21 CL         22.9340  -23.9950  -18.1190 Cl      1  UNL1       -0.0840
     22  C         25.3120  -22.7310  -18.1530 C.2     1  UNL1        0.0260
     23  C         26.3130  -21.9380  -17.5930 C.2     1  UNL1        0.0410
     24  C         26.1550  -21.4470  -16.2960 C.2     1  UNL1        0.1030
     25  O         27.1060  -20.6100  -15.7590 O.2     1  UNL1       -0.3080
     26  C         27.0180  -19.2700  -16.0630 C.2     1  UNL1        0.0760
     27  C         26.9220  -18.2470  -15.1140 C.2     1  UNL1        0.0370
     28  C         26.7840  -16.9230  -15.5310 C.2     1  UNL1        0.0030
     29  C         26.7380  -16.6210  -16.8910 C.2     1  UNL1        0.0000
     30  C         26.8170  -17.6410  -17.8380 C.2     1  UNL1        0.0030
     31  C         26.9550  -18.9650  -17.4250 C.2     1  UNL1        0.0370
     32  C         18.9260  -23.3570   -7.7580 C.2     1  UNL1        0.0340
     33  C         17.6740  -23.9550   -7.9360 C.2     1  UNL1        0.0170
     34  C         16.6520  -23.7030   -7.0220 C.2     1  UNL1        0.0030
     35  C         16.8780  -22.8490   -5.9420 C.2     1  UNL1        0.0240
     36  C         18.1220  -22.2370   -5.7870 C.2     1  UNL1        0.0350
     37 CL         18.3920  -21.1840   -4.4540 Cl      1  UNL1       -0.0840
     38  C         19.1470  -22.4770   -6.6970 C.2     1  UNL1        0.0410
@<TRIPOS>BOND
     1    22    23    2
     2    22    20    1
     3    21    20    1
     4    30    31    1
     5    30    29    2
     6    23    24    1
     7    31    26    2
     8    20    19    2
     9    29    28    1
    10    24    25    1
    11    24    18    2
    12    19    18    1
    13    26    25    1
    14    26    27    1
    15    18    16    1
    16    28    27    2
    17    16    17    1
    18    16    13    1
    19    14    13    2
    20    13    15    2
    21    13     9    1
    22     8     9    1
    23     8     7    2
    24     6     7    1
    25     6     5    1
    26     9    10    2
    27     7    12    1
    28     5     4    1
    29    10    11    1
    30    12    11    2
    31    12     3    1
    32     4     3    1
    33     3     2   am
    34     2     1    2
    35     2    32    1
    36    33    32    2
    37    33    34    1
    38    32    38    1
    39    34    35    2
    40    38    36    2
    41    35    36    1
    42    36    37    1
