@<TRIPOS>MOLECULE
67310_out_ligand_01.pdbqt
 31 34 0 0 0
SMALL
GASTEIGER

@<TRIPOS>ATOM
      1  C         23.3020  -21.8380  -10.7760 C.2     1  UNL1        0.0800
      2  C         23.1690  -22.0570   -9.4100 C.2     1  UNL1        0.0270
      3  C         21.8910  -22.1780   -8.8520 C.2     1  UNL1        0.0320
      4  C         20.7270  -22.0620   -9.6320 C.2     1  UNL1        0.0430
      5  C         20.8860  -21.8110  -11.0150 C.2     1  UNL1       -0.0300
      6  C         22.1700  -21.7020  -11.5780 C.2     1  UNL1        0.0340
      7  C         19.7070  -21.6870  -11.9440 C.3     1  UNL1        0.0420
      8  C         18.4550  -21.3120  -11.1820 C.3     1  UNL1        0.0250
      9  C         18.2810  -22.2690  -10.0170 C.3     1  UNL1        0.1330
     10  N         19.4060  -22.2280   -9.0710 N.am    1  UNL1       -0.3130
     11  C         19.1770  -22.3220   -7.6860 C.2     1  UNL1        0.2580
     12  O         19.9350  -21.9520   -6.7920 O.2     1  UNL1       -0.2670
     13  S         24.9220  -21.7140  -11.4970 S.O2    1  UNL1        0.2630
     14  O         25.7070  -20.8040  -10.6900 O.2     1  UNL1       -0.2000
     15  O         25.3820  -23.0600  -11.7710 O.2     1  UNL1       -0.2000
     16  N         24.6130  -21.0100  -13.0040 N.pl3   1  UNL1       -0.2810
     17  H         24.5760  -19.9940  -12.9430 H       1  UNL1        0.1790
     18  C         25.2100  -21.5800  -14.1630 C.2     1  UNL1        0.0430
     19  C         26.5650  -21.3920  -14.4290 C.2     1  UNL1        0.0300
     20  C         27.1210  -21.9070  -15.5990 C.2     1  UNL1        0.0030
     21  C         26.3230  -22.6090  -16.5040 C.2     1  UNL1        0.0070
     22  C         24.9630  -22.8130  -16.2380 C.2     1  UNL1       -0.0600
     23  C         24.0940  -23.5300  -17.2290 C.3     1  UNL1        0.0480
     24  C         24.4090  -22.2840  -15.0640 C.2     1  UNL1        0.0370
     25  C         17.8990  -22.9160   -7.2230 C.2     1  UNL1        0.0340
     26  C         17.7160  -24.2990   -7.3280 C.2     1  UNL1        0.0170
     27  C         16.5090  -24.8710   -6.9200 C.2     1  UNL1        0.0030
     28  C         15.4880  -24.0590   -6.4240 C.2     1  UNL1        0.0240
     29  C         15.6690  -22.6770   -6.3480 C.2     1  UNL1        0.0350
     30 CL         14.4020  -21.6810   -5.7480 Cl      1  UNL1       -0.0840
     31  C         16.8690  -22.0950   -6.7530 C.2     1  UNL1        0.0410
@<TRIPOS>BOND
     1    23    22    1
     2    21    22    2
     3    21    20    1
     4    22    24    1
     5    20    19    2
     6    24    18    2
     7    19    18    1
     8    18    16    1
     9    16    17    1
    10    16    13    1
    11     7     8    1
    12     7     5    1
    13    15    13    2
    14     6     5    1
    15     6     1    2
    16    13     1    1
    17    13    14    2
    18     8     9    1
    19     5     4    2
    20     1     2    1
    21     9    10    1
    22     4    10    1
    23     4     3    1
    24     2     3    2
    25    10    11   am
    26    11    25    1
    27    11    12    2
    28    26    25    2
    29    26    27    1
    30    25    31    1
    31    27    28    2
    32    31    29    2
    33    28    29    1
    34    29    30    1
