@<TRIPOS>MOLECULE
67329_out_ligand_01.pdbqt
 31 34 0 0 0
SMALL
GASTEIGER

@<TRIPOS>ATOM
      1  C         19.0630  -23.7240   -8.3520 C.2     1  UNL1        0.2580
      2  O         19.6220  -24.7690   -8.0270 O.2     1  UNL1       -0.2670
      3  N         19.4410  -22.8660   -9.4040 N.am    1  UNL1       -0.3130
      4  C         18.4710  -21.9180   -9.9740 C.3     1  UNL1        0.1330
      5  C         18.6000  -21.7770  -11.4790 C.3     1  UNL1        0.0250
      6  C         19.9850  -21.2700  -11.8110 C.3     1  UNL1        0.0420
      7  C         21.0390  -22.1130  -11.1420 C.2     1  UNL1       -0.0300
      8  C         22.3370  -22.0820  -11.6870 C.2     1  UNL1        0.0340
      9  C         23.3620  -22.8180  -11.0970 C.2     1  UNL1        0.0800
     10  C         23.1050  -23.6050   -9.9800 C.2     1  UNL1        0.0270
     11  C         21.8180  -23.6240   -9.4300 C.2     1  UNL1        0.0320
     12  C         20.7620  -22.8840   -9.9900 C.2     1  UNL1        0.0430
     13  S         25.0030  -22.7640  -11.7780 S.O2    1  UNL1        0.2630
     14  O         25.9390  -22.8310  -10.6760 O.2     1  UNL1       -0.2000
     15  O         25.0670  -23.7030  -12.8770 O.2     1  UNL1       -0.2000
     16  N         25.1040  -21.1860  -12.3850 N.pl3   1  UNL1       -0.2810
     17  H         24.4090  -20.5760  -11.9560 H       1  UNL1        0.1790
     18  C         25.4060  -20.9930  -13.7590 C.2     1  UNL1        0.0420
     19  C         24.3620  -20.9650  -14.6870 C.2     1  UNL1        0.0320
     20  C         24.6430  -20.8290  -16.0480 C.2     1  UNL1        0.0260
     21  C         25.9660  -20.7190  -16.4750 C.2     1  UNL1        0.0340
     22 CL         26.3100  -20.5630  -18.1530 Cl      1  UNL1       -0.0840
     23  C         27.0090  -20.7410  -15.5520 C.2     1  UNL1        0.0260
     24  C         26.7280  -20.8780  -14.1910 C.2     1  UNL1        0.0320
     25  C         17.8710  -23.3620   -7.5470 C.2     1  UNL1        0.0320
     26  C         17.9820  -22.4770   -6.4700 C.2     1  UNL1        0.0170
     27  C         16.8520  -22.1630   -5.7120 C.2     1  UNL1        0.0070
     28  C         15.6100  -22.7350   -6.0220 C.2     1  UNL1       -0.0620
     29  C         14.4040  -22.4260   -5.1830 C.3     1  UNL1        0.0480
     30  C         15.5190  -23.6500   -7.0790 C.2     1  UNL1        0.0070
     31  C         16.6460  -23.9670   -7.8390 C.2     1  UNL1        0.0170
@<TRIPOS>BOND
     1    22    21    1
     2    21    20    2
     3    21    23    1
     4    20    19    1
     5    23    24    2
     6    19    18    2
     7    24    18    1
     8    18    16    1
     9    15    13    2
    10    16    17    1
    11    16    13    1
    12     6     5    1
    13     6     7    1
    14    13     9    1
    15    13    14    2
    16     8     7    2
    17     8     9    1
    18     5     4    1
    19     7    12    1
    20     9    10    2
    21    12    11    2
    22    12     3    1
    23    10    11    1
    24     4     3    1
    25     3     1   am
    26     1     2    2
    27     1    25    1
    28    31    25    2
    29    31    30    1
    30    25    26    1
    31    30    28    2
    32    26    27    2
    33    28    27    1
    34    28    29    1
