@<TRIPOS>MOLECULE
67327_out_ligand_01.pdbqt
 31 34 0 0 0
SMALL
GASTEIGER

@<TRIPOS>ATOM
      1  C         22.5040  -22.9030  -10.7010 C.2     1  UNL1        0.2580
      2  O         22.7750  -24.0380  -10.3170 O.2     1  UNL1       -0.2670
      3  N         21.2260  -22.3120  -10.7240 N.am    1  UNL1       -0.3130
      4  C         20.9480  -21.1760  -11.6150 C.3     1  UNL1        0.1330
      5  C         19.5720  -21.2510  -12.2490 C.3     1  UNL1        0.0250
      6  C         18.5230  -21.2450  -11.1570 C.3     1  UNL1        0.0420
      7  C         18.8250  -22.2880  -10.1150 C.2     1  UNL1       -0.0300
      8  C         17.7610  -22.7230   -9.3040 C.2     1  UNL1        0.0340
      9  C         17.9820  -23.6680   -8.3040 C.2     1  UNL1        0.0750
     10  C         19.2530  -24.2000   -8.1130 C.2     1  UNL1        0.0270
     11  C         20.3140  -23.7570   -8.9090 C.2     1  UNL1        0.0320
     12  C         20.1300  -22.8000   -9.9220 C.2     1  UNL1        0.0430
     13  S         16.6350  -24.2180   -7.2820 S.O2    1  UNL1        0.2460
     14  O         15.5800  -24.6990   -8.1500 O.2     1  UNL1       -0.2060
     15  O         17.1900  -25.0580   -6.2420 O.2     1  UNL1       -0.2060
     16  N         16.1220  -22.7950   -6.5230 N.pl3   1  UNL1       -0.1780
     17  H         15.1300  -22.8550   -6.2850 H       1  UNL1        0.1460
     18  C         16.9610  -22.2310   -5.5110 C.2     1  UNL1        0.0610
     19  C         18.1410  -21.5670   -5.8410 C.2     1  UNL1        0.0270
     20  C         18.9600  -21.0620   -4.8270 C.2     1  UNL1        0.0020
     21  C         18.6020  -21.2220   -3.4850 C.2     1  UNL1        0.0030
     22  C         17.4210  -21.8850   -3.1540 C.2     1  UNL1        0.0440
     23  C         16.6100  -22.3840   -4.1670 C.2     1  UNL1        0.1380
     24  F         15.4770  -23.0260   -3.8440 F       1  UNL1       -0.2040
     25  C         23.6540  -22.1040  -11.1950 C.2     1  UNL1        0.0320
     26  C         24.5670  -21.5420  -10.2970 C.2     1  UNL1        0.0170
     27  C         25.6510  -20.8080  -10.7820 C.2     1  UNL1        0.0070
     28  C         25.8330  -20.6380  -12.1610 C.2     1  UNL1       -0.0620
     29  C         27.0220  -19.8830  -12.6810 C.3     1  UNL1        0.0480
     30  C         24.9350  -21.2400  -13.0520 C.2     1  UNL1        0.0070
     31  C         23.8480  -21.9740  -12.5730 C.2     1  UNL1        0.0170
@<TRIPOS>BOND
     1    30    31    1
     2    30    28    2
     3    29    28    1
     4    31    25    2
     5     5     4    1
     6     5     6    1
     7    28    27    1
     8     4     3    1
     9    25     1    1
    10    25    26    1
    11     6     7    1
    12    27    26    2
    13     3     1   am
    14     3    12    1
    15     1     2    2
    16     7    12    2
    17     7     8    1
    18    12    11    1
    19     8     9    2
    20    11    10    2
    21     9    10    1
    22     9    13    1
    23    14    13    2
    24    13    16    1
    25    13    15    2
    26    16    17    1
    27    16    18    1
    28    19    18    2
    29    19    20    1
    30    18    23    1
    31    20    21    2
    32    23    24    1
    33    23    22    2
    34    21    22    1
