@<TRIPOS>MOLECULE
67320_out_ligand_01.pdbqt
 35 38 0 0 0
SMALL
GASTEIGER

@<TRIPOS>ATOM
      1  C         17.6480  -23.6010   -8.5540 C.2     1  UNL1        0.1020
      2  C         19.0380  -23.8240   -8.4790 C.2     1  UNL1        0.0440
      3  C         19.8910  -23.2550   -9.4310 C.2     1  UNL1        0.0330
      4  C         19.3510  -22.4520  -10.4450 C.2     1  UNL1        0.0190
      5  C         17.9720  -22.2340  -10.5170 C.2     1  UNL1        0.0260
      6  C         17.1110  -22.8080   -9.5730 C.2     1  UNL1        0.0570
      7 CL         15.4330  -22.4370   -9.7360 Cl      1  UNL1       -0.0830
      8  C         21.3690  -23.4350   -9.3930 C.2     1  UNL1        0.2510
      9  O         21.8350  -24.5190   -9.0590 O.2     1  UNL1       -0.2680
     10  N         22.1390  -22.3390   -9.7180 N.am    1  UNL1       -0.3530
     11  H         21.7290  -21.4270   -9.8570 H       1  UNL1        0.1630
     12  C         23.5880  -22.3890   -9.6730 C.3     1  UNL1        0.1610
     13  C         24.1830  -21.8570  -10.9480 C.2     1  UNL1       -0.0400
     14  C         23.4990  -21.9940  -12.1610 C.2     1  UNL1        0.0110
     15  C         24.0460  -21.4830  -13.3490 C.2     1  UNL1        0.0300
     16  C         25.2770  -20.8100  -13.3780 C.2     1  UNL1        0.0300
     17  C         25.9460  -20.7020  -12.1510 C.2     1  UNL1        0.0300
     18  C         25.4180  -21.2120  -10.9560 C.2     1  UNL1        0.0110
     19  N         25.8010  -20.2860  -14.5420 N.pl3   1  UNL1       -0.3810
     20  C         26.2540  -18.9030  -14.6960 C.3     1  UNL1        0.1230
     21  C         26.9160  -18.8830  -16.0720 C.3     1  UNL1        0.0210
     22  C         26.1300  -19.9360  -16.8440 C.3     1  UNL1        0.0210
     23  C         25.8950  -21.0250  -15.8010 C.3     1  UNL1        0.1230
     24  S         16.6180  -24.3610   -7.3280 S.O2    1  UNL1        0.2640
     25  O         15.4840  -24.9460   -8.0080 O.2     1  UNL1       -0.2000
     26  O         17.4530  -25.1830   -6.4740 O.2     1  UNL1       -0.2000
     27  N         16.0450  -23.0480   -6.4290 N.pl3   1  UNL1       -0.2810
     28  H         15.0600  -23.1650   -6.1770 H       1  UNL1        0.1790
     29  C         16.9120  -22.4730   -5.4610 C.2     1  UNL1        0.0430
     30  C         16.6370  -22.6390   -4.1070 C.2     1  UNL1        0.0300
     31  C         17.4490  -22.0250   -3.1540 C.2     1  UNL1        0.0030
     32  C         18.5270  -21.2410   -3.5570 C.2     1  UNL1        0.0070
     33  C         18.8270  -21.0920   -4.9190 C.2     1  UNL1       -0.0600
     34  C         19.9800  -20.2390   -5.3540 C.3     1  UNL1        0.0480
     35  C         17.9980  -21.7010   -5.8710 C.2     1  UNL1        0.0370
@<TRIPOS>BOND
     1    22    21    1
     2    22    23    1
     3    21    20    1
     4    23    19    1
     5    20    19    1
     6    19    16    1
     7    16    15    2
     8    16    17    1
     9    15    14    1
    10    14    13    2
    11    17    18    2
    12    18    13    1
    13    13    12    1
    14     5     4    2
    15     5     6    1
    16     4     3    1
    17    11    10    1
    18     7     6    1
    19    10    12    1
    20    10     8   am
    21     6     1    2
    22     3     8    1
    23     3     2    2
    24     8     9    2
    25     1     2    1
    26     1    24    1
    27    25    24    2
    28    24    26    2
    29    24    27    1
    30    27    28    1
    31    27    29    1
    32    35    29    2
    33    35    33    1
    34    29    30    1
    35    34    33    1
    36    33    32    2
    37    30    31    2
    38    32    31    1
