@<TRIPOS>MOLECULE
67322_out_ligand_01.pdbqt
 31 34 0 0 0
SMALL
GASTEIGER

@<TRIPOS>ATOM
      1  C         17.8680  -23.3530   -8.9970 C.2     1  UNL1        0.0800
      2  C         19.0570  -23.8520   -8.4780 C.2     1  UNL1        0.0270
      3  C         20.2760  -23.4720   -9.0530 C.2     1  UNL1        0.0320
      4  C         20.3370  -22.5750  -10.1330 C.2     1  UNL1        0.0430
      5  C         19.1160  -22.0640  -10.6330 C.2     1  UNL1       -0.0300
      6  C         17.8900  -22.4590  -10.0650 C.2     1  UNL1        0.0340
      7  C         19.0670  -21.1140  -11.8000 C.3     1  UNL1        0.0420
      8  C         20.3870  -20.3920  -11.9650 C.3     1  UNL1        0.0250
      9  C         21.5100  -21.4140  -11.9900 C.3     1  UNL1        0.1330
     10  N         21.5870  -22.2050  -10.7540 N.am    1  UNL1       -0.3130
     11  C         22.8380  -22.5440  -10.2020 C.2     1  UNL1        0.2580
     12  O         23.0580  -22.8590   -9.0340 O.2     1  UNL1       -0.2670
     13  S         16.3210  -23.8360   -8.2760 S.O2    1  UNL1        0.2630
     14  O         16.5480  -24.9640   -7.3980 O.2     1  UNL1       -0.2000
     15  O         15.3490  -23.9140   -9.3460 O.2     1  UNL1       -0.2000
     16  N         15.9000  -22.4790   -7.3650 N.pl3   1  UNL1       -0.2800
     17  H         15.0740  -22.0130   -7.7360 H       1  UNL1        0.1790
     18  C         16.0650  -22.5280   -5.9520 C.2     1  UNL1        0.0490
     19  C         15.0060  -23.0430   -5.2020 C.2     1  UNL1        0.0310
     20  C         15.0870  -23.0900   -3.8150 C.2     1  UNL1        0.0030
     21  C         16.2250  -22.6090   -3.1720 C.2     1  UNL1        0.0070
     22  C         17.2960  -22.0770   -3.9090 C.2     1  UNL1       -0.0540
     23  C         18.4980  -21.5600   -3.1630 C.3     1  UNL1        0.0490
     24  C         17.2320  -22.0510   -5.3220 C.2     1  UNL1       -0.0290
     25  C         18.3710  -21.4620   -6.1160 C.3     1  UNL1        0.0510
     26  C         24.0260  -22.5150  -11.0890 C.2     1  UNL1        0.0320
     27  C         24.1550  -23.4360  -12.1360 C.2     1  UNL1        0.0170
     28  C         25.2890  -23.4040  -12.9480 C.2     1  UNL1        0.0010
     29  C         26.2940  -22.4660  -12.7050 C.2     1  UNL1        0.0000
     30  C         26.1770  -21.5660  -11.6450 C.2     1  UNL1        0.0010
     31  C         25.0450  -21.5940  -10.8290 C.2     1  UNL1        0.0170
@<TRIPOS>BOND
     1    28    29    2
     2    28    27    1
     3    29    30    1
     4    27    26    2
     5     9     8    1
     6     9    10    1
     7     8     7    1
     8     7     5    1
     9    30    31    2
    10    26    31    1
    11    26    11    1
    12    10    11   am
    13    10     4    1
    14     5     4    2
    15     5     6    1
    16    11    12    2
    17     4     3    1
    18     6     1    2
    19    15    13    2
    20     3     2    2
    21     1     2    1
    22     1    13    1
    23    13    14    2
    24    13    16    1
    25    17    16    1
    26    16    18    1
    27    25    24    1
    28    18    24    2
    29    18    19    1
    30    24    22    1
    31    19    20    2
    32    22    21    2
    33    22    23    1
    34    20    21    1
