@<TRIPOS>MOLECULE
67321_out_ligand_01.pdbqt
 30 33 0 0 0
SMALL
GASTEIGER

@<TRIPOS>ATOM
      1  C         22.3880  -22.5360   -9.5210 C.2     1  UNL1        0.0800
      2  C         22.2470  -22.2230   -8.1740 C.2     1  UNL1        0.0270
      3  C         20.9710  -22.2130   -7.5970 C.2     1  UNL1        0.0320
      4  C         19.8150  -22.4870   -8.3490 C.2     1  UNL1        0.0430
      5  C         19.9800  -22.7850   -9.7220 C.2     1  UNL1       -0.0300
      6  C         21.2640  -22.8100  -10.2990 C.2     1  UNL1        0.0340
      7  C         18.8120  -23.1150  -10.6130 C.3     1  UNL1        0.0420
      8  C         17.5240  -22.5620  -10.0420 C.3     1  UNL1        0.0250
      9  C         17.3970  -22.9980   -8.5940 C.3     1  UNL1        0.1330
     10  N         18.5010  -22.5120   -7.7540 N.am    1  UNL1       -0.3130
     11  C         18.2530  -22.0630   -6.4420 C.2     1  UNL1        0.2580
     12  O         18.9680  -21.3140   -5.7800 O.2     1  UNL1       -0.2670
     13  S         24.0010  -22.5580  -10.2550 S.O2    1  UNL1        0.2630
     14  O         24.7780  -23.5680   -9.5670 O.2     1  UNL1       -0.2000
     15  O         24.4860  -21.1990  -10.3660 O.2     1  UNL1       -0.2000
     16  N         23.6970  -23.1770  -11.7990 N.pl3   1  UNL1       -0.2810
     17  H         23.8420  -24.1850  -11.8170 H       1  UNL1        0.1790
     18  C         24.1550  -22.4290  -12.9170 C.2     1  UNL1        0.0420
     19  C         23.3090  -21.5120  -13.5380 C.2     1  UNL1        0.0300
     20  C         23.7540  -20.8060  -14.6590 C.2     1  UNL1        0.0090
     21  C         25.0460  -21.0090  -15.1590 C.2     1  UNL1       -0.0620
     22  C         25.5100  -20.2760  -16.3830 C.3     1  UNL1        0.0480
     23  C         25.8790  -21.9500  -14.5390 C.2     1  UNL1        0.0090
     24  C         25.4340  -22.6570  -13.4190 C.2     1  UNL1        0.0300
     25  C         17.0080  -22.5120   -5.7710 C.2     1  UNL1        0.0320
     26  C         17.0960  -23.4190   -4.7100 C.2     1  UNL1        0.0170
     27  C         15.9330  -23.8630   -4.0810 C.2     1  UNL1        0.0010
     28  C         14.6870  -23.4150   -4.5230 C.2     1  UNL1        0.0000
     29  C         14.5980  -22.5310   -5.6000 C.2     1  UNL1        0.0010
     30  C         15.7570  -22.0830   -6.2320 C.2     1  UNL1        0.0170
@<TRIPOS>BOND
     1    22    21    1
     2    21    20    2
     3    21    23    1
     4    20    19    1
     5    23    24    2
     6    19    18    2
     7    24    18    1
     8    18    16    1
     9    17    16    1
    10    16    13    1
    11     7     8    1
    12     7     5    1
    13    15    13    2
    14     6     5    1
    15     6     1    2
    16    13    14    2
    17    13     1    1
    18     8     9    1
    19     5     4    2
    20     1     2    1
    21     9    10    1
    22     4    10    1
    23     4     3    1
    24     2     3    2
    25    10    11   am
    26    11    12    2
    27    11    25    1
    28    30    25    2
    29    30    29    1
    30    25    26    1
    31    29    28    2
    32    26    27    2
    33    28    27    1
