@<TRIPOS>MOLECULE
67328_out_ligand_01.pdbqt
 31 34 0 0 0
SMALL
GASTEIGER

@<TRIPOS>ATOM
      1  C         22.4940  -22.8970  -10.6490 C.2     1  UNL1        0.2580
      2  O         22.7710  -24.0300  -10.2630 O.2     1  UNL1       -0.2670
      3  N         21.2160  -22.3060  -10.6590 N.am    1  UNL1       -0.3130
      4  C         20.9310  -21.1670  -11.5460 C.3     1  UNL1        0.1330
      5  C         19.5450  -21.2350  -12.1600 C.3     1  UNL1        0.0250
      6  C         18.5120  -21.2240  -11.0530 C.3     1  UNL1        0.0420
      7  C         18.8210  -22.2740  -10.0190 C.2     1  UNL1       -0.0300
      8  C         17.7640  -22.7100   -9.1990 C.2     1  UNL1        0.0340
      9  C         17.9910  -23.6690   -8.2130 C.2     1  UNL1        0.0750
     10  C         19.2630  -24.2030   -8.0370 C.2     1  UNL1        0.0270
     11  C         20.3170  -23.7580   -8.8410 C.2     1  UNL1        0.0320
     12  C         20.1260  -22.7940   -9.8460 C.2     1  UNL1        0.0430
     13  S         16.6590  -24.2210   -7.1810 S.O2    1  UNL1        0.2450
     14  O         17.2390  -25.0560   -6.1500 O.2     1  UNL1       -0.2060
     15  O         15.5860  -24.7010   -8.0250 O.2     1  UNL1       -0.2060
     16  N         16.1750  -22.7870   -6.4130 N.pl3   1  UNL1       -0.1800
     17  H         15.8450  -22.1340   -7.1270 H       1  UNL1        0.1460
     18  C         17.0840  -22.2360   -5.4520 C.2     1  UNL1        0.0440
     19  C         18.1230  -21.4130   -5.8910 C.2     1  UNL1        0.0260
     20  C         18.9830  -20.8180   -4.9660 C.2     1  UNL1        0.0020
     21  C         18.8010  -21.0360   -3.6000 C.2     1  UNL1        0.0020
     22  C         17.7600  -21.8530   -3.1540 C.2     1  UNL1        0.0260
     23  C         16.9010  -22.4500   -4.0770 C.2     1  UNL1        0.0560
     24 CL         15.6360  -23.4710   -3.4930 Cl      1  UNL1       -0.0820
     25  C         23.6380  -22.1020  -11.1610 C.2     1  UNL1        0.0320
     26  C         24.4780  -21.4150  -10.2790 C.2     1  UNL1        0.0170
     27  C         25.5590  -20.6870  -10.7780 C.2     1  UNL1        0.0070
     28  C         25.8090  -20.6440  -12.1570 C.2     1  UNL1       -0.0620
     29  C         26.9950  -19.8930  -12.6880 C.3     1  UNL1        0.0480
     30  C         24.9840  -21.3690  -13.0280 C.2     1  UNL1        0.0070
     31  C         23.9030  -22.0980  -12.5330 C.2     1  UNL1        0.0170
@<TRIPOS>BOND
     1    30    31    1
     2    30    28    2
     3    29    28    1
     4    31    25    2
     5     5     4    1
     6     5     6    1
     7    28    27    1
     8     4     3    1
     9    25     1    1
    10    25    26    1
    11     6     7    1
    12    27    26    2
    13     3     1   am
    14     3    12    1
    15     1     2    2
    16     7    12    2
    17     7     8    1
    18    12    11    1
    19     8     9    2
    20    11    10    2
    21     9    10    1
    22     9    13    1
    23    15    13    2
    24    13    16    1
    25    13    14    2
    26    17    16    1
    27    16    18    1
    28    19    18    2
    29    19    20    1
    30    18    23    1
    31    20    21    2
    32    23    24    1
    33    23    22    2
    34    21    22    1
