@<TRIPOS>MOLECULE
67337_out_ligand_01.pdbqt
 30 33 0 0 0
SMALL
GASTEIGER

@<TRIPOS>ATOM
      1  O         18.9920  -21.3680   -5.7910 O.2     1  UNL1       -0.2670
      2  C         18.2710  -22.0950   -6.4690 C.2     1  UNL1        0.2580
      3  N         18.5170  -22.5190   -7.7900 N.am    1  UNL1       -0.3130
      4  C         17.4090  -22.9780   -8.6420 C.3     1  UNL1        0.1330
      5  C         17.5440  -22.5150  -10.0810 C.3     1  UNL1        0.0250
      6  C         18.8280  -23.0700  -10.6600 C.3     1  UNL1        0.0420
      7  C         19.9980  -22.7660   -9.7610 C.2     1  UNL1       -0.0300
      8  C         21.2820  -22.7910  -10.3370 C.2     1  UNL1        0.0340
      9  C         22.4050  -22.5330   -9.5550 C.2     1  UNL1        0.0750
     10  C         22.2650  -22.2470   -8.2010 C.2     1  UNL1        0.0270
     11  C         20.9900  -22.2400   -7.6250 C.2     1  UNL1        0.0320
     12  C         19.8340  -22.4930   -8.3830 C.2     1  UNL1        0.0430
     13  S         24.0250  -22.5580  -10.2790 S.O2    1  UNL1        0.2460
     14  O         24.7800  -23.5860   -9.5960 O.2     1  UNL1       -0.2060
     15  O         24.5130  -21.1990  -10.3700 O.2     1  UNL1       -0.2060
     16  N         23.7150  -23.1530  -11.8380 N.pl3   1  UNL1       -0.1780
     17  H         23.9540  -24.1470  -11.8580 H       1  UNL1        0.1460
     18  C         24.2260  -22.3830  -12.9280 C.2     1  UNL1        0.0610
     19  C         25.5440  -22.5470  -13.3520 C.2     1  UNL1        0.0270
     20  C         26.0110  -21.8310  -14.4590 C.2     1  UNL1        0.0020
     21  C         25.1590  -20.9640  -15.1460 C.2     1  UNL1        0.0030
     22  C         23.8370  -20.8050  -14.7290 C.2     1  UNL1        0.0440
     23  C         23.3790  -21.5170  -13.6260 C.2     1  UNL1        0.1380
     24  F         22.1090  -21.3590  -13.2230 F       1  UNL1       -0.2040
     25  C         17.0200  -22.5440   -5.8110 C.2     1  UNL1        0.0320
     26  C         17.0950  -23.4900   -4.7840 C.2     1  UNL1        0.0170
     27  C         15.9260  -23.9350   -4.1670 C.2     1  UNL1        0.0010
     28  C         14.6860  -23.4470   -4.5870 C.2     1  UNL1        0.0000
     29  C         14.6100  -22.5230   -5.6300 C.2     1  UNL1        0.0010
     30  C         15.7770  -22.0740   -6.2510 C.2     1  UNL1        0.0170
@<TRIPOS>BOND
     1    21    22    2
     2    21    20    1
     3    22    23    1
     4    20    19    2
     5    23    24    1
     6    23    18    2
     7    19    18    1
     8    18    16    1
     9    17    16    1
    10    16    13    1
    11     6     5    1
    12     6     7    1
    13    15    13    2
    14     8     7    2
    15     8     9    1
    16    13    14    2
    17    13     9    1
    18     5     4    1
    19     7    12    1
    20     9    10    2
    21     4     3    1
    22    12     3    1
    23    12    11    2
    24    10    11    1
    25     3     2   am
    26     2    25    1
    27     2     1    2
    28    30    25    2
    29    30    29    1
    30    25    26    1
    31    29    28    2
    32    26    27    2
    33    28    27    1
