@<TRIPOS>MOLECULE
67335_out_ligand_01.pdbqt
 33 36 0 0 0
SMALL
GASTEIGER

@<TRIPOS>ATOM
      1  C         18.5000  -23.6300   -8.4850 C.2     1  UNL1        0.0750
      2  C         19.7880  -24.0320   -8.1510 C.2     1  UNL1        0.0270
      3  C         20.8670  -23.6270   -8.9460 C.2     1  UNL1        0.0320
      4  C         20.6880  -22.8010  -10.0700 C.2     1  UNL1        0.0430
      5  C         19.3710  -22.3900  -10.3810 C.2     1  UNL1       -0.0300
      6  C         18.2840  -22.8120   -9.5920 C.2     1  UNL1        0.0340
      7  C         19.0670  -21.5220  -11.5740 C.3     1  UNL1        0.0420
      8  C         20.2920  -20.7410  -12.0000 C.3     1  UNL1        0.0250
      9  C         21.4580  -21.6990  -12.1610 C.3     1  UNL1        0.1330
     10  N         21.7910  -22.4050  -10.9140 N.am    1  UNL1       -0.3130
     11  C         23.1350  -22.6390  -10.5670 C.2     1  UNL1        0.2580
     12  O         23.5680  -22.8670   -9.4400 O.2     1  UNL1       -0.2670
     13  S         17.1340  -24.1610   -7.4850 S.O2    1  UNL1        0.2450
     14  O         16.1350  -24.6950   -8.3840 O.2     1  UNL1       -0.2060
     15  O         17.6460  -24.9410   -6.3770 O.2     1  UNL1       -0.2060
     16  N         16.5240  -22.6880   -6.8880 N.pl3   1  UNL1       -0.1800
     17  H         15.5060  -22.8050   -6.7780 H       1  UNL1        0.1460
     18  C         17.1830  -22.1550   -5.7270 C.2     1  UNL1        0.0390
     19  C         18.4130  -21.5130   -5.9060 C.2     1  UNL1        0.0250
     20  C         19.1350  -21.0530   -4.8050 C.2     1  UNL1        0.0020
     21  C         18.6370  -21.2380   -3.5160 C.2     1  UNL1        0.0010
     22  C         17.4120  -21.8800   -3.3260 C.2     1  UNL1        0.0190
     23  C         16.6770  -22.3470   -4.4270 C.2     1  UNL1        0.0610
     24  C         15.3550  -22.9970   -4.2400 C.2     1  UNL1        0.2940
     25  O         15.2020  -24.2100   -4.2490 O.2     1  UNL1       -0.2590
     26  O         14.3820  -22.0700   -4.0580 O.3     1  UNL1       -0.3220
     27  C         13.7510  -21.6490   -5.2680 C.3     1  UNL1        0.2130
     28  C         24.1540  -22.6020  -11.6450 C.2     1  UNL1        0.0320
     29  C         24.9950  -21.4890  -11.7450 C.2     1  UNL1        0.0170
     30  C         25.9700  -21.4460  -12.7420 C.2     1  UNL1        0.0010
     31  C         26.1120  -22.5180  -13.6260 C.2     1  UNL1        0.0000
     32  C         25.2890  -23.6400  -13.5090 C.2     1  UNL1        0.0010
     33  C         24.3120  -23.6880  -12.5140 C.2     1  UNL1        0.0170
@<TRIPOS>BOND
     1    31    32    2
     2    31    30    1
     3    32    33    1
     4    30    29    2
     5    33    28    2
     6     9     8    1
     7     9    10    1
     8     8     7    1
     9    29    28    1
    10    28    11    1
    11     7     5    1
    12    10    11   am
    13    10     4    1
    14    11    12    2
    15     5     4    2
    16     5     6    1
    17     4     3    1
    18     6     1    2
    19     3     2    2
    20     1     2    1
    21     1    13    1
    22    14    13    2
    23    13    16    1
    24    13    15    2
    25    16    17    1
    26    16    18    1
    27    19    18    2
    28    19    20    1
    29    18    23    1
    30    27    26    1
    31    20    21    2
    32    23    24    1
    33    23    22    2
    34    25    24    2
    35    24    26    1
    36    21    22    1
