@<TRIPOS>MOLECULE
67339_out_ligand_01.pdbqt
 30 33 0 0 0
SMALL
GASTEIGER

@<TRIPOS>ATOM
      1  O         19.0120  -21.2560   -5.8610 O.2     1  UNL1       -0.2670
      2  C         18.3220  -22.0540   -6.4880 C.2     1  UNL1        0.2580
      3  N         18.5780  -22.5410   -7.7840 N.am    1  UNL1       -0.3130
      4  C         17.4860  -23.0810   -8.6060 C.3     1  UNL1        0.1330
      5  C         17.6020  -22.6830  -10.0660 C.3     1  UNL1        0.0250
      6  C         18.9020  -23.2240  -10.6230 C.3     1  UNL1        0.0420
      7  C         20.0640  -22.8490   -9.7430 C.2     1  UNL1       -0.0300
      8  C         21.3510  -22.8790  -10.3140 C.2     1  UNL1        0.0340
      9  C         22.4680  -22.5650   -9.5420 C.2     1  UNL1        0.0800
     10  C         22.3180  -22.1970   -8.2100 C.2     1  UNL1        0.0270
     11  C         21.0400  -22.1850   -7.6370 C.2     1  UNL1        0.0320
     12  C         19.8920  -22.5090   -8.3810 C.2     1  UNL1        0.0430
     13  S         24.0880  -22.6260  -10.2710 S.O2    1  UNL1        0.2630
     14  O         24.8920  -23.5650   -9.5190 O.2     1  UNL1       -0.2000
     15  O         24.5230  -21.2610  -10.4800 O.2     1  UNL1       -0.2000
     16  N         23.7830  -23.2580  -11.8120 N.pl3   1  UNL1       -0.2810
     17  H         24.0530  -24.2390  -11.8760 H       1  UNL1        0.1790
     18  C         23.9950  -22.4300  -12.9490 C.2     1  UNL1        0.0430
     19  C         23.0310  -21.4980  -13.3380 C.2     1  UNL1        0.0300
     20  C         23.2760  -20.6510  -14.4200 C.2     1  UNL1        0.0040
     21  C         24.4870  -20.7300  -15.1080 C.2     1  UNL1        0.0190
     22  C         25.4460  -21.6610  -14.7110 C.2     1  UNL1        0.0130
     23 BR         27.0960  -21.7560  -15.6290 Br      1  UNL1       -0.0510
     24  C         25.2050  -22.5160  -13.6360 C.2     1  UNL1        0.0490
     25  C         17.0970  -22.5250   -5.7950 C.2     1  UNL1        0.0320
     26  C         17.1910  -23.2660   -4.6100 C.2     1  UNL1        0.0170
     27  C         16.0280  -23.6820   -3.9630 C.2     1  UNL1        0.0010
     28  C         14.7780  -23.3470   -4.4880 C.2     1  UNL1        0.0000
     29  C         14.6860  -22.5860   -5.6550 C.2     1  UNL1        0.0010
     30  C         15.8460  -22.1660   -6.3070 C.2     1  UNL1        0.0170
@<TRIPOS>BOND
     1    23    22    1
     2    21    22    2
     3    21    20    1
     4    22    24    1
     5    20    19    2
     6    24    18    2
     7    19    18    1
     8    18    16    1
     9    17    16    1
    10    16    13    1
    11     6     5    1
    12     6     7    1
    13    15    13    2
    14     8     7    2
    15     8     9    1
    16    13     9    1
    17    13    14    2
    18     5     4    1
    19     7    12    1
    20     9    10    2
    21     4     3    1
    22    12     3    1
    23    12    11    2
    24    10    11    1
    25     3     2   am
    26     2     1    2
    27     2    25    1
    28    30    25    2
    29    30    29    1
    30    25    26    1
    31    29    28    2
    32    26    27    2
    33    28    27    1
