@<TRIPOS>MOLECULE
67336_out_ligand_01.pdbqt
 32 35 0 0 0
SMALL
GASTEIGER

@<TRIPOS>ATOM
      1  O         22.6840  -22.7440   -8.8570 O.2     1  UNL1       -0.2670
      2  C         22.5090  -22.4270  -10.0310 C.2     1  UNL1        0.2580
      3  N         21.2760  -22.1060  -10.6310 N.am    1  UNL1       -0.3130
      4  C         21.2320  -21.2990  -11.8600 C.3     1  UNL1        0.1330
      5  C         20.0910  -20.2990  -11.8600 C.3     1  UNL1        0.0250
      6  C         18.7790  -21.0490  -11.7610 C.3     1  UNL1        0.0420
      7  C         18.8000  -22.0280  -10.6180 C.2     1  UNL1       -0.0300
      8  C         17.5610  -22.4760  -10.1240 C.2     1  UNL1        0.0340
      9  C         17.5170  -23.4170   -9.0960 C.2     1  UNL1        0.0800
     10  C         18.6940  -23.8960   -8.5320 C.2     1  UNL1        0.0270
     11  C         19.9260  -23.4540   -9.0280 C.2     1  UNL1        0.0320
     12  C         20.0100  -22.5220  -10.0770 C.2     1  UNL1        0.0430
     13  S         15.9570  -24.0260   -8.5150 S.O2    1  UNL1        0.2630
     14  O         15.1120  -24.2440   -9.6700 O.2     1  UNL1       -0.2000
     15  O         16.1920  -25.0750   -7.5470 O.2     1  UNL1       -0.2000
     16  N         15.3170  -22.6720   -7.7170 N.pl3   1  UNL1       -0.2810
     17  H         14.3420  -22.5340   -7.9850 H       1  UNL1        0.1790
     18  C         15.6680  -22.4790   -6.3520 C.2     1  UNL1        0.0450
     19  C         14.8040  -22.9240   -5.3500 C.2     1  UNL1        0.0300
     20  C         15.1610  -22.7930   -4.0060 C.2     1  UNL1        0.0050
     21  C         16.3920  -22.2310   -3.6630 C.2     1  UNL1        0.0360
     22  C         17.2580  -21.8000   -4.6760 C.2     1  UNL1        0.1050
     23  C         16.9000  -21.9180   -6.0250 C.2     1  UNL1        0.0660
     24  N         18.5630  -21.2330   -4.3230 N.pl3   1  UNL1       -0.1160
     25  O         18.9500  -21.3640   -3.1530 O.2     1  UNL1       -0.5320
     26  O         19.2040  -20.6620   -5.2160 O.2     1  UNL1       -0.5320
     27  C         23.7310  -22.3720  -10.8700 C.2     1  UNL1        0.0320
     28  C         24.7180  -21.4270  -10.5710 C.2     1  UNL1        0.0170
     29  C         25.8810  -21.3750  -11.3390 C.2     1  UNL1        0.0010
     30  C         26.0650  -22.2760  -12.3900 C.2     1  UNL1        0.0000
     31  C         25.0910  -23.2360  -12.6720 C.2     1  UNL1        0.0010
     32  C         23.9250  -23.2930  -11.9070 C.2     1  UNL1        0.0170
@<TRIPOS>BOND
     1    31    30    2
     2    31    32    1
     3    30    29    1
     4    32    27    2
     5     4     5    1
     6     4     3    1
     7     5     6    1
     8     6     7    1
     9    29    28    2
    10    27    28    1
    11    27     2    1
    12     3    12    1
    13     3     2   am
    14     7     8    2
    15     7    12    1
    16     8     9    1
    17    12    11    2
    18     2     1    2
    19    14    13    2
    20     9    10    2
    21     9    13    1
    22    11    10    1
    23    13    16    1
    24    13    15    2
    25    17    16    1
    26    16    18    1
    27    18    23    2
    28    18    19    1
    29    23    22    1
    30    19    20    2
    31    26    24    2
    32    22    24    1
    33    22    21    2
    34    24    25    2
    35    20    21    1
