@<TRIPOS>MOLECULE
67338_out_ligand_01.pdbqt
 30 33 0 0 0
SMALL
GASTEIGER

@<TRIPOS>ATOM
      1  O         23.0900  -22.6580   -8.9190 O.2     1  UNL1       -0.2670
      2  C         22.7050  -22.4580  -10.0690 C.2     1  UNL1        0.2580
      3  N         21.3690  -22.2970  -10.4860 N.am    1  UNL1       -0.3130
      4  C         21.0630  -21.6180  -11.7540 C.3     1  UNL1        0.1330
      5  C         19.8360  -20.7290  -11.6620 C.3     1  UNL1        0.0250
      6  C         18.6380  -21.5800  -11.2980 C.3     1  UNL1        0.0420
      7  C         18.9270  -22.4240  -10.0840 C.2     1  UNL1       -0.0300
      8  C         17.8280  -22.9100   -9.3530 C.2     1  UNL1        0.0340
      9  C         18.0300  -23.7170   -8.2360 C.2     1  UNL1        0.0800
     10  C         19.3210  -24.0370   -7.8280 C.2     1  UNL1        0.0270
     11  C         20.4130  -23.5660   -8.5640 C.2     1  UNL1        0.0320
     12  C         20.2480  -22.7540   -9.7000 C.2     1  UNL1        0.0430
     13  S         16.6430  -24.3420   -7.3260 S.O2    1  UNL1        0.2630
     14  O         17.1180  -25.2750   -6.3270 O.2     1  UNL1       -0.2000
     15  O         15.6280  -24.7250   -8.2830 O.2     1  UNL1       -0.2000
     16  N         16.0570  -22.9530   -6.5530 N.pl3   1  UNL1       -0.2810
     17  H         15.0550  -23.0420   -6.3780 H       1  UNL1        0.1790
     18  C         16.8590  -22.3720   -5.5340 C.2     1  UNL1        0.0440
     19  C         16.5790  -22.6400   -4.1930 C.2     1  UNL1        0.0300
     20  C         17.3980  -22.1140   -3.1930 C.2     1  UNL1        0.0040
     21  C         18.4990  -21.3280   -3.5360 C.2     1  UNL1        0.0240
     22  C         18.7770  -21.0740   -4.8790 C.2     1  UNL1        0.0360
     23 CL         20.1440  -20.1190   -5.3020 Cl      1  UNL1       -0.0840
     24  C         17.9610  -21.5930   -5.8820 C.2     1  UNL1        0.0540
     25  C         23.7760  -22.3700  -11.0920 C.2     1  UNL1        0.0320
     26  C         23.8450  -23.3020  -12.1340 C.2     1  UNL1        0.0170
     27  C         24.8740  -23.2150  -13.0720 C.2     1  UNL1        0.0010
     28  C         25.8400  -22.2130  -12.9580 C.2     1  UNL1        0.0000
     29  C         25.7820  -21.2980  -11.9050 C.2     1  UNL1        0.0010
     30  C         24.7560  -21.3800  -10.9640 C.2     1  UNL1        0.0170
@<TRIPOS>BOND
     1    27    28    2
     2    27    26    1
     3    28    29    1
     4    26    25    2
     5    29    30    2
     6     4     5    1
     7     4     3    1
     8     5     6    1
     9     6     7    1
    10    25    30    1
    11    25     2    1
    12     3     2   am
    13     3    12    1
    14     7    12    2
    15     7     8    1
    16     2     1    2
    17    12    11    1
    18     8     9    2
    19    11    10    2
    20    15    13    2
    21     9    10    1
    22     9    13    1
    23    13    16    1
    24    13    14    2
    25    16    17    1
    26    16    18    1
    27    24    18    2
    28    24    22    1
    29    18    19    1
    30    23    22    1
    31    22    21    2
    32    19    20    2
    33    21    20    1
