@<TRIPOS>MOLECULE
67330_out_ligand_01.pdbqt
 31 34 0 0 0
SMALL
GASTEIGER

@<TRIPOS>ATOM
      1  C         19.4050  -22.3140   -7.4980 C.2     1  UNL1        0.2580
      2  O         20.2110  -21.9650   -6.6380 O.2     1  UNL1       -0.2670
      3  N         19.6150  -22.3120   -8.8910 N.am    1  UNL1       -0.3130
      4  C         18.4700  -22.3160   -9.8150 C.3     1  UNL1        0.1330
      5  C         18.6970  -21.4460  -11.0370 C.3     1  UNL1        0.0250
      6  C         19.8990  -21.9650  -11.7960 C.3     1  UNL1        0.0420
      7  C         21.0830  -22.1250  -10.8790 C.2     1  UNL1       -0.0300
      8  C         22.3610  -22.1470  -11.4680 C.2     1  UNL1        0.0340
      9  C         23.4940  -22.3230  -10.6770 C.2     1  UNL1        0.0800
     10  C         23.3730  -22.4520   -9.2970 C.2     1  UNL1        0.0270
     11  C         22.1000  -22.4430   -8.7140 C.2     1  UNL1        0.0320
     12  C         20.9330  -22.2830   -9.4810 C.2     1  UNL1        0.0430
     13  S         25.1050  -22.3720  -11.4290 S.O2    1  UNL1        0.2630
     14  O         25.5220  -21.0120  -11.6920 O.2     1  UNL1       -0.2000
     15  O         25.9270  -23.2710  -10.6460 O.2     1  UNL1       -0.2000
     16  N         24.8100  -23.1620  -12.8960 N.pl3   1  UNL1       -0.2810
     17  H         23.9450  -23.6990  -12.8640 H       1  UNL1        0.1790
     18  C         25.1420  -22.5040  -14.1110 C.2     1  UNL1        0.0420
     19  C         26.4320  -22.5810  -14.6360 C.2     1  UNL1        0.0310
     20  C         26.7570  -21.8790  -15.8000 C.2     1  UNL1        0.0200
     21  C         25.7870  -21.1000  -16.4320 C.2     1  UNL1        0.0060
     22  I         26.2720  -20.0410  -18.1520 I       1  UNL1       -0.0450
     23  C         24.4940  -21.0260  -15.9140 C.2     1  UNL1        0.0200
     24  C         24.1710  -21.7300  -14.7510 C.2     1  UNL1        0.0310
     25  C         18.0880  -22.7660   -6.9880 C.2     1  UNL1        0.0320
     26  C         17.2160  -21.8270   -6.4310 C.2     1  UNL1        0.0170
     27  C         15.9800  -22.2390   -5.9310 C.2     1  UNL1        0.0070
     28  C         15.6100  -23.5910   -5.9800 C.2     1  UNL1       -0.0620
     29  C         14.2960  -24.0360   -5.4070 C.3     1  UNL1        0.0480
     30  C         16.5080  -24.5310   -6.5040 C.2     1  UNL1        0.0070
     31  C         17.7460  -24.1230   -7.0060 C.2     1  UNL1        0.0170
@<TRIPOS>BOND
     1    22    21    1
     2    21    23    2
     3    21    20    1
     4    23    24    1
     5    20    19    2
     6    24    18    2
     7    19    18    1
     8    18    16    1
     9    16    17    1
    10    16    13    1
    11     6     5    1
    12     6     7    1
    13    14    13    2
    14     8     7    2
    15     8     9    1
    16    13     9    1
    17    13    15    2
    18     5     4    1
    19     7    12    1
    20     9    10    2
    21     4     3    1
    22    12     3    1
    23    12    11    2
    24    10    11    1
    25     3     1   am
    26     1    25    1
    27     1     2    2
    28    31    25    2
    29    31    30    1
    30    25    26    1
    31    30    28    2
    32    26    27    2
    33    28    27    1
    34    28    29    1
