@<TRIPOS>MOLECULE
67331_out_ligand_01.pdbqt
 32 35 0 0 0
SMALL
GASTEIGER

@<TRIPOS>ATOM
      1  C         22.7300  -22.4730  -10.2880 C.2     1  UNL1        0.2580
      2  O         22.9900  -22.8370   -9.1430 O.2     1  UNL1       -0.2670
      3  N         21.4630  -22.0860  -10.7680 N.am    1  UNL1       -0.3130
      4  C         21.3520  -21.2030  -11.9380 C.3     1  UNL1        0.1330
      5  C         20.2340  -20.1870  -11.7990 C.3     1  UNL1        0.0250
      6  C         18.9170  -20.9190  -11.6500 C.3     1  UNL1        0.0420
      7  C         18.9990  -21.9530  -10.5570 C.2     1  UNL1       -0.0300
      8  C         17.7900  -22.3970   -9.9880 C.2     1  UNL1        0.0340
      9  C         17.8020  -23.3750   -8.9950 C.2     1  UNL1        0.0800
     10  C         19.0090  -23.8940   -8.5370 C.2     1  UNL1        0.0270
     11  C         20.2080  -23.4660   -9.1160 C.2     1  UNL1        0.0320
     12  C         20.2350  -22.4960  -10.1330 C.2     1  UNL1        0.0430
     13  S         16.2700  -23.9460   -8.2970 S.O2    1  UNL1        0.2630
     14  O         15.3250  -24.1380   -9.3740 O.2     1  UNL1       -0.2000
     15  O         16.5830  -25.0190   -7.3760 O.2     1  UNL1       -0.2000
     16  N         15.7740  -22.6470   -7.3380 N.pl3   1  UNL1       -0.2800
     17  H         14.9410  -22.1890   -7.7010 H       1  UNL1        0.1790
     18  C         16.0040  -22.6770   -5.9320 C.2     1  UNL1        0.0500
     19  C         15.0000  -23.2160   -5.1180 C.2     1  UNL1        0.0310
     20  C         15.1340  -23.2110   -3.7320 C.2     1  UNL1        0.0040
     21  C         16.2690  -22.6510   -3.1530 C.2     1  UNL1        0.0240
     22  C         17.2720  -22.1070   -3.9590 C.2     1  UNL1        0.0420
     23 CL         18.6260  -21.3840   -3.1530 Cl      1  UNL1       -0.0840
     24  C         17.1730  -22.1280   -5.3660 C.2     1  UNL1       -0.0130
     25  C         18.2610  -21.5090   -6.2010 C.3     1  UNL1        0.0520
     26  C         23.8810  -22.4360  -11.2270 C.2     1  UNL1        0.0320
     27  C         24.8890  -21.4750  -11.0850 C.2     1  UNL1        0.0170
     28  C         25.9470  -21.4400  -11.9950 C.2     1  UNL1        0.0070
     29  C         26.0000  -22.3560  -13.0570 C.2     1  UNL1       -0.0620
     30  C         27.1200  -22.2870  -14.0540 C.3     1  UNL1        0.0480
     31  C         24.9660  -23.2880  -13.2120 C.2     1  UNL1        0.0070
     32  C         23.9070  -23.3290  -12.3020 C.2     1  UNL1        0.0170
@<TRIPOS>BOND
     1    30    29    1
     2    31    29    2
     3    31    32    1
     4    29    28    1
     5    32    26    2
     6    28    27    2
     7     4     5    1
     8     4     3    1
     9     5     6    1
    10     6     7    1
    11    26    27    1
    12    26     1    1
    13     3     1   am
    14     3    12    1
    15     7    12    2
    16     7     8    1
    17     1     2    2
    18    12    11    1
    19     8     9    2
    20    14    13    2
    21    11    10    2
    22     9    10    1
    23     9    13    1
    24    13    15    2
    25    13    16    1
    26    17    16    1
    27    16    18    1
    28    25    24    1
    29    18    24    2
    30    18    19    1
    31    24    22    1
    32    19    20    2
    33    22    21    2
    34    22    23    1
    35    20    21    1
