@<TRIPOS>MOLECULE
67344_out_ligand_01.pdbqt
 36 40 0 0 0
SMALL
GASTEIGER

@<TRIPOS>ATOM
      1  O         20.0480  -24.6920   -8.4020 O.2     1  UNL1       -0.2670
      2  C         19.3660  -23.6980   -8.6410 C.2     1  UNL1        0.2580
      3  N         19.5590  -22.7870   -9.6970 N.am    1  UNL1       -0.3130
      4  C         18.4500  -21.9410  -10.1600 C.3     1  UNL1        0.1330
      5  C         18.4270  -21.7760  -11.6690 C.3     1  UNL1        0.0250
      6  C         19.7170  -21.1240  -12.1140 C.3     1  UNL1        0.0420
      7  C         20.9100  -21.8530  -11.5530 C.2     1  UNL1       -0.0300
      8  C         22.1440  -21.6810  -12.2090 C.2     1  UNL1        0.0340
      9  C         23.2880  -22.3130  -11.7240 C.2     1  UNL1        0.0750
     10  C         23.2160  -23.1220  -10.5940 C.2     1  UNL1        0.0270
     11  C         21.9930  -23.2800   -9.9350 C.2     1  UNL1        0.0320
     12  C         20.8180  -22.6580  -10.3930 C.2     1  UNL1        0.0430
     13  S         24.8450  -22.1010  -12.5480 S.O2    1  UNL1        0.2450
     14  O         25.3240  -23.3980  -12.9720 O.2     1  UNL1       -0.2060
     15  O         25.6510  -21.2390  -11.7100 O.2     1  UNL1       -0.2060
     16  N         24.4160  -21.1810  -13.9050 N.pl3   1  UNL1       -0.1800
     17  H         24.5850  -20.1920  -13.7010 H       1  UNL1        0.1460
     18  C         24.8980  -21.6230  -15.1800 C.2     1  UNL1        0.0400
     19  C         24.1380  -22.5390  -15.9140 C.2     1  UNL1        0.0260
     20  C         24.6050  -23.0160  -17.1390 C.2     1  UNL1        0.0020
     21  C         25.8310  -22.5780  -17.6340 C.2     1  UNL1        0.0010
     22  C         26.5930  -21.6600  -16.9080 C.2     1  UNL1        0.0210
     23  C         26.1430  -21.1820  -15.6690 C.2     1  UNL1        0.0270
     24  S         27.1080  -19.9660  -14.7680 S.3     1  UNL1       -0.0890
     25  C         26.8330  -18.4850  -15.7210 C.2     1  UNL1        0.0050
     26  C         27.1210  -17.2190  -15.2020 C.2     1  UNL1        0.0190
     27  C         26.8860  -16.0740  -15.9650 C.2     1  UNL1        0.0010
     28  C         26.3560  -16.1860  -17.2490 C.2     1  UNL1        0.0000
     29  C         26.0570  -17.4430  -17.7700 C.2     1  UNL1        0.0010
     30  C         26.2910  -18.5900  -17.0080 C.2     1  UNL1        0.0190
     31  C         18.2270  -23.4700   -7.7180 C.2     1  UNL1        0.0320
     32  C         17.0540  -24.2090   -7.8910 C.2     1  UNL1        0.0170
     33  C         15.9800  -24.0160   -7.0220 C.2     1  UNL1        0.0010
     34  C         16.0870  -23.0980   -5.9750 C.2     1  UNL1        0.0000
     35  C         17.2690  -22.3780   -5.7880 C.2     1  UNL1        0.0010
     36  C         18.3450  -22.5670   -6.6540 C.2     1  UNL1        0.0170
@<TRIPOS>BOND
     1    29    28    2
     2    29    30    1
     3    21    20    2
     4    21    22    1
     5    28    27    1
     6    20    19    1
     7    30    25    2
     8    22    23    2
     9    27    26    2
    10    19    18    2
    11    25    26    1
    12    25    24    1
    13    23    18    1
    14    23    24    1
    15    18    16    1
    16    16    17    1
    17    16    13    1
    18    14    13    2
    19    13     9    1
    20    13    15    2
    21     8     9    1
    22     8     7    2
    23     6     5    1
    24     6     7    1
    25     9    10    2
    26     5     4    1
    27     7    12    1
    28    10    11    1
    29    12    11    2
    30    12     3    1
    31     4     3    1
    32     3     2   am
    33     2     1    2
    34     2    31    1
    35    32    31    2
    36    32    33    1
    37    31    36    1
    38    33    34    2
    39    36    35    2
    40    34    35    1
