@<TRIPOS>MOLECULE
67349_out_ligand_01.pdbqt
 25 27 0 0 0
SMALL
GASTEIGER

@<TRIPOS>ATOM
      1  C         19.9060  -22.5590   -7.9460 C.2     1  UNL1        0.2580
      2  O         20.8830  -22.4720   -7.2050 O.2     1  UNL1       -0.2670
      3  N         19.8900  -22.3390   -9.3380 N.am    1  UNL1       -0.3130
      4  C         18.6290  -22.0250  -10.0250 C.3     1  UNL1        0.1330
      5  C         18.7970  -20.9820  -11.1140 C.3     1  UNL1        0.0250
      6  C         19.7670  -21.5050  -12.1520 C.3     1  UNL1        0.0420
      7  C         21.0390  -21.9840  -11.5050 C.2     1  UNL1       -0.0300
      8  C         22.1910  -22.0600  -12.3130 C.2     1  UNL1        0.0340
      9  C         23.3950  -22.5080  -11.7740 C.2     1  UNL1        0.0750
     10  C         23.4690  -22.8770  -10.4360 C.2     1  UNL1        0.0270
     11  C         22.3190  -22.8200   -9.6380 C.2     1  UNL1        0.0320
     12  C         21.0870  -22.3730  -10.1450 C.2     1  UNL1        0.0430
     13  C         18.6320  -22.9220   -7.2800 C.2     1  UNL1        0.0320
     14  C         17.9940  -21.9750   -6.4740 C.2     1  UNL1        0.0170
     15  C         16.8030  -22.3070   -5.8260 C.2     1  UNL1        0.0070
     16  C         16.2460  -23.5840   -5.9750 C.2     1  UNL1       -0.0620
     17  C         14.9850  -23.9500   -5.2450 C.3     1  UNL1        0.0480
     18  C         16.9140  -24.5380   -6.7540 C.2     1  UNL1        0.0070
     19  C         18.1060  -24.2120   -7.4030 C.2     1  UNL1        0.0170
     20  S         24.8480  -22.5950  -12.7830 S.O2    1  UNL1        0.2390
     21  O         25.9400  -21.9800  -12.0680 O.2     1  UNL1       -0.2060
     22  O         24.4930  -22.2270  -14.1340 O.2     1  UNL1       -0.2060
     23  N         25.1250  -24.2560  -12.8320 N.3     1  UNL1       -0.2250
     24  H         26.0200  -24.5040  -13.2510 H       1  UNL1        0.1360
     25  H         25.0250  -24.6350  -11.8880 H       1  UNL1        0.1360
@<TRIPOS>BOND
     1    22    20    2
     2    24    23    1
     3    23    20    1
     4    23    25    1
     5    20    21    2
     6    20     9    1
     7     8     9    1
     8     8     7    2
     9     6     7    1
    10     6     5    1
    11     9    10    2
    12     7    12    1
    13     5     4    1
    14    10    11    1
    15    12    11    2
    16    12     3    1
    17     4     3    1
    18     3     1   am
    19     1    13    1
    20     1     2    2
    21    19    13    2
    22    19    18    1
    23    13    14    1
    24    18    16    2
    25    14    15    2
    26    16    15    1
    27    16    17    1
