@<TRIPOS>MOLECULE
67345_out_ligand_01.pdbqt
 36 40 0 0 0
SMALL
GASTEIGER

@<TRIPOS>ATOM
      1  O         22.9620  -20.4990  -14.4120 O.2     1  UNL1       -0.2670
      2  C         23.8620  -21.3290  -14.3170 C.2     1  UNL1        0.2580
      3  N         24.2370  -22.0300  -13.1550 N.am    1  UNL1       -0.3130
      4  C         25.5760  -22.6280  -13.0460 C.3     1  UNL1        0.1330
      5  C         26.1710  -22.4890  -11.6580 C.3     1  UNL1        0.0250
      6  C         25.2730  -23.1940  -10.6630 C.3     1  UNL1        0.0420
      7  C         23.8450  -22.7410  -10.8140 C.2     1  UNL1       -0.0300
      8  C         22.9850  -22.9300   -9.7140 C.2     1  UNL1        0.0340
      9  C         21.6490  -22.5430   -9.7960 C.2     1  UNL1        0.0750
     10  C         21.1570  -21.9680  -10.9630 C.2     1  UNL1        0.0270
     11  C         22.0070  -21.7970  -12.0610 C.2     1  UNL1        0.0320
     12  C         23.3610  -22.1720  -12.0150 C.2     1  UNL1        0.0430
     13  S         20.5630  -22.7800   -8.4140 S.O2    1  UNL1        0.2460
     14  O         21.1990  -22.1660   -7.2700 O.2     1  UNL1       -0.2060
     15  O         20.1440  -24.1670   -8.3880 O.2     1  UNL1       -0.2060
     16  N         19.2430  -21.7950   -8.8130 N.pl3   1  UNL1       -0.1790
     17  H         19.2480  -20.9740   -8.2020 H       1  UNL1        0.1460
     18  C         17.9700  -22.4310   -8.9510 C.2     1  UNL1        0.0560
     19  C         17.5800  -22.9600  -10.1810 C.2     1  UNL1        0.0270
     20  C         16.3530  -23.6180  -10.3000 C.2     1  UNL1        0.0020
     21  C         15.5170  -23.7480   -9.1900 C.2     1  UNL1        0.0030
     22  C         15.9040  -23.2230   -7.9550 C.2     1  UNL1        0.0390
     23  C         17.1400  -22.5820   -7.8300 C.2     1  UNL1        0.0980
     24  O         17.5500  -22.0040   -6.6460 O.2     1  UNL1       -0.3090
     25  C         17.0180  -22.5100   -5.4820 C.2     1  UNL1        0.0760
     26  C         15.7270  -22.1980   -5.0480 C.2     1  UNL1        0.0370
     27  C         15.2340  -22.7760   -3.8770 C.2     1  UNL1        0.0030
     28  C         16.0200  -23.6720   -3.1530 C.2     1  UNL1        0.0000
     29  C         17.3010  -23.9990   -3.6020 C.2     1  UNL1        0.0030
     30  C         17.7970  -23.4240   -4.7730 C.2     1  UNL1        0.0370
     31  C         24.6190  -21.5900  -15.5670 C.2     1  UNL1        0.0320
     32  C         24.3890  -22.7560  -16.3060 C.2     1  UNL1        0.0170
     33  C         25.0980  -22.9760  -17.4880 C.2     1  UNL1        0.0010
     34  C         26.0190  -22.0260  -17.9350 C.2     1  UNL1        0.0000
     35  C         26.2290  -20.8520  -17.2090 C.2     1  UNL1        0.0010
     36  C         25.5220  -20.6270  -16.0270 C.2     1  UNL1        0.0170
@<TRIPOS>BOND
     1    34    33    2
     2    34    35    1
     3    33    32    1
     4    35    36    2
     5    32    31    2
     6    36    31    1
     7    31     2    1
     8     1     2    2
     9     2     3   am
    10     3     4    1
    11     3    12    1
    12     4     5    1
    13    11    12    1
    14    11    10    2
    15    12     7    2
    16     5     6    1
    17    10     9    1
    18     7     6    1
    19     7     8    1
    20    20    19    1
    21    20    21    2
    22    19    18    2
    23     9     8    2
    24     9    13    1
    25    21    22    1
    26    18    16    1
    27    18    23    1
    28    16    13    1
    29    16    17    1
    30    13    15    2
    31    13    14    2
    32    22    23    2
    33    23    24    1
    34    24    25    1
    35    25    26    2
    36    25    30    1
    37    26    27    1
    38    30    29    2
    39    27    28    2
    40    29    28    1
