@<TRIPOS>MOLECULE
67346_out_ligand_01.pdbqt
 34 37 0 0 0
SMALL
GASTEIGER

@<TRIPOS>ATOM
      1  C         23.8030  -22.4780  -10.9630 C.2     1  UNL1        0.0800
      2  C         23.6120  -22.7790   -9.6180 C.2     1  UNL1        0.0270
      3  C         22.3220  -22.7380   -9.0800 C.2     1  UNL1        0.0320
      4  C         21.2080  -22.3790   -9.8610 C.2     1  UNL1        0.0430
      5  C         21.4250  -22.0600  -11.2200 C.2     1  UNL1       -0.0300
      6  C         22.7220  -22.1080  -11.7620 C.2     1  UNL1        0.0340
      7  C         20.2930  -21.6840  -12.1400 C.3     1  UNL1        0.0420
      8  C         19.0960  -21.1880  -11.3550 C.3     1  UNL1        0.0250
      9  C         18.7660  -22.1940  -10.2670 C.3     1  UNL1        0.1330
     10  N         19.8730  -22.3720   -9.3180 N.am    1  UNL1       -0.3130
     11  C         19.6290  -22.4140   -7.9330 C.2     1  UNL1        0.2580
     12  O         20.4200  -22.0620   -7.0610 O.2     1  UNL1       -0.2670
     13  S         25.4410  -22.5290  -11.6510 S.O2    1  UNL1        0.2630
     14  O         26.3820  -22.6960  -10.5630 O.2     1  UNL1       -0.2000
     15  O         25.4190  -23.4450  -12.7720 O.2     1  UNL1       -0.2000
     16  N         25.6200  -20.9830  -12.3160 N.pl3   1  UNL1       -0.2810
     17  H         26.1560  -20.3680  -11.7070 H       1  UNL1        0.1790
     18  C         25.8070  -20.8540  -13.7210 C.2     1  UNL1        0.0440
     19  C         26.9030  -20.1380  -14.1980 C.2     1  UNL1        0.0300
     20  C         27.1180  -20.0440  -15.5710 C.2     1  UNL1        0.0040
     21  C         26.2410  -20.6650  -16.4640 C.2     1  UNL1        0.0290
     22  C         25.1420  -21.3910  -15.9940 C.2     1  UNL1        0.0360
     23  C         24.9340  -21.4780  -14.6130 C.2     1  UNL1        0.0590
     24  N         24.2150  -22.0510  -16.8280 N.am    1  UNL1       -0.3270
     25  C         24.1470  -23.4040  -17.1060 C.2     1  UNL1        0.2180
     26  C         23.0230  -23.7370  -18.0530 C.3     1  UNL1        0.1170
     27  O         24.8710  -24.2830  -16.6560 O.2     1  UNL1       -0.2740
     28  H         23.5100  -21.4660  -17.2580 H       1  UNL1        0.1690
     29  C         18.3080  -22.8990   -7.4550 C.2     1  UNL1        0.0320
     30  C         18.0340  -24.2700   -7.3450 C.2     1  UNL1        0.0170
     31  C         16.8010  -24.6920   -6.8480 C.2     1  UNL1        0.0010
     32  C         15.8540  -23.7540   -6.4350 C.2     1  UNL1        0.0000
     33  C         16.1310  -22.3900   -6.5290 C.2     1  UNL1        0.0010
     34  C         17.3590  -21.9620   -7.0340 C.2     1  UNL1        0.0170
@<TRIPOS>BOND
     1    26    25    1
     2    28    24    1
     3    25    24   am
     4    25    27    2
     5    24    22    1
     6    21    22    2
     7    21    20    1
     8    22    23    1
     9    20    19    2
    10    23    18    2
    11    19    18    1
    12    18    16    1
    13    15    13    2
    14    16    17    1
    15    16    13    1
    16     7     8    1
    17     7     5    1
    18     6     5    1
    19     6     1    2
    20    13     1    1
    21    13    14    2
    22     8     9    1
    23     5     4    2
    24     1     2    1
    25     9    10    1
    26     4    10    1
    27     4     3    1
    28     2     3    2
    29    10    11   am
    30    11    29    1
    31    11    12    2
    32    29    30    2
    33    29    34    1
    34    30    31    1
    35    34    33    2
    36    31    32    2
    37    33    32    1
