@<TRIPOS>MOLECULE
67341_out_ligand_01.pdbqt
 30 33 0 0 0
SMALL
GASTEIGER

@<TRIPOS>ATOM
      1  O         19.0030  -21.3370   -5.7650 O.2     1  UNL1       -0.2670
      2  C         18.2820  -22.0760   -6.4320 C.2     1  UNL1        0.2580
      3  N         18.5230  -22.5090   -7.7500 N.am    1  UNL1       -0.3130
      4  C         17.4130  -22.9840   -8.5910 C.3     1  UNL1        0.1330
      5  C         17.5360  -22.5330  -10.0340 C.3     1  UNL1        0.0250
      6  C         18.8210  -23.0850  -10.6160 C.3     1  UNL1        0.0420
      7  C         19.9940  -22.7650   -9.7280 C.2     1  UNL1       -0.0300
      8  C         21.2750  -22.7870  -10.3100 C.2     1  UNL1        0.0340
      9  C         22.4020  -22.5190   -9.5350 C.2     1  UNL1        0.0800
     10  C         22.2680  -22.2200   -8.1840 C.2     1  UNL1        0.0270
     11  C         20.9950  -22.2140   -7.6020 C.2     1  UNL1        0.0320
     12  C         19.8350  -22.4810   -8.3510 C.2     1  UNL1        0.0430
     13  S         24.0130  -22.5420  -10.2730 S.O2    1  UNL1        0.2630
     14  O         24.4930  -21.1830  -10.4020 O.2     1  UNL1       -0.2000
     15  O         24.7960  -23.5450   -9.5810 O.2     1  UNL1       -0.2000
     16  N         23.7050  -23.1740  -11.8140 N.pl3   1  UNL1       -0.2810
     17  H         23.8060  -24.1880  -11.8100 H       1  UNL1        0.1790
     18  C         24.2080  -22.4630  -12.9350 C.2     1  UNL1        0.0420
     19  C         25.5190  -22.6710  -13.3630 C.2     1  UNL1        0.0310
     20  C         26.0220  -21.9380  -14.4410 C.2     1  UNL1        0.0210
     21  C         25.2100  -21.0010  -15.0790 C.2     1  UNL1        0.0110
     22 BR         25.8900  -20.0080  -16.5360 Br      1  UNL1       -0.0510
     23  C         23.9010  -20.7880  -14.6480 C.2     1  UNL1        0.0210
     24  C         23.4000  -21.5190  -13.5690 C.2     1  UNL1        0.0310
     25  C         17.0380  -22.5270   -5.7620 C.2     1  UNL1        0.0320
     26  C         17.0950  -23.3880   -4.6600 C.2     1  UNL1        0.0170
     27  C         15.9130  -23.7850   -4.0330 C.2     1  UNL1        0.0010
     28  C         14.6840  -23.3130   -4.4950 C.2     1  UNL1        0.0000
     29  C         14.6310  -22.4330   -5.5790 C.2     1  UNL1        0.0010
     30  C         15.8080  -22.0320   -6.2090 C.2     1  UNL1        0.0170
@<TRIPOS>BOND
     1    22    21    1
     2    21    23    2
     3    21    20    1
     4    23    24    1
     5    20    19    2
     6    24    18    2
     7    19    18    1
     8    18    16    1
     9    16    17    1
    10    16    13    1
    11     6     5    1
    12     6     7    1
    13    14    13    2
    14     8     7    2
    15     8     9    1
    16    13    15    2
    17    13     9    1
    18     5     4    1
    19     7    12    1
    20     9    10    2
    21     4     3    1
    22    12     3    1
    23    12    11    2
    24    10    11    1
    25     3     2   am
    26     2     1    2
    27     2    25    1
    28    30    25    2
    29    30    29    1
    30    25    26    1
    31    29    28    2
    32    26    27    2
    33    28    27    1
