@<TRIPOS>MOLECULE
67347_out_ligand_01.pdbqt
 33 36 0 0 0
SMALL
GASTEIGER

@<TRIPOS>ATOM
      1  C         17.4920  -23.1510   -9.2820 C.2     1  UNL1        0.0800
      2  C         18.6240  -23.7250   -8.7140 C.2     1  UNL1        0.0270
      3  C         19.8920  -23.3740   -9.1910 C.2     1  UNL1        0.0320
      4  C         20.0590  -22.4320  -10.2220 C.2     1  UNL1        0.0430
      5  C         18.8950  -21.8480  -10.7740 C.2     1  UNL1       -0.0300
      6  C         17.6190  -22.2160  -10.3050 C.2     1  UNL1        0.0340
      7  C         18.9620  -20.8430  -11.8940 C.3     1  UNL1        0.0420
      8  C         20.3170  -20.1710  -11.9360 C.3     1  UNL1        0.0250
      9  C         21.3980  -21.2350  -11.9400 C.3     1  UNL1        0.1330
     10  N         21.3610  -22.0880  -10.7430 N.am    1  UNL1       -0.3130
     11  C         22.5590  -22.5080  -10.1310 C.2     1  UNL1        0.2580
     12  O         22.6900  -22.8900   -8.9700 O.2     1  UNL1       -0.2670
     13  S         15.8880  -23.6150   -8.6870 S.O2    1  UNL1        0.2590
     14  O         14.9070  -23.0820   -9.6040 O.2     1  UNL1       -0.2010
     15  O         15.9100  -25.0130   -8.3200 O.2     1  UNL1       -0.2010
     16  N         15.7680  -22.7080   -7.2880 N.3     1  UNL1       -0.3110
     17  H         16.0610  -21.7380   -7.3840 H       1  UNL1        0.1720
     18  C         14.8440  -23.0910   -6.2160 C.3     1  UNL1        0.0890
     19  C         14.1590  -21.8440   -5.6730 C.3     1  UNL1        0.0330
     20  C         15.5840  -23.9310   -5.1610 C.3     1  UNL1        0.0300
     21  C         17.1170  -23.9970   -5.2480 C.3     1  UNL1        0.0400
     22  C         17.8520  -22.7130   -4.9600 C.2     1  UNL1       -0.0580
     23  C         18.6380  -22.1110   -5.9530 C.2     1  UNL1        0.0070
     24  C         19.3280  -20.9260   -5.6920 C.2     1  UNL1        0.0010
     25  C         19.2490  -20.3340   -4.4330 C.2     1  UNL1        0.0000
     26  C         18.4840  -20.9320   -3.4330 C.2     1  UNL1        0.0010
     27  C         17.7930  -22.1170   -3.6920 C.2     1  UNL1        0.0070
     28  C         23.8030  -22.4860  -10.9390 C.2     1  UNL1        0.0320
     29  C         24.8100  -21.5730  -10.6110 C.2     1  UNL1        0.0170
     30  C         25.9930  -21.5530  -11.3490 C.2     1  UNL1        0.0010
     31  C         26.1740  -22.4530  -12.4010 C.2     1  UNL1        0.0000
     32  C         25.1790  -23.3820  -12.7120 C.2     1  UNL1        0.0010
     33  C         23.9940  -23.4080  -11.9770 C.2     1  UNL1        0.0170
@<TRIPOS>BOND
     1    32    31    2
     2    32    33    1
     3    31    30    1
     4    33    28    2
     5     9     8    1
     6     9    10    1
     7     8     7    1
     8     7     5    1
     9    30    29    2
    10    28    29    1
    11    28    11    1
    12     5     6    1
    13     5     4    2
    14    10     4    1
    15    10    11   am
    16     6     1    2
    17     4     3    1
    18    11    12    2
    19    14    13    2
    20     1     2    1
    21     1    13    1
    22     3     2    2
    23    13    15    2
    24    13    16    1
    25    17    16    1
    26    16    18    1
    27    18    19    1
    28    18    20    1
    29    23    24    1
    30    23    22    2
    31    24    25    2
    32    21    20    1
    33    21    22    1
    34    22    27    1
    35    25    26    1
    36    27    26    2
