@<TRIPOS>MOLECULE
67355_out_ligand_01.pdbqt
 31 34 0 0 0
SMALL
GASTEIGER

@<TRIPOS>ATOM
      1  C         22.3830  -22.8970  -10.6570 C.2     1  UNL1        0.2580
      2  O         22.6670  -24.0320  -10.2820 O.2     1  UNL1       -0.2670
      3  N         21.1010  -22.3150  -10.6600 N.am    1  UNL1       -0.3130
      4  C         20.8050  -21.1720  -11.5370 C.3     1  UNL1        0.1330
      5  C         19.4190  -21.2470  -12.1500 C.3     1  UNL1        0.0250
      6  C         18.3880  -21.2520  -11.0420 C.3     1  UNL1        0.0420
      7  C         18.7090  -22.3060  -10.0150 C.2     1  UNL1       -0.0300
      8  C         17.6570  -22.7540   -9.1930 C.2     1  UNL1        0.0340
      9  C         17.8940  -23.7110   -8.2100 C.2     1  UNL1        0.0800
     10  C         19.1700  -24.2390   -8.0400 C.2     1  UNL1        0.0270
     11  C         20.2190  -23.7830   -8.8470 C.2     1  UNL1        0.0320
     12  C         20.0180  -22.8150   -9.8470 C.2     1  UNL1        0.0430
     13  S         16.5630  -24.2820   -7.1860 S.O2    1  UNL1        0.2630
     14  O         17.1360  -25.1240   -6.1570 O.2     1  UNL1       -0.2000
     15  O         15.4950  -24.7680   -8.0330 O.2     1  UNL1       -0.2000
     16  N         16.0650  -22.8670   -6.4070 N.pl3   1  UNL1       -0.2810
     17  H         15.6010  -22.2390   -7.0620 H       1  UNL1        0.1790
     18  C         16.9430  -22.2870   -5.4530 C.2     1  UNL1        0.0430
     19  C         16.7120  -22.4950   -4.0950 C.2     1  UNL1        0.0300
     20  C         17.5820  -21.9470   -3.1530 C.2     1  UNL1        0.0030
     21  C         18.6880  -21.2040   -3.5720 C.2     1  UNL1        0.0070
     22  C         18.9390  -21.0130   -4.9370 C.2     1  UNL1       -0.0600
     23  C         20.1150  -20.1990   -5.3870 C.3     1  UNL1        0.0480
     24  C         18.0500  -21.5510   -5.8770 C.2     1  UNL1        0.0370
     25  C         23.5200  -22.0900  -11.1640 C.2     1  UNL1        0.0320
     26  C         24.3940  -21.4550  -10.2740 C.2     1  UNL1        0.0170
     27  C         25.4670  -20.7110  -10.7690 C.2     1  UNL1        0.0070
     28  C         25.6890  -20.6210  -12.1510 C.2     1  UNL1       -0.0620
     29  C         26.8280  -19.8000  -12.6830 C.3     1  UNL1        0.0480
     30  C         24.8140  -21.2710  -13.0320 C.2     1  UNL1        0.0070
     31  C         23.7400  -22.0150  -12.5410 C.2     1  UNL1        0.0170
@<TRIPOS>BOND
     1    30    31    1
     2    30    28    2
     3    29    28    1
     4    31    25    2
     5    28    27    1
     6     5     4    1
     7     5     6    1
     8     4     3    1
     9    25     1    1
    10    25    26    1
    11     6     7    1
    12    27    26    2
    13     3     1   am
    14     3    12    1
    15     1     2    2
    16     7    12    2
    17     7     8    1
    18    12    11    1
    19     8     9    2
    20    11    10    2
    21     9    10    1
    22     9    13    1
    23    15    13    2
    24    13    16    1
    25    13    14    2
    26    17    16    1
    27    16    18    1
    28    24    18    2
    29    24    22    1
    30    18    19    1
    31    23    22    1
    32    22    21    2
    33    19    20    2
    34    21    20    1
