@<TRIPOS>MOLECULE
67354_out_ligand_01.pdbqt
 31 34 0 0 0
SMALL
GASTEIGER

@<TRIPOS>ATOM
      1  C         19.2550  -23.7450   -8.3300 C.2     1  UNL1        0.2580
      2  O         19.9080  -24.7490   -8.0480 O.2     1  UNL1       -0.2670
      3  N         19.5080  -22.8500   -9.3910 N.am    1  UNL1       -0.3130
      4  C         18.4490  -21.9550   -9.8820 C.3     1  UNL1        0.1330
      5  C         18.4690  -21.7870  -11.3940 C.3     1  UNL1        0.0250
      6  C         19.8000  -21.1960  -11.8110 C.3     1  UNL1        0.0420
      7  C         20.9490  -21.9580  -11.2010 C.2     1  UNL1       -0.0300
      8  C         22.2130  -21.8200  -11.8090 C.2     1  UNL1        0.0340
      9  C         23.3260  -22.4690  -11.2710 C.2     1  UNL1        0.0750
     10  C         23.1890  -23.2800  -10.1460 C.2     1  UNL1        0.0270
     11  C         21.9330  -23.4150   -9.5420 C.2     1  UNL1        0.0320
     12  C         20.7930  -22.7590  -10.0430 C.2     1  UNL1        0.0430
     13  S         24.9140  -22.2700  -12.0320 S.O2    1  UNL1        0.2410
     14  O         25.7320  -21.4360  -11.1790 O.2     1  UNL1       -0.2060
     15  O         25.3660  -23.5620  -12.4990 O.2     1  UNL1       -0.2060
     16  N         24.5280  -21.2830  -13.3520 N.3     1  UNL1       -0.2110
     17  H         24.2910  -20.3620  -12.9750 H       1  UNL1        0.1400
     18  C         25.5360  -21.2190  -14.4340 C.3     1  UNL1        0.1440
     19  C         25.0810  -21.8250  -15.7380 C.2     1  UNL1       -0.0270
     20  C         24.7050  -23.1760  -15.8460 C.2     1  UNL1        0.0110
     21  C         24.2560  -23.6770  -17.0770 C.2     1  UNL1        0.0200
     22  C         24.1690  -22.7990  -18.1530 C.2     1  UNL1        0.1160
     23  N         24.5200  -21.4910  -18.0870 N.2     1  UNL1       -0.2730
     24  C         24.9810  -21.0370  -16.8890 C.2     1  UNL1        0.1240
     25  C         18.0910  -23.4760   -7.4420 C.2     1  UNL1        0.0320
     26  C         18.1850  -22.5440   -6.4040 C.2     1  UNL1        0.0170
     27  C         17.0920  -22.3280   -5.5650 C.2     1  UNL1        0.0070
     28  C         15.9110  -23.0620   -5.7360 C.2     1  UNL1       -0.0620
     29  C         14.7290  -22.8030   -4.8470 C.3     1  UNL1        0.0480
     30  C         15.8360  -24.0140   -6.7620 C.2     1  UNL1        0.0070
     31  C         16.9270  -24.2320   -7.6050 C.2     1  UNL1        0.0170
@<TRIPOS>BOND
     1    22    23    2
     2    22    21    1
     3    23    24    1
     4    21    20    2
     5    24    19    2
     6    20    19    1
     7    19    18    1
     8    18    16    1
     9    16    17    1
    10    16    13    1
    11    15    13    2
    12    13     9    1
    13    13    14    2
    14     6     5    1
    15     6     7    1
    16     8     9    1
    17     8     7    2
    18     5     4    1
    19     9    10    2
    20     7    12    1
    21    10    11    1
    22    12    11    2
    23    12     3    1
    24     4     3    1
    25     3     1   am
    26     1     2    2
    27     1    25    1
    28    31    25    2
    29    31    30    1
    30    25    26    1
    31    30    28    2
    32    26    27    2
    33    28    27    1
    34    28    29    1
