@<TRIPOS>MOLECULE
67352_out_ligand_01.pdbqt
 30 33 0 0 0
SMALL
GASTEIGER

@<TRIPOS>ATOM
      1  C         19.2040  -23.7110   -8.3730 C.2     1  UNL1        0.2580
      2  O         19.9120  -24.6980   -8.1900 O.2     1  UNL1       -0.2670
      3  N         19.2950  -22.8030   -9.4470 N.am    1  UNL1       -0.3130
      4  C         18.1460  -21.9550   -9.8020 C.3     1  UNL1        0.1330
      5  C         17.9800  -21.7910  -11.3020 C.3     1  UNL1        0.0250
      6  C         19.2240  -21.1390  -11.8680 C.3     1  UNL1        0.0420
      7  C         20.4630  -21.8710  -11.4250 C.2     1  UNL1       -0.0300
      8  C         21.6280  -21.7040  -12.1980 C.2     1  UNL1        0.0340
      9  C         22.8080  -22.3460  -11.8330 C.2     1  UNL1        0.0800
     10  C         22.8450  -23.1520  -10.7000 C.2     1  UNL1        0.0270
     11  C         21.6920  -23.3030   -9.9200 C.2     1  UNL1        0.0320
     12  C         20.4810  -22.6760  -10.2610 C.2     1  UNL1        0.0430
     13  S         24.2800  -22.1320  -12.7980 S.O2    1  UNL1        0.2590
     14  O         24.7860  -23.4350  -13.1710 O.2     1  UNL1       -0.2010
     15  O         25.1020  -21.1530  -12.1250 O.2     1  UNL1       -0.2010
     16  N         23.6860  -21.4030  -14.1760 N.3     1  UNL1       -0.3090
     17  H         22.7700  -20.9750  -14.0600 H       1  UNL1        0.1720
     18  C         24.6340  -20.7390  -15.0610 C.3     1  UNL1        0.1970
     19  C         24.7880  -21.5930  -16.2660 C.2     1  UNL1        0.0700
     20  C         25.6800  -21.5910  -17.3190 C.2     1  UNL1        0.0360
     21  C         25.3140  -22.6750  -18.1530 C.2     1  UNL1        0.0270
     22  C         24.2280  -23.2700  -17.5540 C.2     1  UNL1        0.1420
     23  O         23.9030  -22.6220  -16.4060 O.2     1  UNL1       -0.3250
     24  C         18.1510  -23.4860   -7.3530 C.2     1  UNL1        0.0320
     25  C         18.3560  -22.5830   -6.3060 C.2     1  UNL1        0.0170
     26  C         17.3590  -22.3970   -5.3460 C.2     1  UNL1        0.0070
     27  C         16.1650  -23.1290   -5.4130 C.2     1  UNL1       -0.0620
     28  C         15.0840  -22.9070   -4.3970 C.3     1  UNL1        0.0480
     29  C         15.9750  -24.0400   -6.4610 C.2     1  UNL1        0.0070
     30  C         16.9700  -24.2290   -7.4220 C.2     1  UNL1        0.0170
@<TRIPOS>BOND
     1    21    22    2
     2    21    20    1
     3    22    23    1
     4    20    19    2
     5    23    19    1
     6    19    18    1
     7    18    16    1
     8    16    17    1
     9    16    13    1
    10    14    13    2
    11    13    15    2
    12    13     9    1
    13     8     9    1
    14     8     7    2
    15     6     7    1
    16     6     5    1
    17     9    10    2
    18     7    12    1
    19     5     4    1
    20    10    11    1
    21    12    11    2
    22    12     3    1
    23     4     3    1
    24     3     1   am
    25     1     2    2
    26     1    24    1
    27    30    24    2
    28    30    29    1
    29    24    25    1
    30    29    27    2
    31    25    26    2
    32    27    26    1
    33    27    28    1
