@<TRIPOS>MOLECULE
67353_out_ligand_01.pdbqt
 30 33 0 0 0
SMALL
GASTEIGER

@<TRIPOS>ATOM
      1  C         20.2900  -23.5140   -8.8410 C.2     1  UNL1        0.2580
      2  O         21.1050  -24.4320   -8.7960 O.2     1  UNL1       -0.2670
      3  N         20.1220  -22.5930   -9.8950 N.am    1  UNL1       -0.3130
      4  C         18.8620  -21.8490  -10.0370 C.3     1  UNL1        0.1330
      5  C         18.4380  -21.6800  -11.4850 C.3     1  UNL1        0.0250
      6  C         19.5110  -20.9120  -12.2260 C.3     1  UNL1        0.0420
      7  C         20.8640  -21.5360  -12.0100 C.2     1  UNL1       -0.0300
      8  C         21.8670  -21.2550  -12.9570 C.2     1  UNL1        0.0340
      9  C         23.1440  -21.7910  -12.8050 C.2     1  UNL1        0.0800
     10  C         23.4340  -22.6130  -11.7220 C.2     1  UNL1        0.0270
     11  C         22.4410  -22.8770  -10.7710 C.2     1  UNL1        0.0320
     12  C         21.1420  -22.3530  -10.8890 C.2     1  UNL1        0.0430
     13  S         24.4080  -21.4440  -14.0020 S.O2    1  UNL1        0.2580
     14  O         25.5650  -22.2550  -13.6940 O.2     1  UNL1       -0.2010
     15  O         24.4960  -20.0090  -14.1530 O.2     1  UNL1       -0.2010
     16  N         23.7320  -22.0270  -15.4210 N.3     1  UNL1       -0.3130
     17  H         22.7170  -22.0990  -15.3940 H       1  UNL1        0.1720
     18  C         24.4990  -22.9390  -16.2740 C.3     1  UNL1        0.1640
     19  C         24.9070  -22.2580  -17.5890 C.3     1  UNL1        0.1400
     20  C         26.4140  -22.0940  -17.7630 C.3     1  UNL1        0.0350
     21  C         26.6650  -20.7060  -17.2290 C.3     1  UNL1        0.0290
     22  C         25.4200  -19.9750  -17.6730 C.3     1  UNL1        0.1680
     23  O         24.3500  -20.9250  -17.6010 O.3     1  UNL1       -0.3840
     24  C         19.4010  -23.3940   -7.6590 C.2     1  UNL1        0.0320
     25  C         19.4950  -22.2560   -6.8530 C.2     1  UNL1        0.0170
     26  C         18.6550  -22.1200   -5.7470 C.2     1  UNL1        0.0070
     27  C         17.7140  -23.1140   -5.4440 C.2     1  UNL1       -0.0620
     28  C         16.7860  -22.9440   -4.2760 C.3     1  UNL1        0.0480
     29  C         17.6010  -24.2310   -6.2820 C.2     1  UNL1        0.0070
     30  C         18.4390  -24.3720   -7.3900 C.2     1  UNL1        0.0170
@<TRIPOS>BOND
     1    20    19    1
     2    20    21    1
     3    22    23    1
     4    22    21    1
     5    23    19    1
     6    19    18    1
     7    18    16    1
     8    16    17    1
     9    16    13    1
    10    15    13    2
    11    13    14    2
    12    13     9    1
    13     8     9    1
    14     8     7    2
    15     9    10    2
    16     6     7    1
    17     6     5    1
    18     7    12    1
    19    10    11    1
    20     5     4    1
    21    12    11    2
    22    12     3    1
    23     4     3    1
    24     3     1   am
    25     1     2    2
    26     1    24    1
    27    24    30    2
    28    24    25    1
    29    30    29    1
    30    25    26    2
    31    29    27    2
    32    26    27    1
    33    27    28    1
