@<TRIPOS>MOLECULE
67357_out_ligand_01.pdbqt
 32 35 0 0 0
SMALL
GASTEIGER

@<TRIPOS>ATOM
      1  C         19.1280  -23.7140   -8.3700 C.2     1  UNL1        0.2580
      2  O         19.8620  -24.6870   -8.2030 O.2     1  UNL1       -0.2670
      3  N         19.1990  -22.7850   -9.4260 N.am    1  UNL1       -0.3130
      4  C         18.0340  -21.9520   -9.7610 C.3     1  UNL1        0.1330
      5  C         17.8580  -21.7600  -11.2560 C.3     1  UNL1        0.0250
      6  C         19.0860  -21.0740  -11.8130 C.3     1  UNL1        0.0420
      7  C         20.3410  -21.7920  -11.3890 C.2     1  UNL1       -0.0300
      8  C         21.4980  -21.5880  -12.1640 C.2     1  UNL1        0.0340
      9  C         22.6930  -22.2130  -11.8160 C.2     1  UNL1        0.0800
     10  C         22.7490  -23.0480  -10.7050 C.2     1  UNL1        0.0270
     11  C         21.6020  -23.2340   -9.9230 C.2     1  UNL1        0.0320
     12  C         20.3790  -22.6200  -10.2430 C.2     1  UNL1        0.0430
     13  S         24.1510  -21.9680  -12.7990 S.O2    1  UNL1        0.2580
     14  O         23.7300  -21.5750  -14.1250 O.2     1  UNL1       -0.2010
     15  O         25.0890  -21.1820  -12.0280 O.2     1  UNL1       -0.2010
     16  N         24.7610  -23.5190  -12.9300 N.3     1  UNL1       -0.3150
     17  H         24.2460  -24.2310  -12.4170 H       1  UNL1        0.1720
     18  C         26.1680  -23.7350  -13.2680 C.3     1  UNL1        0.1360
     19  C         26.2990  -24.4140  -14.6410 C.3     1  UNL1        0.0540
     20  C         25.7930  -23.6810  -15.8720 C.2     1  UNL1       -0.0820
     21  C         24.6420  -23.9540  -16.5170 C.2     1  UNL1       -0.0240
     22  C         24.1400  -23.1890  -17.7090 C.3     1  UNL1        0.0270
     23  C         24.8750  -21.8710  -17.9330 C.3     1  UNL1        0.0040
     24  C         26.3760  -22.0500  -17.7520 C.3     1  UNL1        0.0050
     25  C         26.7040  -22.5670  -16.3490 C.3     1  UNL1        0.0340
     26  C         18.0680  -23.5360   -7.3490 C.2     1  UNL1        0.0320
     27  C         16.8540  -24.2240   -7.4540 C.2     1  UNL1        0.0170
     28  C         15.8640  -24.0300   -6.4890 C.2     1  UNL1        0.0070
     29  C         16.0680  -23.1330   -5.4320 C.2     1  UNL1       -0.0620
     30  C         15.0120  -22.9480   -4.3820 C.3     1  UNL1        0.0480
     31  C         17.2840  -22.4410   -5.3430 C.2     1  UNL1        0.0070
     32  C         18.2770  -22.6310   -6.3050 C.2     1  UNL1        0.0170
@<TRIPOS>BOND
     1    23    24    1
     2    23    22    1
     3    24    25    1
     4    22    21    1
     5    21    20    2
     6    25    20    1
     7    20    19    1
     8    19    18    1
     9    14    13    2
    10    18    16    1
    11    16    13    1
    12    16    17    1
    13    13    15    2
    14    13     9    1
    15     8     9    1
    16     8     7    2
    17     9    10    2
    18     6     7    1
    19     6     5    1
    20     7    12    1
    21     5     4    1
    22    10    11    1
    23    12    11    2
    24    12     3    1
    25     4     3    1
    26     3     1   am
    27     1     2    2
    28     1    26    1
    29    27    26    2
    30    27    28    1
    31    26    32    1
    32    28    29    2
    33    32    31    2
    34    29    31    1
    35    29    30    1
