@<TRIPOS>MOLECULE
67351_out_ligand_01.pdbqt
 32 35 0 0 0
SMALL
GASTEIGER

@<TRIPOS>ATOM
      1  C         19.1660  -23.7510   -8.3670 C.2     1  UNL1        0.2580
      2  O         19.8970  -24.7290   -8.2240 O.2     1  UNL1       -0.2670
      3  N         19.2210  -22.8150   -9.4170 N.am    1  UNL1       -0.3130
      4  C         18.0440  -21.9950   -9.7430 C.3     1  UNL1        0.1330
      5  C         17.8550  -21.8110  -11.2370 C.3     1  UNL1        0.0250
      6  C         19.0720  -21.1130  -11.8070 C.3     1  UNL1        0.0420
      7  C         20.3380  -21.8100  -11.3870 C.2     1  UNL1       -0.0300
      8  C         21.4910  -21.5900  -12.1670 C.2     1  UNL1        0.0340
      9  C         22.6960  -22.1960  -11.8190 C.2     1  UNL1        0.0800
     10  C         22.7690  -23.0210  -10.7020 C.2     1  UNL1        0.0270
     11  C         21.6280  -23.2270   -9.9180 C.2     1  UNL1        0.0320
     12  C         20.3940  -22.6350  -10.2390 C.2     1  UNL1        0.0430
     13  S         24.1470  -21.9310  -12.8020 S.O2    1  UNL1        0.2580
     14  O         23.7160  -21.5130  -14.1170 O.2     1  UNL1       -0.2010
     15  O         25.1050  -21.1690  -12.0310 O.2     1  UNL1       -0.2010
     16  N         24.7380  -23.4930  -12.9660 N.3     1  UNL1       -0.3150
     17  H         24.0330  -24.1410  -13.3210 H       1  UNL1        0.1720
     18  C         26.1190  -23.6760  -13.4290 C.3     1  UNL1        0.1370
     19  C         26.1370  -24.4170  -14.7700 C.3     1  UNL1        0.0580
     20  C         25.7090  -23.5560  -15.9350 C.2     1  UNL1       -0.0570
     21  C         26.4790  -22.4480  -16.3190 C.2     1  UNL1        0.0070
     22  C         26.0960  -21.6650  -17.4090 C.2     1  UNL1        0.0010
     23  C         24.9420  -21.9790  -18.1240 C.2     1  UNL1        0.0000
     24  C         24.1680  -23.0770  -17.7500 C.2     1  UNL1        0.0010
     25  C         24.5490  -23.8620  -16.6600 C.2     1  UNL1        0.0070
     26  C         18.1280  -23.5720   -7.3220 C.2     1  UNL1        0.0320
     27  C         18.3410  -22.6360   -6.3070 C.2     1  UNL1        0.0170
     28  C         17.3650  -22.4440   -5.3270 C.2     1  UNL1        0.0070
     29  C         16.1720  -23.1790   -5.3580 C.2     1  UNL1       -0.0620
     30  C         15.1090  -22.9420   -4.3260 C.3     1  UNL1        0.0480
     31  C         15.9530  -24.0860   -6.4040 C.2     1  UNL1        0.0070
     32  C         16.9260  -24.2830   -7.3860 C.2     1  UNL1        0.0170
@<TRIPOS>BOND
     1    23    24    2
     2    23    22    1
     3    24    25    1
     4    22    21    2
     5    25    20    2
     6    21    20    1
     7    20    19    1
     8    19    18    1
     9    14    13    2
    10    18    16    1
    11    17    16    1
    12    16    13    1
    13    13    15    2
    14    13     9    1
    15     8     9    1
    16     8     7    2
    17     9    10    2
    18     6     7    1
    19     6     5    1
    20     7    12    1
    21     5     4    1
    22    10    11    1
    23    12    11    2
    24    12     3    1
    25     4     3    1
    26     3     1   am
    27     1     2    2
    28     1    26    1
    29    32    26    2
    30    32    31    1
    31    26    27    1
    32    31    29    2
    33    27    28    2
    34    29    28    1
    35    29    30    1
