@<TRIPOS>MOLECULE
67362_out_ligand_01.pdbqt
 32 35 0 0 0
SMALL
GASTEIGER

@<TRIPOS>ATOM
      1  C         18.9780  -23.7740   -8.3340 C.2     1  UNL1        0.2580
      2  O         19.6200  -24.7800   -8.0430 O.2     1  UNL1       -0.2670
      3  N         19.2670  -22.8700   -9.3750 N.am    1  UNL1       -0.3130
      4  C         18.2130  -21.9970   -9.9150 C.3     1  UNL1        0.1330
      5  C         18.2990  -21.8360  -11.4210 C.3     1  UNL1        0.0250
      6  C         19.6330  -21.2170  -11.7770 C.3     1  UNL1        0.0420
      7  C         20.7650  -21.9760  -11.1350 C.2     1  UNL1       -0.0300
      8  C         22.0450  -21.8390  -11.7060 C.2     1  UNL1        0.0340
      9  C         23.1350  -22.5000  -11.1450 C.2     1  UNL1        0.0800
     10  C         22.9660  -23.3050  -10.0240 C.2     1  UNL1        0.0270
     11  C         21.6970  -23.4270   -9.4470 C.2     1  UNL1        0.0320
     12  C         20.5730  -22.7740   -9.9840 C.2     1  UNL1        0.0430
     13  S         24.7440  -22.3340  -11.8700 S.O2    1  UNL1        0.2630
     14  O         25.5680  -21.5960  -10.9360 O.2     1  UNL1       -0.2000
     15  O         25.1650  -23.6210  -12.3820 O.2     1  UNL1       -0.2000
     16  N         24.4580  -21.2860  -13.1690 N.pl3   1  UNL1       -0.2810
     17  H         24.4320  -20.3190  -12.8460 H       1  UNL1        0.1790
     18  C         25.1190  -21.5560  -14.3980 C.2     1  UNL1        0.0440
     19  C         26.4150  -21.0860  -14.5990 C.2     1  UNL1        0.0310
     20  C         27.0570  -21.3130  -15.8180 C.2     1  UNL1        0.0110
     21  C         26.4070  -22.0060  -16.8510 C.2     1  UNL1       -0.0400
     22  C         27.1210  -22.2340  -18.1530 C.3     1  UNL1        0.0500
     23  C         25.0970  -22.4630  -16.6330 C.2     1  UNL1        0.0420
     24 CL         24.2260  -23.3170  -17.8570 Cl      1  UNL1       -0.0840
     25  C         24.4520  -22.2370  -15.4130 C.2     1  UNL1        0.0540
     26  C         17.7800  -23.5190   -7.4970 C.2     1  UNL1        0.0320
     27  C         17.8090  -22.4740   -6.5720 C.2     1  UNL1        0.0170
     28  C         16.6850  -22.2130   -5.7860 C.2     1  UNL1        0.0070
     29  C         15.5190  -22.9770   -5.9380 C.2     1  UNL1       -0.0620
     30  C         14.3220  -22.7110   -5.0730 C.3     1  UNL1        0.0480
     31  C         15.4970  -24.0170   -6.8780 C.2     1  UNL1        0.0070
     32  C         16.6190  -24.2820   -7.6660 C.2     1  UNL1        0.0170
@<TRIPOS>BOND
     1    22    21    1
     2    24    23    1
     3    21    23    2
     4    21    20    1
     5    23    25    1
     6    20    19    2
     7    25    18    2
     8    19    18    1
     9    18    16    1
    10    16    17    1
    11    16    13    1
    12    15    13    2
    13    13     9    1
    14    13    14    2
    15     6     5    1
    16     6     7    1
    17     8     9    1
    18     8     7    2
    19     5     4    1
    20     9    10    2
    21     7    12    1
    22    10    11    1
    23    12    11    2
    24    12     3    1
    25     4     3    1
    26     3     1   am
    27     1     2    2
    28     1    26    1
    29    32    26    2
    30    32    31    1
    31    26    27    1
    32    31    29    2
    33    27    28    2
    34    29    28    1
    35    29    30    1
