@<TRIPOS>MOLECULE
67361_out_ligand_01.pdbqt
 32 35 0 0 0
SMALL
GASTEIGER

@<TRIPOS>ATOM
      1  C         22.7250  -22.4190  -10.0740 C.2     1  UNL1        0.2580
      2  O         23.1010  -22.5810   -8.9160 O.2     1  UNL1       -0.2670
      3  N         21.3910  -22.2780  -10.5060 N.am    1  UNL1       -0.3130
      4  C         21.0890  -21.6320  -11.7910 C.3     1  UNL1        0.1330
      5  C         19.8630  -20.7420  -11.7260 C.3     1  UNL1        0.0250
      6  C         18.6620  -21.5820  -11.3440 C.3     1  UNL1        0.0420
      7  C         18.9490  -22.4010  -10.1130 C.2     1  UNL1       -0.0300
      8  C         17.8460  -22.8770   -9.3790 C.2     1  UNL1        0.0340
      9  C         18.0450  -23.6670   -8.2480 C.2     1  UNL1        0.0800
     10  C         19.3340  -23.9760   -7.8290 C.2     1  UNL1        0.0270
     11  C         20.4300  -23.5140   -8.5660 C.2     1  UNL1        0.0320
     12  C         20.2680  -22.7220   -9.7170 C.2     1  UNL1        0.0430
     13  S         16.6530  -24.2810   -7.3370 S.O2    1  UNL1        0.2630
     14  O         15.6310  -24.6420   -8.2960 O.2     1  UNL1       -0.2000
     15  O         17.1230  -25.2310   -6.3530 O.2     1  UNL1       -0.2000
     16  N         16.0860  -22.8920   -6.5530 N.pl3   1  UNL1       -0.2800
     17  H         15.0780  -22.9440   -6.4100 H       1  UNL1        0.1790
     18  C         16.8830  -22.3330   -5.5130 C.2     1  UNL1        0.0500
     19  C         17.9810  -21.5450   -5.8670 C.2     1  UNL1        0.0540
     20  C         18.8170  -21.0360   -4.8770 C.2     1  UNL1        0.0360
     21 CL         20.1750  -20.0760   -5.3170 Cl      1  UNL1       -0.0840
     22  C         18.5650  -21.3040   -3.5340 C.2     1  UNL1        0.0240
     23  C         17.4660  -22.0890   -3.1800 C.2     1  UNL1        0.0110
     24  C         16.6110  -22.6120   -4.1630 C.2     1  UNL1       -0.0350
     25  C         15.4550  -23.4780   -3.7480 C.3     1  UNL1        0.0500
     26  C         23.8020  -22.3570  -11.0930 C.2     1  UNL1        0.0320
     27  C         24.7940  -21.3820  -10.9720 C.2     1  UNL1        0.0170
     28  C         25.8220  -21.3190  -11.9140 C.2     1  UNL1        0.0070
     29  C         25.8790  -22.2440  -12.9650 C.2     1  UNL1       -0.0620
     30  C         26.9710  -22.1580  -13.9920 C.3     1  UNL1        0.0480
     31  C         24.8850  -23.2260  -13.0710 C.2     1  UNL1        0.0070
     32  C         23.8540  -23.2920  -12.1320 C.2     1  UNL1        0.0170
@<TRIPOS>BOND
     1    30    29    1
     2    31    29    2
     3    31    32    1
     4    29    28    1
     5    32    26    2
     6    28    27    2
     7     4     5    1
     8     4     3    1
     9     5     6    1
    10     6     7    1
    11    26    27    1
    12    26     1    1
    13     3     1   am
    14     3    12    1
    15     7    12    2
    16     7     8    1
    17     1     2    2
    18    12    11    1
    19     8     9    2
    20    11    10    2
    21    14    13    2
    22     9    10    1
    23     9    13    1
    24    13    16    1
    25    13    15    2
    26    16    17    1
    27    16    18    1
    28    19    18    2
    29    19    20    1
    30    18    24    1
    31    21    20    1
    32    20    22    2
    33    24    25    1
    34    24    23    2
    35    22    23    1
