@<TRIPOS>MOLECULE
67367_out_ligand_01.pdbqt
 32 35 0 0 0
SMALL
GASTEIGER

@<TRIPOS>ATOM
      1  C         23.2450  -22.2770  -11.4650 C.2     1  UNL1        0.0800
      2  C         23.2990  -22.5520  -10.1030 C.2     1  UNL1        0.0270
      3  C         22.1200  -22.5380   -9.3480 C.2     1  UNL1        0.0320
      4  C         20.8750  -22.2300   -9.9250 C.2     1  UNL1        0.0430
      5  C         20.8460  -21.9290  -11.3070 C.2     1  UNL1       -0.0300
      6  C         22.0300  -21.9550  -12.0680 C.2     1  UNL1        0.0340
      7  C         19.5650  -21.6100  -12.0270 C.3     1  UNL1        0.0420
      8  C         18.5060  -21.1260  -11.0590 C.3     1  UNL1        0.0250
      9  C         18.3940  -22.1140   -9.9130 C.3     1  UNL1        0.1330
     10  N         19.6500  -22.2560   -9.1620 N.am    1  UNL1       -0.3130
     11  C         19.6330  -22.3800   -7.7600 C.2     1  UNL1        0.2580
     12  O         20.5620  -22.1320   -6.9950 O.2     1  UNL1       -0.2670
     13  S         24.7350  -22.3150  -12.4320 S.O2    1  UNL1        0.2630
     14  O         25.0230  -23.7000  -12.7400 O.2     1  UNL1       -0.2000
     15  O         25.7170  -21.4740  -11.7810 O.2     1  UNL1       -0.2000
     16  N         24.2580  -21.5990  -13.8880 N.pl3   1  UNL1       -0.2810
     17  H         23.8970  -20.6570  -13.7410 H       1  UNL1        0.1790
     18  C         25.0350  -21.8300  -15.0590 C.2     1  UNL1        0.0450
     19  C         26.2760  -21.2180  -15.2190 C.2     1  UNL1        0.0300
     20  C         27.0060  -21.4270  -16.3890 C.2     1  UNL1        0.0050
     21  C         26.4940  -22.2450  -17.3990 C.2     1  UNL1        0.0370
     22  C         25.2510  -22.8600  -17.2430 C.2     1  UNL1        0.0700
     23  C         24.5240  -22.6470  -16.0680 C.2     1  UNL1        0.0660
     24  O         24.6370  -23.6760  -18.1530 O.2     1  UNL1       -0.3560
     25  C         23.2160  -23.7230  -18.1200 C.3     1  UNL1        0.2100
     26  C         18.3790  -22.8400   -7.1130 C.2     1  UNL1        0.0320
     27  C         17.9440  -24.1610   -7.2650 C.2     1  UNL1        0.0170
     28  C         16.7710  -24.5790   -6.6340 C.2     1  UNL1        0.0070
     29  C         16.0410  -23.6910   -5.8300 C.2     1  UNL1       -0.0620
     30  C         14.7660  -24.1340   -5.1750 C.3     1  UNL1        0.0480
     31  C         16.4930  -22.3730   -5.6780 C.2     1  UNL1        0.0070
     32  C         17.6660  -21.9510   -6.3050 C.2     1  UNL1        0.0170
@<TRIPOS>BOND
     1    24    25    1
     2    24    22    1
     3    21    22    2
     4    21    20    1
     5    22    23    1
     6    20    19    2
     7    23    18    2
     8    19    18    1
     9    18    16    1
    10    16    17    1
    11    16    13    1
    12    14    13    2
    13    13    15    2
    14    13     1    1
    15     6     1    2
    16     6     5    1
    17     7     5    1
    18     7     8    1
    19     1     2    1
    20     5     4    2
    21     8     9    1
    22     2     3    2
    23     4     3    1
    24     4    10    1
    25     9    10    1
    26    10    11   am
    27    11    26    1
    28    11    12    2
    29    27    26    2
    30    27    28    1
    31    26    32    1
    32    28    29    2
    33    32    31    2
    34    29    31    1
    35    29    30    1
