@<TRIPOS>MOLECULE
67364_out_ligand_01.pdbqt
 32 35 0 0 0
SMALL
GASTEIGER

@<TRIPOS>ATOM
      1  C         19.0670  -23.7650   -8.2840 C.2     1  UNL1        0.2580
      2  O         19.6180  -24.8260   -8.0000 O.2     1  UNL1       -0.2670
      3  N         19.4200  -22.8960   -9.3340 N.am    1  UNL1       -0.3130
      4  C         18.4400  -21.9400   -9.8700 C.3     1  UNL1        0.1330
      5  C         18.5180  -21.8060  -11.3790 C.3     1  UNL1        0.0250
      6  C         19.8960  -21.3120  -11.7620 C.3     1  UNL1        0.0420
      7  C         20.9680  -22.1520  -11.1200 C.2     1  UNL1       -0.0300
      8  C         22.2490  -22.1300  -11.7020 C.2     1  UNL1        0.0340
      9  C         23.2910  -22.8630  -11.1360 C.2     1  UNL1        0.0800
     10  C         23.0640  -23.6440  -10.0100 C.2     1  UNL1        0.0270
     11  C         21.7930  -23.6580   -9.4230 C.2     1  UNL1        0.0320
     12  C         20.7230  -22.9190   -9.9570 C.2     1  UNL1        0.0430
     13  S         24.9110  -22.8160  -11.8660 S.O2    1  UNL1        0.2630
     14  O         24.9210  -23.7270  -12.9900 O.2     1  UNL1       -0.2000
     15  O         25.8800  -22.9290  -10.7980 O.2     1  UNL1       -0.2000
     16  N         25.0240  -21.2260  -12.4430 N.pl3   1  UNL1       -0.2790
     17  H         24.2320  -20.6690  -12.1120 H       1  UNL1        0.1790
     18  C         25.4050  -21.0190  -13.8080 C.2     1  UNL1        0.0640
     19  C         26.7500  -21.1000  -14.1740 C.2     1  UNL1        0.0330
     20  C         27.1210  -20.9490  -15.5120 C.2     1  UNL1        0.0260
     21  C         26.1480  -20.7120  -16.4820 C.2     1  UNL1        0.0350
     22 CL         26.6100  -20.5380  -18.1290 Cl      1  UNL1       -0.0840
     23  C         24.8030  -20.6150  -16.1280 C.2     1  UNL1        0.0500
     24  C         24.4350  -20.7670  -14.7920 C.2     1  UNL1        0.0620
     25 CL         22.7610  -20.6390  -14.3780 Cl      1  UNL1       -0.0820
     26  C         17.9120  -23.3960   -7.4280 C.2     1  UNL1        0.0320
     27  C         16.6870  -24.0350   -7.6300 C.2     1  UNL1        0.0170
     28  C         15.5940  -23.7110   -6.8220 C.2     1  UNL1        0.0070
     29  C         15.7230  -22.7530   -5.8070 C.2     1  UNL1       -0.0620
     30  C         14.5570  -22.4350   -4.9160 C.3     1  UNL1        0.0480
     31  C         16.9680  -22.1470   -5.5870 C.2     1  UNL1        0.0070
     32  C         18.0620  -22.4690   -6.3920 C.2     1  UNL1        0.0170
@<TRIPOS>BOND
     1    22    21    1
     2    21    23    2
     3    21    20    1
     4    23    24    1
     5    20    19    2
     6    24    25    1
     7    24    18    2
     8    19    18    1
     9    18    16    1
    10    14    13    2
    11    16    17    1
    12    16    13    1
    13    13     9    1
    14    13    15    2
    15     6     5    1
    16     6     7    1
    17     8     9    1
    18     8     7    2
    19     5     4    1
    20     9    10    2
    21     7    12    1
    22    10    11    1
    23    12    11    2
    24    12     3    1
    25     4     3    1
    26     3     1   am
    27     1     2    2
    28     1    26    1
    29    27    26    2
    30    27    28    1
    31    26    32    1
    32    28    29    2
    33    32    31    2
    34    29    31    1
    35    29    30    1
