@<TRIPOS>MOLECULE
67369_out_ligand_01.pdbqt
 33 36 0 0 0
SMALL
GASTEIGER

@<TRIPOS>ATOM
      1  C         22.9100  -22.2420  -11.8080 C.2     1  UNL1        0.0750
      2  C         22.9360  -23.0960  -10.7110 C.2     1  UNL1        0.0270
      3  C         21.7750  -23.2830   -9.9520 C.2     1  UNL1        0.0320
      4  C         20.5660  -22.6450  -10.2780 C.2     1  UNL1        0.0430
      5  C         20.5560  -21.7930  -11.4080 C.2     1  UNL1       -0.0300
      6  C         21.7280  -21.5920  -12.1620 C.2     1  UNL1        0.0340
      7  C         19.3210  -21.0470  -11.8360 C.3     1  UNL1        0.0420
      8  C         18.0730  -21.7190  -11.3030 C.3     1  UNL1        0.0250
      9  C         18.2290  -21.9420   -9.8110 C.3     1  UNL1        0.1330
     10  N         19.3710  -22.8070   -9.4820 N.am    1  UNL1       -0.3130
     11  C         19.2700  -23.7610   -8.4500 C.2     1  UNL1        0.2580
     12  O         19.9810  -24.7510   -8.2960 O.2     1  UNL1       -0.2670
     13  S         24.3860  -21.9930  -12.7610 S.O2    1  UNL1        0.2460
     14  O         25.2960  -21.2250  -11.9390 O.2     1  UNL1       -0.2060
     15  O         24.7870  -23.2610  -13.3330 O.2     1  UNL1       -0.2060
     16  N         23.8500  -20.9480  -13.9880 N.pl3   1  UNL1       -0.1790
     17  H         23.3630  -20.1680  -13.5420 H       1  UNL1        0.1460
     18  C         24.8350  -20.5300  -14.9380 C.2     1  UNL1        0.0560
     19  C         25.6740  -19.4560  -14.6430 C.2     1  UNL1        0.0270
     20  C         26.5900  -19.0130  -15.5960 C.2     1  UNL1        0.0020
     21  C         26.6600  -19.6400  -16.8410 C.2     1  UNL1        0.0030
     22  C         25.8130  -20.7100  -17.1420 C.2     1  UNL1        0.0390
     23  C         24.8840  -21.1490  -16.1960 C.2     1  UNL1        0.0900
     24  O         24.0290  -22.2040  -16.3940 O.2     1  UNL1       -0.3500
     25  C         24.5100  -23.1940  -17.3070 C.3     1  UNL1        0.1710
     26  C         23.3370  -23.6530  -18.1530 C.3     1  UNL1        0.0340
     27  C         18.1950  -23.5890   -7.4420 C.2     1  UNL1        0.0320
     28  C         16.9730  -24.2540   -7.5870 C.2     1  UNL1        0.0170
     29  C         15.9700  -24.0690   -6.6340 C.2     1  UNL1        0.0070
     30  C         16.1700  -23.2020   -5.5510 C.2     1  UNL1       -0.0620
     31  C         15.1000  -23.0300   -4.5130 C.3     1  UNL1        0.0480
     32  C         17.3950  -22.5330   -5.4230 C.2     1  UNL1        0.0070
     33  C         18.4020  -22.7140   -6.3730 C.2     1  UNL1        0.0170
@<TRIPOS>BOND
     1    26    25    1
     2    25    24    1
     3    22    21    2
     4    22    23    1
     5    21    20    1
     6    24    23    1
     7    23    18    2
     8    20    19    2
     9    18    19    1
    10    18    16    1
    11    16    17    1
    12    16    13    1
    13    15    13    2
    14    13    14    2
    15    13     1    1
    16     6     1    2
    17     6     5    1
    18     7     5    1
    19     7     8    1
    20     1     2    1
    21     5     4    2
    22     8     9    1
    23     2     3    2
    24     4     3    1
    25     4    10    1
    26     9    10    1
    27    10    11   am
    28    11    12    2
    29    11    27    1
    30    28    27    2
    31    28    29    1
    32    27    33    1
    33    29    30    2
    34    33    32    2
    35    30    32    1
    36    30    31    1
