@<TRIPOS>MOLECULE
67360_out_ligand_01.pdbqt
 32 35 0 0 0
SMALL
GASTEIGER

@<TRIPOS>ATOM
      1  C         19.0740  -23.7460   -8.3030 C.2     1  UNL1        0.2580
      2  O         19.6210  -24.8040   -8.0000 O.2     1  UNL1       -0.2670
      3  N         19.4490  -22.8830   -9.3510 N.am    1  UNL1       -0.3130
      4  C         18.4810  -21.9240   -9.9050 C.3     1  UNL1        0.1330
      5  C         18.5860  -21.7870  -11.4120 C.3     1  UNL1        0.0250
      6  C         19.9730  -21.2960  -11.7680 C.3     1  UNL1        0.0420
      7  C         21.0280  -22.1460  -11.1130 C.2     1  UNL1       -0.0300
      8  C         22.3180  -22.1310  -11.6780 C.2     1  UNL1        0.0340
      9  C         23.3420  -22.8830  -11.1040 C.2     1  UNL1        0.0800
     10  C         23.0950  -23.6570   -9.9770 C.2     1  UNL1        0.0270
     11  C         21.8170  -23.6590   -9.4050 C.2     1  UNL1        0.0320
     12  C         20.7600  -22.9120   -9.9540 C.2     1  UNL1        0.0430
     13  S         24.9640  -22.8690  -11.8200 S.O2    1  UNL1        0.2630
     14  O         25.9160  -22.9270  -10.7310 O.2     1  UNL1       -0.2000
     15  O         25.0070  -23.8300  -12.9010 O.2     1  UNL1       -0.2000
     16  N         25.0760  -21.3030  -12.4530 N.pl3   1  UNL1       -0.2800
     17  H         25.5200  -20.6750  -11.7850 H       1  UNL1        0.1790
     18  C         25.4060  -21.1540  -13.8290 C.2     1  UNL1        0.0480
     19  C         26.7480  -21.2660  -14.2070 C.2     1  UNL1        0.0320
     20  C         27.1210  -21.0810  -15.5380 C.2     1  UNL1        0.0260
     21  C         26.1510  -20.7740  -16.4870 C.2     1  UNL1        0.0340
     22 CL         26.6090  -20.5370  -18.1290 Cl      1  UNL1       -0.0840
     23  C         24.8110  -20.6560  -16.1180 C.2     1  UNL1        0.0320
     24  C         24.4200  -20.8490  -14.7820 C.2     1  UNL1       -0.0330
     25  C         22.9730  -20.6910  -14.4090 C.3     1  UNL1        0.0500
     26  C         17.9020  -23.3730   -7.4730 C.2     1  UNL1        0.0320
     27  C         16.6790  -24.0080   -7.7020 C.2     1  UNL1        0.0170
     28  C         15.5720  -23.6810   -6.9180 C.2     1  UNL1        0.0070
     29  C         15.6800  -22.7230   -5.9010 C.2     1  UNL1       -0.0620
     30  C         14.4970  -22.4030   -5.0350 C.3     1  UNL1        0.0480
     31  C         16.9220  -22.1210   -5.6530 C.2     1  UNL1        0.0070
     32  C         18.0320  -22.4460   -6.4340 C.2     1  UNL1        0.0170
@<TRIPOS>BOND
     1    22    21    1
     2    21    23    2
     3    21    20    1
     4    23    24    1
     5    20    19    2
     6    24    25    1
     7    24    18    2
     8    19    18    1
     9    18    16    1
    10    15    13    2
    11    16    13    1
    12    16    17    1
    13    13     9    1
    14    13    14    2
    15     6     5    1
    16     6     7    1
    17     8     7    2
    18     8     9    1
    19     5     4    1
    20     7    12    1
    21     9    10    2
    22    10    11    1
    23    12    11    2
    24    12     3    1
    25     4     3    1
    26     3     1   am
    27     1     2    2
    28     1    26    1
    29    27    26    2
    30    27    28    1
    31    26    32    1
    32    28    29    2
    33    32    31    2
    34    29    31    1
    35    29    30    1
