@<TRIPOS>MOLECULE
6736_out_ligand_01.pdbqt
 32 35 0 0 0
SMALL
GASTEIGER

@<TRIPOS>ATOM
      1  C         17.8030  -23.1860   -8.8040 C.2     1  UNL1        0.0290
      2  C         18.8560  -24.0050   -8.4850 C.2     1  UNL1        0.1100
      3  N         19.8760  -23.7280   -9.3600 N.pl3   1  UNL1       -0.3530
      4  C         19.5090  -22.7080  -10.2160 C.2     1  UNL1        0.0450
      5  C         20.2120  -22.0720  -11.2520 C.2     1  UNL1        0.0300
      6  C         19.5610  -21.0640  -11.9700 C.2     1  UNL1        0.0020
      7  C         18.2530  -20.7030  -11.6700 C.2     1  UNL1        0.0010
      8  C         17.5590  -21.3430  -10.6380 C.2     1  UNL1        0.0150
      9  C         18.1920  -22.3590   -9.8920 C.2     1  UNL1        0.0090
     10  C         21.1450  -24.4380   -9.3870 C.3     1  UNL1        0.1480
     11  C         22.2930  -23.6040   -8.8200 C.3     1  UNL1        0.1430
     12  N         23.3700  -23.3970   -9.7760 N.am    1  UNL1       -0.3550
     13  C         23.7910  -22.1300  -10.1220 C.2     1  UNL1        0.2540
     14  O         23.3920  -21.1110   -9.5720 O.2     1  UNL1       -0.2680
     15  H         23.6650  -24.1840  -10.3440 H       1  UNL1        0.1620
     16  C         24.7630  -22.0590  -11.2350 C.2     1  UNL1        0.0700
     17  C         26.1400  -21.9910  -10.9820 C.2     1  UNL1        0.0200
     18  C         27.0410  -21.9430  -12.0500 C.2     1  UNL1        0.0010
     19  C         26.5740  -21.9700  -13.3650 C.2     1  UNL1        0.0030
     20  C         25.2040  -22.0410  -13.6150 C.2     1  UNL1        0.0430
     21  C         24.3050  -22.0900  -12.5510 C.2     1  UNL1        0.1320
     22  F         22.9940  -22.1290  -12.8320 F       1  UNL1       -0.2050
     23  S         16.2490  -23.1680   -8.0100 S.3     1  UNL1       -0.1230
     24  C         16.6920  -24.0200   -6.4640 C.3     1  UNL1        0.1180
     25  C         17.2160  -23.0550   -5.4230 C.2     1  UNL1       -0.0420
     26  C         16.7720  -23.0750   -4.0830 C.2     1  UNL1       -0.0550
     27  C         17.3070  -22.1540   -3.1710 C.2     1  UNL1        0.0080
     28  C         15.7300  -24.0490   -3.6040 C.3     1  UNL1        0.0490
     29  C         18.2760  -21.2310   -3.5670 C.2     1  UNL1        0.0070
     30  C         18.7260  -21.2030   -4.8870 C.2     1  UNL1       -0.0610
     31  C         19.8040  -20.2470   -5.3020 C.3     1  UNL1        0.0480
     32  C         18.2020  -22.1240   -5.8020 C.2     1  UNL1        0.0150
@<TRIPOS>BOND
     1    20    19    2
     2    20    21    1
     3    19    18    1
     4    22    21    1
     5    21    16    2
     6    18    17    2
     7     6     7    2
     8     6     5    1
     9     7     8    1
    10     5     4    2
    11    16    17    1
    12    16    13    1
    13     8     9    2
    14    15    12    1
    15     4     9    1
    16     4     3    1
    17    13    12   am
    18    13    14    2
    19     9     1    1
    20    12    11    1
    21    10     3    1
    22    10    11    1
    23     3     2    1
    24     1     2    2
    25     1    23    1
    26    23    24    1
    27    24    25    1
    28    32    25    2
    29    32    30    1
    30    25    26    1
    31    31    30    1
    32    30    29    2
    33    26    28    1
    34    26    27    2
    35    29    27    1
