@<TRIPOS>MOLECULE
67363_out_ligand_01.pdbqt
 32 35 0 0 0
SMALL
GASTEIGER

@<TRIPOS>ATOM
      1  C         22.8200  -22.5310  -10.4350 C.2     1  UNL1        0.2580
      2  O         23.1210  -22.8380   -9.2840 O.2     1  UNL1       -0.2670
      3  N         21.5330  -22.1990  -10.9000 N.am    1  UNL1       -0.3130
      4  C         21.3660  -21.3930  -12.1170 C.3     1  UNL1        0.1330
      5  C         20.2470  -20.3750  -11.9930 C.3     1  UNL1        0.0250
      6  C         18.9420  -21.1020  -11.7440 C.3     1  UNL1        0.0420
      7  C         19.0770  -22.0810  -10.6070 C.2     1  UNL1       -0.0300
      8  C         17.8960  -22.5060   -9.9700 C.2     1  UNL1        0.0340
      9  C         17.9530  -23.4390   -8.9370 C.2     1  UNL1        0.0750
     10  C         19.1790  -23.9300   -8.5040 C.2     1  UNL1        0.0270
     11  C         20.3530  -23.5150   -9.1440 C.2     1  UNL1        0.0320
     12  C         20.3310  -22.5920  -10.2040 C.2     1  UNL1        0.0430
     13  S         16.4550  -23.9980   -8.1600 S.O2    1  UNL1        0.2450
     14  O         15.4940  -24.2800   -9.2030 O.2     1  UNL1       -0.2060
     15  O         16.8110  -24.9980   -7.1750 O.2     1  UNL1       -0.2060
     16  N         15.8990  -22.6080   -7.3620 N.pl3   1  UNL1       -0.1800
     17  H         16.1780  -21.7700   -7.8780 H       1  UNL1        0.1460
     18  C         16.0390  -22.5380   -5.9350 C.2     1  UNL1        0.0460
     19  C         15.0080  -23.0230   -5.1260 C.2     1  UNL1        0.0260
     20  C         15.1410  -23.0150   -3.7380 C.2     1  UNL1        0.0040
     21  C         16.3070  -22.5220   -3.1530 C.2     1  UNL1        0.0260
     22  C         17.3410  -22.0280   -3.9540 C.2     1  UNL1        0.0570
     23 CL         18.7570  -21.4400   -3.1530 Cl      1  UNL1       -0.0820
     24  C         17.2120  -22.0270   -5.3490 C.2     1  UNL1        0.0770
     25 CL         18.4670  -21.4040   -6.3720 Cl      1  UNL1       -0.0810
     26  C         23.9430  -22.5000  -11.4050 C.2     1  UNL1        0.0320
     27  C         24.8230  -21.4140  -11.4400 C.2     1  UNL1        0.0170
     28  C         25.8630  -21.3950  -12.3710 C.2     1  UNL1        0.0070
     29  C         26.0270  -22.4550  -13.2740 C.2     1  UNL1       -0.0620
     30  C         27.1210  -22.4140  -14.3000 C.3     1  UNL1        0.0480
     31  C         25.1150  -23.5190  -13.2560 C.2     1  UNL1        0.0070
     32  C         24.0730  -23.5420  -12.3280 C.2     1  UNL1        0.0170
@<TRIPOS>BOND
     1    30    29    1
     2    29    31    2
     3    29    28    1
     4    31    32    1
     5    28    27    2
     6    32    26    2
     7     4     5    1
     8     4     3    1
     9     5     6    1
    10     6     7    1
    11    27    26    1
    12    26     1    1
    13     3     1   am
    14     3    12    1
    15     7    12    2
    16     7     8    1
    17     1     2    2
    18    12    11    1
    19     8     9    2
    20    14    13    2
    21    11    10    2
    22     9    10    1
    23     9    13    1
    24    13    16    1
    25    13    15    2
    26    17    16    1
    27    16    18    1
    28    25    24    1
    29    18    24    2
    30    18    19    1
    31    24    22    1
    32    19    20    2
    33    22    21    2
    34    22    23    1
    35    20    21    1
