@<TRIPOS>MOLECULE
67365_out_ligand_01.pdbqt
 32 35 0 0 0
SMALL
GASTEIGER

@<TRIPOS>ATOM
      1  C         19.2010  -23.7030   -8.4020 C.2     1  UNL1        0.2580
      2  O         19.9170  -24.6460   -8.0720 O.2     1  UNL1       -0.2670
      3  N         19.4570  -22.7860   -9.4400 N.am    1  UNL1       -0.3130
      4  C         18.3540  -22.0340  -10.0560 C.3     1  UNL1        0.1330
      5  C         18.5100  -21.9010  -11.5600 C.3     1  UNL1        0.0250
      6  C         19.7940  -21.1580  -11.8600 C.3     1  UNL1        0.0420
      7  C         20.9590  -21.7700  -11.1280 C.2     1  UNL1       -0.0300
      8  C         22.2510  -21.5000  -11.6170 C.2     1  UNL1        0.0340
      9  C         23.3680  -22.0200  -10.9650 C.2     1  UNL1        0.0800
     10  C         23.2130  -22.8260   -9.8420 C.2     1  UNL1        0.0270
     11  C         21.9290  -23.0810   -9.3480 C.2     1  UNL1        0.0320
     12  C         20.7800  -22.5640   -9.9710 C.2     1  UNL1        0.0430
     13  S         24.9950  -21.6460  -11.5740 S.O2    1  UNL1        0.2630
     14  O         25.6110  -22.8960  -11.9690 O.2     1  UNL1       -0.2000
     15  O         25.6390  -20.7480  -10.6410 O.2     1  UNL1       -0.2000
     16  N         24.6700  -20.8130  -13.0120 N.pl3   1  UNL1       -0.2810
     17  H         24.5880  -19.8100  -12.8550 H       1  UNL1        0.1790
     18  C         25.2660  -21.2630  -14.2230 C.2     1  UNL1        0.0440
     19  C         26.5690  -20.8940  -14.5550 C.2     1  UNL1        0.0320
     20  C         27.1210  -21.3000  -15.7730 C.2     1  UNL1        0.0280
     21  C         26.3680  -22.0730  -16.6620 C.2     1  UNL1        0.0550
     22 CL         27.1070  -22.5350  -18.1520 Cl      1  UNL1       -0.0830
     23  C         25.0600  -22.4410  -16.3260 C.2     1  UNL1        0.0580
     24 CL         24.0630  -23.3830  -17.3770 Cl      1  UNL1       -0.0820
     25  C         24.5110  -22.0370  -15.1040 C.2     1  UNL1        0.0550
     26  C         17.9480  -23.5460   -7.6230 C.2     1  UNL1        0.0320
     27  C         17.9120  -22.7230   -6.4930 C.2     1  UNL1        0.0170
     28  C         16.7280  -22.6020   -5.7620 C.2     1  UNL1        0.0070
     29  C         15.5790  -23.3040   -6.1520 C.2     1  UNL1       -0.0620
     30  C         14.3200  -23.2040   -5.3420 C.3     1  UNL1        0.0480
     31  C         15.6390  -24.1570   -7.2620 C.2     1  UNL1        0.0070
     32  C         16.8200  -24.2820   -7.9960 C.2     1  UNL1        0.0170
@<TRIPOS>BOND
     1    22    21    1
     2    24    23    1
     3    21    23    2
     4    21    20    1
     5    23    25    1
     6    20    19    2
     7    25    18    2
     8    19    18    1
     9    18    16    1
    10    16    17    1
    11    16    13    1
    12    14    13    2
    13     6     5    1
    14     6     7    1
    15     8     7    2
    16     8     9    1
    17    13     9    1
    18    13    15    2
    19     5     4    1
    20     7    12    1
    21     9    10    2
    22     4     3    1
    23    12     3    1
    24    12    11    2
    25    10    11    1
    26     3     1   am
    27     1     2    2
    28     1    26    1
    29    32    26    2
    30    32    31    1
    31    26    27    1
    32    31    29    2
    33    27    28    2
    34    29    28    1
    35    29    30    1
