@<TRIPOS>MOLECULE
67373_out_ligand_01.pdbqt
 31 34 0 0 0
SMALL
GASTEIGER

@<TRIPOS>ATOM
      1  C         17.9560  -23.6910   -8.3880 C.2     1  UNL1        0.0800
      2  C         19.2380  -24.0370   -7.9780 C.2     1  UNL1        0.0270
      3  C         20.3440  -23.5660   -8.6940 C.2     1  UNL1        0.0320
      4  C         20.1990  -22.7280   -9.8140 C.2     1  UNL1        0.0430
      5  C         18.8860  -22.3740  -10.2040 C.2     1  UNL1       -0.0300
      6  C         17.7730  -22.8600   -9.4910 C.2     1  UNL1        0.0340
      7  C         18.6170  -21.4990  -11.3990 C.3     1  UNL1        0.0420
      8  C         19.8290  -20.6560  -11.7340 C.3     1  UNL1        0.0250
      9  C         21.0470  -21.5550  -11.8340 C.3     1  UNL1        0.1330
     10  N         21.3330  -22.2650  -10.5780 N.am    1  UNL1       -0.3130
     11  C         22.6610  -22.4390  -10.1450 C.2     1  UNL1        0.2580
     12  O         23.0310  -22.6630   -8.9950 O.2     1  UNL1       -0.2670
     13  S         16.5510  -24.2890   -7.4860 S.O2    1  UNL1        0.2630
     14  O         16.9920  -25.2930   -6.5420 O.2     1  UNL1       -0.2000
     15  O         15.5090  -24.5830   -8.4480 O.2     1  UNL1       -0.2000
     16  N         16.0380  -22.9130   -6.6480 N.pl3   1  UNL1       -0.2810
     17  H         15.0400  -22.9660   -6.4470 H       1  UNL1        0.1790
     18  C         16.8840  -22.3990   -5.6310 C.2     1  UNL1        0.0430
     19  C         16.5700  -22.6390   -4.2950 C.2     1  UNL1        0.0300
     20  C         17.3830  -22.1170   -3.2890 C.2     1  UNL1        0.0030
     21  C         18.5000  -21.3500   -3.6210 C.2     1  UNL1        0.0070
     22  C         18.8070  -21.0850   -4.9630 C.2     1  UNL1       -0.0600
     23  C         20.0190  -20.2750   -5.3200 C.3     1  UNL1        0.0480
     24  C         17.9960  -21.6250   -5.9670 C.2     1  UNL1        0.0370
     25  C         23.7470  -22.3360  -11.1490 C.2     1  UNL1        0.0320
     26  C         24.7340  -21.3560  -10.9860 C.2     1  UNL1        0.0180
     27  C         25.7760  -21.2610  -11.9100 C.2     1  UNL1        0.0250
     28  C         25.8360  -22.1530  -12.9800 C.2     1  UNL1        0.0340
     29 CL         27.1210  -22.0350  -14.1190 Cl      1  UNL1       -0.0840
     30  C         24.8690  -23.1480  -13.1330 C.2     1  UNL1        0.0250
     31  C         23.8240  -23.2470  -12.2110 C.2     1  UNL1        0.0180
@<TRIPOS>BOND
     1    29    28    1
     2    30    28    2
     3    30    31    1
     4    28    27    1
     5    31    25    2
     6    27    26    2
     7     9     8    1
     8     9    10    1
     9     8     7    1
    10     7     5    1
    11    25    26    1
    12    25    11    1
    13    10    11   am
    14    10     4    1
    15     5     4    2
    16     5     6    1
    17    11    12    2
    18     4     3    1
    19     6     1    2
    20     3     2    2
    21    15    13    2
    22     1     2    1
    23     1    13    1
    24    13    16    1
    25    13    14    2
    26    16    17    1
    27    16    18    1
    28    24    18    2
    29    24    22    1
    30    18    19    1
    31    23    22    1
    32    22    21    2
    33    19    20    2
    34    21    20    1
