@<TRIPOS>MOLECULE
67374_out_ligand_01.pdbqt
 32 35 0 0 0
SMALL
GASTEIGER

@<TRIPOS>ATOM
      1  C         23.1820  -22.0650  -11.0130 C.2     1  UNL1        0.0800
      2  C         23.1250  -22.2930   -9.6420 C.2     1  UNL1        0.0270
      3  C         21.8800  -22.3450   -9.0030 C.2     1  UNL1        0.0320
      4  C         20.6780  -22.1490   -9.7040 C.2     1  UNL1        0.0430
      5  C         20.7620  -21.8920  -11.0920 C.2     1  UNL1       -0.0300
      6  C         22.0120  -21.8520  -11.7370 C.2     1  UNL1        0.0340
      7  C         19.5360  -21.6880  -11.9430 C.3     1  UNL1        0.0420
      8  C         18.3620  -21.2440  -11.0980 C.3     1  UNL1        0.0250
      9  C         18.2040  -22.2010   -9.9310 C.3     1  UNL1        0.1330
     10  N         19.3880  -22.2410   -9.0600 N.am    1  UNL1       -0.3130
     11  C         19.2430  -22.3360   -7.6630 C.2     1  UNL1        0.2580
     12  O         20.0810  -22.0300   -6.8180 O.2     1  UNL1       -0.2670
     13  S         24.7580  -22.0250  -11.8360 S.O2    1  UNL1        0.2630
     14  O         25.6730  -21.2530  -11.0220 O.2     1  UNL1       -0.2000
     15  O         25.0740  -23.3800  -12.2400 O.2     1  UNL1       -0.2000
     16  N         24.4200  -21.1790  -13.2610 N.pl3   1  UNL1       -0.2810
     17  H         24.2740  -20.1870  -13.0820 H       1  UNL1        0.1790
     18  C         25.1030  -21.5430  -14.4540 C.2     1  UNL1        0.0430
     19  C         26.4260  -21.1660  -14.6570 C.2     1  UNL1        0.0300
     20  C         27.0620  -21.4830  -15.8580 C.2     1  UNL1        0.0090
     21  C         26.3810  -22.1750  -16.8710 C.2     1  UNL1       -0.0560
     22  C         27.1010  -22.4970  -18.1530 C.3     1  UNL1        0.0490
     23  C         25.0400  -22.5590  -16.6640 C.2     1  UNL1       -0.0540
     24  C         24.4130  -22.2350  -15.4490 C.2     1  UNL1        0.0370
     25  C         24.2640  -23.2950  -17.7210 C.3     1  UNL1        0.0490
     26  C         17.9590  -22.8450   -7.1230 C.2     1  UNL1        0.0320
     27  C         17.1030  -21.9590   -6.4600 C.2     1  UNL1        0.0180
     28  C         15.9000  -22.4270   -5.9240 C.2     1  UNL1        0.0250
     29  C         15.5700  -23.7770   -6.0410 C.2     1  UNL1        0.0340
     30 CL         14.0880  -24.3520   -5.3810 Cl      1  UNL1       -0.0840
     31  C         16.4330  -24.6690   -6.6790 C.2     1  UNL1        0.0250
     32  C         17.6370  -24.2050   -7.2170 C.2     1  UNL1        0.0180
@<TRIPOS>BOND
     1    22    21    1
     2    25    23    1
     3    21    23    2
     4    21    20    1
     5    23    24    1
     6    20    19    2
     7    24    18    2
     8    19    18    1
     9    18    16    1
    10    16    17    1
    11    16    13    1
    12    15    13    2
    13     7     8    1
    14     7     5    1
    15    13    14    2
    16    13     1    1
    17     6     5    1
    18     6     1    2
    19     8     9    1
    20     5     4    2
    21     1     2    1
    22     9    10    1
    23     4    10    1
    24     4     3    1
    25     2     3    2
    26    10    11   am
    27    11    26    1
    28    11    12    2
    29    32    26    2
    30    32    31    1
    31    26    27    1
    32    31    29    2
    33    27    28    2
    34    29    28    1
    35    29    30    1
