@<TRIPOS>MOLECULE
67371_out_ligand_01.pdbqt
 30 33 0 0 0
SMALL
GASTEIGER

@<TRIPOS>ATOM
      1  O         20.1460  -22.2530   -7.0800 O.2     1  UNL1       -0.2670
      2  C         19.2080  -22.4430   -7.8500 C.2     1  UNL1        0.2580
      3  N         19.2140  -22.2430   -9.2440 N.am    1  UNL1       -0.3130
      4  C         17.9530  -22.0450   -9.9730 C.3     1  UNL1        0.1330
      5  C         18.0650  -20.9950  -11.0630 C.3     1  UNL1        0.0250
      6  C         19.1090  -21.4340  -12.0670 C.3     1  UNL1        0.0420
      7  C         20.3950  -21.8020  -11.3780 C.2     1  UNL1       -0.0300
      8  C         21.5740  -21.7860  -12.1490 C.2     1  UNL1        0.0340
      9  C         22.7940  -22.1270  -11.5700 C.2     1  UNL1        0.0800
     10  C         22.8550  -22.4890  -10.2290 C.2     1  UNL1        0.0270
     11  C         21.6820  -22.5230   -9.4660 C.2     1  UNL1        0.0320
     12  C         20.4340  -22.1810  -10.0150 C.2     1  UNL1        0.0430
     13  S         24.2830  -22.0930  -12.5320 S.O2    1  UNL1        0.2580
     14  O         25.2360  -21.2200  -11.8840 O.2     1  UNL1       -0.2010
     15  O         24.6070  -23.4580  -12.8800 O.2     1  UNL1       -0.2010
     16  N         23.7650  -21.3440  -13.9360 N.3     1  UNL1       -0.3130
     17  H         23.0920  -21.8990  -14.4720 H       1  UNL1        0.1720
     18  C         24.7370  -20.5750  -14.7260 C.3     1  UNL1        0.1640
     19  C         24.8030  -21.1670  -16.1440 C.3     1  UNL1        0.1400
     20  C         26.2060  -21.6110  -16.5320 C.3     1  UNL1        0.0350
     21  C         26.2250  -23.0630  -16.1240 C.3     1  UNL1        0.0290
     22  C         24.8080  -23.4920  -16.4300 C.3     1  UNL1        0.1680
     23  O         23.9720  -22.3520  -16.1900 O.3     1  UNL1       -0.3840
     24  C         17.9560  -22.9210   -7.2160 C.2     1  UNL1        0.0320
     25  C         17.2050  -22.0310   -6.4390 C.2     1  UNL1        0.0180
     26  C         16.0360  -22.4710   -5.8140 C.2     1  UNL1        0.0250
     27  C         15.6330  -23.7990   -5.9550 C.2     1  UNL1        0.0340
     28 CL         14.1920  -24.3390   -5.1870 Cl      1  UNL1       -0.0840
     29  C         16.3920  -24.6960   -6.7080 C.2     1  UNL1        0.0250
     30  C         17.5620  -24.2610   -7.3340 C.2     1  UNL1        0.0180
@<TRIPOS>BOND
     1    20    19    1
     2    20    21    1
     3    22    23    1
     4    22    21    1
     5    23    19    1
     6    19    18    1
     7    18    16    1
     8    17    16    1
     9    16    13    1
    10    15    13    2
    11    13    14    2
    12    13     9    1
    13     8     9    1
    14     8     7    2
    15     6     7    1
    16     6     5    1
    17     9    10    2
    18     7    12    1
    19     5     4    1
    20    10    11    1
    21    12    11    2
    22    12     3    1
    23     4     3    1
    24     3     2   am
    25     2    24    1
    26     2     1    2
    27    30    24    2
    28    30    29    1
    29    24    25    1
    30    29    27    2
    31    25    26    2
    32    27    26    1
    33    27    28    1
