@<TRIPOS>MOLECULE
67372_out_ligand_01.pdbqt
 31 34 0 0 0
SMALL
GASTEIGER

@<TRIPOS>ATOM
      1  O         20.2110  -21.8820   -6.7550 O.2     1  UNL1       -0.2670
      2  C         19.4210  -22.2700   -7.6120 C.2     1  UNL1        0.2580
      3  N         19.6160  -22.2380   -9.0060 N.am    1  UNL1       -0.3130
      4  C         18.4650  -22.2910   -9.9210 C.3     1  UNL1        0.1330
      5  C         18.6250  -21.3790  -11.1220 C.3     1  UNL1        0.0250
      6  C         19.8510  -21.8020  -11.9030 C.3     1  UNL1        0.0420
      7  C         21.0510  -21.9150  -11.0010 C.2     1  UNL1       -0.0300
      8  C         22.3240  -21.8410  -11.6000 C.2     1  UNL1        0.0340
      9  C         23.4720  -21.9520  -10.8210 C.2     1  UNL1        0.0800
     10  C         23.3700  -22.1280   -9.4450 C.2     1  UNL1        0.0270
     11  C         22.1060  -22.2200   -8.8520 C.2     1  UNL1        0.0320
     12  C         20.9240  -22.1150   -9.6060 C.2     1  UNL1        0.0430
     13  S         25.0780  -21.8540  -11.5700 S.O2    1  UNL1        0.2590
     14  O         25.7390  -23.1230  -11.3710 O.2     1  UNL1       -0.2010
     15  O         25.6850  -20.6020  -11.1760 O.2     1  UNL1       -0.2010
     16  N         24.7140  -21.7520  -13.1990 N.3     1  UNL1       -0.3110
     17  H         24.7510  -20.8120  -13.5860 H       1  UNL1        0.1720
     18  C         25.0190  -22.8800  -14.0720 C.3     1  UNL1        0.1720
     19  C         24.8110  -22.5320  -15.5190 C.2     1  UNL1       -0.0220
     20  C         24.6650  -23.5220  -16.4960 C.2     1  UNL1        0.0120
     21  C         24.4930  -23.1610  -17.8280 C.2     1  UNL1        0.0200
     22  C         24.4790  -21.8130  -18.1450 C.2     1  UNL1        0.1160
     23  N         24.6260  -20.8270  -17.2330 N.2     1  UNL1       -0.2730
     24  C         24.7900  -21.2080  -15.9460 C.2     1  UNL1        0.1240
     25  C         18.1400  -22.8110   -7.0940 C.2     1  UNL1        0.0320
     26  C         17.2050  -21.9280   -6.5430 C.2     1  UNL1        0.0180
     27  C         16.0040  -22.4220   -6.0280 C.2     1  UNL1        0.0250
     28  C         15.7540  -23.7950   -6.0520 C.2     1  UNL1        0.0340
     29 CL         14.2740  -24.4030   -5.4190 Cl      1  UNL1       -0.0840
     30  C         16.6960  -24.6810   -6.5780 C.2     1  UNL1        0.0250
     31  C         17.8980  -24.1910   -7.0930 C.2     1  UNL1        0.0180
@<TRIPOS>BOND
     1    22    21    2
     2    22    23    1
     3    21    20    1
     4    23    24    2
     5    20    19    2
     6    24    19    1
     7    19    18    1
     8    18    16    1
     9    17    16    1
    10    16    13    1
    11     6     5    1
    12     6     7    1
    13     8     7    2
    14     8     9    1
    15    13    14    2
    16    13    15    2
    17    13     9    1
    18     5     4    1
    19     7    12    1
    20     9    10    2
    21     4     3    1
    22    12     3    1
    23    12    11    2
    24    10    11    1
    25     3     2   am
    26     2    25    1
    27     2     1    2
    28    25    31    2
    29    25    26    1
    30    31    30    1
    31    30    28    2
    32    26    27    2
    33    28    27    1
    34    28    29    1
