@<TRIPOS>MOLECULE
67376_out_ligand_01.pdbqt
 32 35 0 0 0
SMALL
GASTEIGER

@<TRIPOS>ATOM
      1  O         19.9930  -24.7730   -8.2550 O.2     1  UNL1       -0.2670
      2  C         19.3080  -23.7620   -8.4010 C.2     1  UNL1        0.2580
      3  N         19.4090  -22.8310   -9.4500 N.am    1  UNL1       -0.3130
      4  C         18.2680  -21.9710   -9.7970 C.3     1  UNL1        0.1330
      5  C         18.1010  -21.7980  -11.2940 C.3     1  UNL1        0.0250
      6  C         19.3480  -21.1510  -11.8600 C.3     1  UNL1        0.0420
      7  C         20.5870  -21.8790  -11.4100 C.2     1  UNL1       -0.0300
      8  C         21.7600  -21.6950  -12.1640 C.2     1  UNL1        0.0340
      9  C         22.9480  -22.3120  -11.7760 C.2     1  UNL1        0.0750
     10  C         22.9740  -23.1420  -10.6620 C.2     1  UNL1        0.0270
     11  C         21.8090  -23.3180   -9.9050 C.2     1  UNL1        0.0320
     12  C         20.5990  -22.6940  -10.2530 C.2     1  UNL1        0.0430
     13  S         24.4360  -22.0480  -12.7130 S.O2    1  UNL1        0.2450
     14  O         24.9630  -23.3430  -13.0870 O.2     1  UNL1       -0.2060
     15  O         25.2440  -21.0850  -11.9970 O.2     1  UNL1       -0.2060
     16  N         23.8720  -21.2550  -14.1040 N.pl3   1  UNL1       -0.1800
     17  H         22.8500  -21.2330  -14.1100 H       1  UNL1        0.1460
     18  C         24.4960  -21.5590  -15.3620 C.2     1  UNL1        0.0460
     19  C         24.1260  -22.7250  -16.0390 C.2     1  UNL1        0.0260
     20  C         24.6750  -23.0180  -17.2860 C.2     1  UNL1        0.0040
     21  C         25.5970  -22.1440  -17.8630 C.2     1  UNL1        0.0260
     22  C         25.9800  -20.9800  -17.1900 C.2     1  UNL1        0.0570
     23 CL         27.1210  -19.9460  -17.9760 Cl      1  UNL1       -0.0820
     24  C         25.4360  -20.6830  -15.9330 C.2     1  UNL1        0.0770
     25 CL         25.9030  -19.2560  -15.0620 Cl      1  UNL1       -0.0810
     26  C         18.2760  -23.5370   -7.3580 C.2     1  UNL1        0.0320
     27  C         18.4850  -22.5370   -6.4010 C.2     1  UNL1        0.0180
     28  C         17.5130  -22.2970   -5.4260 C.2     1  UNL1        0.0250
     29  C         16.3350  -23.0450   -5.4250 C.2     1  UNL1        0.0340
     30 CL         15.1400  -22.7490   -4.2230 Cl      1  UNL1       -0.0840
     31  C         16.1130  -24.0240   -6.3940 C.2     1  UNL1        0.0250
     32  C         17.0820  -24.2680   -7.3700 C.2     1  UNL1        0.0180
@<TRIPOS>BOND
     1    23    22    1
     2    21    20    2
     3    21    22    1
     4    20    19    1
     5    22    24    2
     6    19    18    2
     7    24    18    1
     8    24    25    1
     9    18    16    1
    10    17    16    1
    11    16    13    1
    12    14    13    2
    13    13    15    2
    14    13     9    1
    15     8     9    1
    16     8     7    2
    17     6     7    1
    18     6     5    1
    19     9    10    2
    20     7    12    1
    21     5     4    1
    22    10    11    1
    23    12    11    2
    24    12     3    1
    25     4     3    1
    26     3     2   am
    27     2     1    2
    28     2    26    1
    29    32    26    2
    30    32    31    1
    31    26    27    1
    32    27    28    2
    33    31    29    2
    34    28    29    1
    35    29    30    1
