@<TRIPOS>MOLECULE
6737_out_ligand_01.pdbqt
 27 29 0 0 0
SMALL
GASTEIGER

@<TRIPOS>ATOM
      1  C         21.7490  -21.6440  -12.1980 C.2     1  UNL1        0.0320
      2  C         20.4540  -21.1370  -12.1110 C.2     1  UNL1        0.0190
      3  C         19.5880  -21.5810  -11.1020 C.2     1  UNL1        0.0310
      4  C         19.9740  -22.5550  -10.1680 C.2     1  UNL1        0.0430
      5  C         21.2820  -23.0790  -10.2760 C.2     1  UNL1       -0.0300
      6  C         22.1550  -22.6180  -11.2830 C.2     1  UNL1        0.0260
      7  C         21.8120  -24.1120   -9.3180 C.3     1  UNL1        0.0420
      8  C         20.6790  -24.8620   -8.6500 C.3     1  UNL1        0.0250
      9  C         19.6940  -23.8620   -8.0770 C.3     1  UNL1        0.1330
     10  N         19.0980  -22.9980   -9.1080 N.am    1  UNL1       -0.3130
     11  C         17.7410  -22.6300   -9.0410 C.2     1  UNL1        0.2610
     12  O         17.0560  -22.2040   -9.9700 O.2     1  UNL1       -0.2670
     13  C         17.0160  -22.7990   -7.7650 C.2     1  UNL1        0.0710
     14  C         17.4060  -22.0420   -6.6550 C.2     1  UNL1        0.0200
     15  C         16.7500  -22.2130   -5.4340 C.2     1  UNL1        0.0010
     16  C         15.7200  -23.1480   -5.3170 C.2     1  UNL1        0.0030
     17  C         15.3490  -23.9210   -6.4190 C.2     1  UNL1        0.0430
     18  C         16.0030  -23.7490   -7.6370 C.2     1  UNL1        0.1320
     19  F         15.6390  -24.5140   -8.6760 F       1  UNL1       -0.2050
     20  C         22.7150  -21.2020  -13.2410 C.2     1  UNL1        0.2510
     21  N         24.0140  -21.6470  -13.1050 N.am    1  UNL1       -0.3570
     22  H         24.2170  -22.3760  -12.4340 H       1  UNL1        0.1620
     23  O         22.3340  -20.5080  -14.1770 O.2     1  UNL1       -0.2680
     24  C         25.0210  -21.3580  -14.1060 C.3     1  UNL1        0.1230
     25  C         26.0730  -20.3840  -13.5810 C.3     1  UNL1        0.0190
     26  C         26.2190  -20.4880  -12.0640 C.3     1  UNL1       -0.0030
     27  C         26.7450  -19.1940  -11.4650 C.3     1  UNL1        0.0050
@<TRIPOS>BOND
     1    23    20    2
     2    24    25    1
     3    24    21    1
     4    25    26    1
     5    20    21   am
     6    20     1    1
     7    21    22    1
     8     1     2    2
     9     1     6    1
    10     2     3    1
    11    26    27    1
    12     6     5    2
    13     3     4    2
    14     5     4    1
    15     5     7    1
    16     4    10    1
    17    12    11    2
    18     7     8    1
    19    10    11   am
    20    10     9    1
    21    11    13    1
    22    19    18    1
    23     8     9    1
    24    13    18    2
    25    13    14    1
    26    18    17    1
    27    14    15    2
    28    17    16    2
    29    15    16    1
