@<TRIPOS>MOLECULE
67375_out_ligand_01.pdbqt
 31 34 0 0 0
SMALL
GASTEIGER

@<TRIPOS>ATOM
      1  O         20.7390  -22.0690   -6.9870 O.2     1  UNL1       -0.2670
      2  C         19.8510  -22.3490   -7.7910 C.2     1  UNL1        0.2580
      3  N         19.9320  -22.2560   -9.1930 N.am    1  UNL1       -0.3130
      4  C         18.7090  -22.1660  -10.0050 C.3     1  UNL1        0.1330
      5  C         18.8460  -21.2020  -11.1700 C.3     1  UNL1        0.0250
      6  C         19.9620  -21.6780  -12.0750 C.3     1  UNL1        0.0420
      7  C         21.2190  -21.9360  -11.2870 C.2     1  UNL1       -0.0300
      8  C         22.4390  -21.9320  -11.9900 C.2     1  UNL1        0.0340
      9  C         23.6350  -22.1820  -11.3200 C.2     1  UNL1        0.0800
     10  C         23.6320  -22.4300   -9.9520 C.2     1  UNL1        0.0270
     11  C         22.4170  -22.4510   -9.2560 C.2     1  UNL1        0.0320
     12  C         21.1920  -22.2050   -9.8980 C.2     1  UNL1        0.0430
     13  S         25.1710  -22.1640  -12.2040 S.O2    1  UNL1        0.2630
     14  O         25.3730  -23.4880  -12.7520 O.2     1  UNL1       -0.2000
     15  O         26.1810  -21.5350  -11.3810 O.2     1  UNL1       -0.2000
     16  N         24.8250  -21.1600  -13.5240 N.pl3   1  UNL1       -0.2810
     17  H         23.8780  -20.7870  -13.4460 H       1  UNL1        0.1790
     18  C         25.2680  -21.5770  -14.8080 C.2     1  UNL1        0.0440
     19  C         26.6000  -21.3780  -15.1750 C.2     1  UNL1        0.0300
     20  C         27.0540  -21.8170  -16.4190 C.2     1  UNL1        0.0040
     21  C         26.1760  -22.4620  -17.2900 C.2     1  UNL1        0.0240
     22  C         24.8490  -22.6660  -16.9120 C.2     1  UNL1        0.0360
     23 CL         23.7710  -23.4680  -17.9880 Cl      1  UNL1       -0.0840
     24  C         24.3890  -22.2290  -15.6710 C.2     1  UNL1        0.0540
     25  C         18.5790  -22.8160   -7.1890 C.2     1  UNL1        0.0320
     26  C         17.8150  -21.9190   -6.4340 C.2     1  UNL1        0.0180
     27  C         16.6260  -22.3490   -5.8400 C.2     1  UNL1        0.0250
     28  C         16.2160  -23.6740   -5.9920 C.2     1  UNL1        0.0340
     29 CL         14.7510  -24.2030   -5.2620 Cl      1  UNL1       -0.0840
     30  C         16.9880  -24.5780   -6.7240 C.2     1  UNL1        0.0250
     31  C         18.1780  -24.1520   -7.3190 C.2     1  UNL1        0.0180
@<TRIPOS>BOND
     1    23    22    1
     2    21    22    2
     3    21    20    1
     4    22    24    1
     5    20    19    2
     6    24    18    2
     7    19    18    1
     8    18    16    1
     9    16    17    1
    10    16    13    1
    11    14    13    2
    12    13    15    2
    13    13     9    1
    14     6     7    1
    15     6     5    1
    16     8     9    1
    17     8     7    2
    18     9    10    2
    19     7    12    1
    20     5     4    1
    21     4     3    1
    22    10    11    1
    23    12    11    2
    24    12     3    1
    25     3     2   am
    26     2    25    1
    27     2     1    2
    28    31    25    2
    29    31    30    1
    30    25    26    1
    31    30    28    2
    32    26    27    2
    33    28    27    1
    34    28    29    1
