@<TRIPOS>MOLECULE
67370_out_ligand_01.pdbqt
 33 36 0 0 0
SMALL
GASTEIGER

@<TRIPOS>ATOM
      1  C         17.8970  -23.7120   -8.2520 C.2     1  UNL1        0.0750
      2  C         19.1700  -24.2470   -8.0970 C.2     1  UNL1        0.0270
      3  C         20.2130  -23.7980   -8.9160 C.2     1  UNL1        0.0320
      4  C         20.0070  -22.8270   -9.9110 C.2     1  UNL1        0.0430
      5  C         18.6980  -22.3090  -10.0630 C.2     1  UNL1       -0.0300
      6  C         17.6530  -22.7520   -9.2310 C.2     1  UNL1        0.0340
      7  C         18.3750  -21.2470  -11.0820 C.3     1  UNL1        0.0420
      8  C         19.3980  -21.2390  -12.1980 C.3     1  UNL1        0.0250
      9  C         20.7880  -21.1760  -11.5950 C.3     1  UNL1        0.1330
     10  N         21.0850  -22.3290  -10.7310 N.am    1  UNL1       -0.3130
     11  C         22.3630  -22.9200  -10.7450 C.2     1  UNL1        0.2580
     12  O         22.6390  -24.0630  -10.3880 O.2     1  UNL1       -0.2670
     13  S         16.5830  -24.2580   -7.1910 S.O2    1  UNL1        0.2460
     14  O         15.5040  -24.7630   -8.0140 O.2     1  UNL1       -0.2060
     15  O         17.1820  -25.0730   -6.1550 O.2     1  UNL1       -0.2060
     16  N         16.1040  -22.8080   -6.4460 N.pl3   1  UNL1       -0.1790
     17  H         15.8510  -22.1460   -7.1850 H       1  UNL1        0.1460
     18  C         17.0070  -22.2660   -5.4750 C.2     1  UNL1        0.0570
     19  C         18.1560  -21.5990   -5.8970 C.2     1  UNL1        0.0510
     20  C         18.9830  -21.0060   -4.9480 C.2     1  UNL1        0.0350
     21  C         18.6710  -21.0760   -3.5910 C.2     1  UNL1        0.0260
     22 CL         20.4030  -20.1760   -5.4570 Cl      1  UNL1       -0.0840
     23  C         17.5160  -21.7430   -3.1690 C.2     1  UNL1        0.0400
     24  C         16.6690  -22.3320   -4.1110 C.2     1  UNL1        0.0900
     25  O         15.5210  -23.0220   -3.8120 O.2     1  UNL1       -0.3540
     26  C         15.6980  -24.2710   -3.1530 C.3     1  UNL1        0.2100
     27  C         23.5020  -22.1130  -11.2470 C.2     1  UNL1        0.0320
     28  C         24.4570  -21.6010  -10.3630 C.2     1  UNL1        0.0170
     29  C         25.5310  -20.8590  -10.8570 C.2     1  UNL1        0.0070
     30  C         25.6600  -20.6280  -12.2340 C.2     1  UNL1       -0.0620
     31  C         26.8370  -19.8630  -12.7660 C.3     1  UNL1        0.0480
     32  C         24.7180  -21.1790  -13.1140 C.2     1  UNL1        0.0070
     33  C         23.6430  -21.9220  -12.6250 C.2     1  UNL1        0.0170
@<TRIPOS>BOND
     1    32    33    1
     2    32    30    2
     3    31    30    1
     4    33    27    2
     5    30    29    1
     6     8     9    1
     7     8     7    1
     8     9    10    1
     9    27    11    1
    10    27    28    1
    11     7     5    1
    12    29    28    2
    13    11    10   am
    14    11    12    2
    15    10     4    1
    16     5     4    2
    17     5     6    1
    18     4     3    1
    19     6     1    2
    20     3     2    2
    21     1     2    1
    22     1    13    1
    23    14    13    2
    24    13    16    1
    25    13    15    2
    26    17    16    1
    27    16    18    1
    28    19    18    2
    29    19    20    1
    30    18    24    1
    31    22    20    1
    32    20    21    2
    33    24    25    1
    34    24    23    2
    35    25    26    1
    36    21    23    1
