@<TRIPOS>MOLECULE
67384_out_ligand_01.pdbqt
 33 36 0 0 0
SMALL
GASTEIGER

@<TRIPOS>ATOM
      1  C         22.7890  -22.0760  -11.7150 C.2     1  UNL1        0.0750
      2  C         22.8990  -22.4540  -10.3810 C.2     1  UNL1        0.0270
      3  C         21.7550  -22.4920   -9.5760 C.2     1  UNL1        0.0320
      4  C         20.4880  -22.1370  -10.0740 C.2     1  UNL1        0.0430
      5  C         20.4000  -21.7420  -11.4290 C.2     1  UNL1       -0.0300
      6  C         21.5500  -21.7180  -12.2420 C.2     1  UNL1        0.0340
      7  C         19.0890  -21.3640  -12.0670 C.3     1  UNL1        0.0420
      8  C         18.0820  -20.9380  -11.0200 C.3     1  UNL1        0.0250
      9  C         18.0110  -22.0000   -9.9390 C.3     1  UNL1        0.1330
     10  N         19.2980  -22.2050   -9.2580 N.am    1  UNL1       -0.3130
     11  C         19.3450  -22.4120   -7.8670 C.2     1  UNL1        0.2580
     12  O         20.3120  -22.2210   -7.1320 O.2     1  UNL1       -0.2670
     13  S         24.2420  -22.0300  -12.7350 S.O2    1  UNL1        0.2460
     14  O         24.5010  -23.3890  -13.1600 O.2     1  UNL1       -0.2060
     15  O         25.2560  -21.2520  -12.0550 O.2     1  UNL1       -0.2060
     16  N         23.6880  -21.1970  -14.1060 N.pl3   1  UNL1       -0.1790
     17  H         22.9480  -21.7570  -14.5330 H       1  UNL1        0.1460
     18  C         24.6890  -20.7800  -15.0410 C.2     1  UNL1        0.0560
     19  C         25.5040  -19.6880  -14.7440 C.2     1  UNL1        0.0270
     20  C         26.5210  -19.3270  -15.6260 C.2     1  UNL1        0.0020
     21  C         26.7230  -20.0620  -16.7950 C.2     1  UNL1        0.0030
     22  C         25.9090  -21.1600  -17.0900 C.2     1  UNL1        0.0390
     23  C         24.8920  -21.5330  -16.2110 C.2     1  UNL1        0.0900
     24  O         24.0240  -22.5770  -16.4020 O.2     1  UNL1       -0.3500
     25  C         24.2240  -23.3660  -17.5750 C.3     1  UNL1        0.1710
     26  C         22.8580  -23.7780  -18.0980 C.3     1  UNL1        0.0340
     27  C         18.1180  -22.8950   -7.1860 C.2     1  UNL1        0.0320
     28  C         17.7070  -24.2270   -7.3200 C.2     1  UNL1        0.0180
     29  C         16.5640  -24.6690   -6.6510 C.2     1  UNL1        0.0250
     30  C         15.8480  -23.7840   -5.8420 C.2     1  UNL1        0.0340
     31 CL         14.4390  -24.3320   -5.0200 Cl      1  UNL1       -0.0840
     32  C         16.2690  -22.4630   -5.6880 C.2     1  UNL1        0.0250
     33  C         17.4130  -22.0180   -6.3540 C.2     1  UNL1        0.0180
@<TRIPOS>BOND
     1    26    25    1
     2    25    24    1
     3    22    21    2
     4    22    23    1
     5    21    20    1
     6    24    23    1
     7    23    18    2
     8    20    19    2
     9    18    19    1
    10    18    16    1
    11    17    16    1
    12    16    13    1
    13    14    13    2
    14    13    15    2
    15    13     1    1
    16     6     1    2
    17     6     5    1
    18     7     5    1
    19     7     8    1
    20     1     2    1
    21     5     4    2
    22     8     9    1
    23     2     3    2
    24     4     3    1
    25     4    10    1
    26     9    10    1
    27    10    11   am
    28    11    27    1
    29    11    12    2
    30    28    27    2
    31    28    29    1
    32    27    33    1
    33    29    30    2
    34    33    32    2
    35    30    32    1
    36    30    31    1
