@<TRIPOS>MOLECULE
67387_out_ligand_01.pdbqt
 35 38 0 0 0
SMALL
GASTEIGER

@<TRIPOS>ATOM
      1  C         22.7530  -22.0930  -11.5550 C.2     1  UNL1        0.0800
      2  C         22.8330  -22.4730  -10.2160 C.2     1  UNL1        0.0270
      3  C         21.6570  -22.6070   -9.4800 C.2     1  UNL1        0.0320
      4  C         20.4020  -22.3500  -10.0610 C.2     1  UNL1        0.0430
      5  C         20.3550  -21.8120  -11.3620 C.2     1  UNL1       -0.0300
      6  C         21.5340  -21.7100  -12.1170 C.2     1  UNL1        0.0340
      7  C         19.0520  -21.4270  -12.0070 C.3     1  UNL1        0.0420
      8  C         18.0140  -21.1150  -10.9450 C.3     1  UNL1        0.0250
      9  C         17.9220  -22.2860   -9.9840 C.3     1  UNL1        0.1330
     10  N         19.1950  -22.6070   -9.3270 N.am    1  UNL1       -0.3130
     11  C         19.1770  -23.6240   -8.3520 C.2     1  UNL1        0.2580
     12  O         19.9280  -24.6020   -8.3470 O.2     1  UNL1       -0.2670
     13  S         24.1900  -22.2780  -12.5900 S.O2    1  UNL1        0.2630
     14  O         24.5250  -23.6860  -12.6180 O.2     1  UNL1       -0.2000
     15  O         25.1590  -21.2740  -12.2080 O.2     1  UNL1       -0.2000
     16  N         23.5710  -21.8980  -14.1340 N.pl3   1  UNL1       -0.2810
     17  H         22.7670  -21.2780  -14.0550 H       1  UNL1        0.1790
     18  C         24.5200  -21.6000  -15.1600 C.2     1  UNL1        0.0440
     19  C         25.2910  -22.6190  -15.7090 C.2     1  UNL1        0.0300
     20  C         26.3060  -22.3030  -16.6080 C.2     1  UNL1        0.0040
     21  C         26.5870  -20.9670  -16.9150 C.2     1  UNL1        0.0290
     22  C         25.8470  -19.9360  -16.3360 C.2     1  UNL1        0.0360
     23  C         24.7800  -20.2670  -15.4930 C.2     1  UNL1        0.0590
     24  N         26.1330  -18.5620  -16.5010 N.am    1  UNL1       -0.3270
     25  C         26.7230  -17.7130  -15.5850 C.2     1  UNL1        0.2180
     26  C         26.8350  -16.2970  -16.0880 C.3     1  UNL1        0.1170
     27  O         27.1150  -18.0030  -14.4600 O.2     1  UNL1       -0.2740
     28  H         25.7720  -18.1290  -17.3470 H       1  UNL1        0.1690
     29  C         18.1720  -23.5060   -7.2620 C.2     1  UNL1        0.0320
     30  C         16.9880  -24.2520   -7.2970 C.2     1  UNL1        0.0170
     31  C         16.0390  -24.1040   -6.2830 C.2     1  UNL1        0.0070
     32  C         16.2600  -23.2090   -5.2300 C.2     1  UNL1       -0.0620
     33  C         15.2300  -23.0210   -4.1540 C.3     1  UNL1        0.0480
     34  C         17.4320  -22.4390   -5.2190 C.2     1  UNL1        0.0070
     35  C         18.3820  -22.5820   -6.2330 C.2     1  UNL1        0.0170
@<TRIPOS>BOND
     1    28    24    1
     2    21    20    2
     3    21    22    1
     4    20    19    1
     5    24    22    1
     6    24    25   am
     7    22    23    2
     8    26    25    1
     9    19    18    2
    10    25    27    2
    11    23    18    1
    12    18    16    1
    13    16    17    1
    14    16    13    1
    15    14    13    2
    16    13    15    2
    17    13     1    1
    18     6     1    2
    19     6     5    1
    20     7     5    1
    21     7     8    1
    22     1     2    1
    23     5     4    2
    24     8     9    1
    25     2     3    2
    26     4     3    1
    27     4    10    1
    28     9    10    1
    29    10    11   am
    30    11    12    2
    31    11    29    1
    32    30    29    2
    33    30    31    1
    34    29    35    1
    35    31    32    2
    36    35    34    2
    37    32    34    1
    38    32    33    1
