@<TRIPOS>MOLECULE
67380_out_ligand_01.pdbqt
 37 41 0 0 0
SMALL
GASTEIGER

@<TRIPOS>ATOM
      1  C         20.2250  -22.3560   -7.9830 C.2     1  UNL1        0.2580
      2  O         21.2150  -22.1030   -7.2970 O.2     1  UNL1       -0.2670
      3  N         20.1330  -22.2460   -9.3810 N.am    1  UNL1       -0.3130
      4  C         18.8390  -22.0360  -10.0350 C.3     1  UNL1        0.1330
      5  C         18.9110  -20.9690  -11.1120 C.3     1  UNL1        0.0250
      6  C         19.8930  -21.4030  -12.1850 C.3     1  UNL1        0.0420
      7  C         21.1930  -21.8570  -11.5790 C.2     1  UNL1       -0.0300
      8  C         22.3240  -21.8880  -12.4150 C.2     1  UNL1        0.0340
      9  C         23.5560  -22.3110  -11.9150 C.2     1  UNL1        0.0750
     10  C         23.6720  -22.7170  -10.5850 C.2     1  UNL1        0.0270
     11  C         22.5450  -22.7000   -9.7580 C.2     1  UNL1        0.0320
     12  C         21.2940  -22.2560  -10.2280 C.2     1  UNL1        0.0430
     13  S         24.9990  -22.2780  -12.9440 S.O2    1  UNL1        0.2460
     14  O         26.0640  -21.6470  -12.2120 O.2     1  UNL1       -0.2060
     15  O         25.1550  -23.5980  -13.5020 O.2     1  UNL1       -0.2060
     16  N         24.5000  -21.3040  -14.2320 N.pl3   1  UNL1       -0.1790
     17  H         23.4970  -21.1060  -14.1200 H       1  UNL1        0.1460
     18  C         24.8610  -21.7610  -15.5420 C.2     1  UNL1        0.0560
     19  C         24.0250  -22.6790  -16.1860 C.2     1  UNL1        0.0270
     20  C         24.3830  -23.2130  -17.4300 C.2     1  UNL1        0.0020
     21  C         25.5740  -22.8290  -18.0320 C.2     1  UNL1        0.0030
     22  C         26.4220  -21.9180  -17.3890 C.2     1  UNL1        0.0390
     23  C         26.0580  -21.3720  -16.1530 C.2     1  UNL1        0.0980
     24  O         26.9390  -20.4900  -15.5650 O.2     1  UNL1       -0.3090
     25  C         26.8120  -19.1620  -15.9230 C.2     1  UNL1        0.0760
     26  C         27.1130  -18.2210  -14.9370 C.2     1  UNL1        0.0370
     27  C         26.9970  -16.8580  -15.2120 C.2     1  UNL1        0.0030
     28  C         26.6180  -16.4320  -16.4840 C.2     1  UNL1        0.0000
     29  C         26.3500  -17.3680  -17.4830 C.2     1  UNL1        0.0030
     30  C         26.4590  -18.7310  -17.2050 C.2     1  UNL1        0.0370
     31  C         19.0170  -22.7990   -7.2460 C.2     1  UNL1        0.0320
     32  C         18.5350  -24.0950   -7.4440 C.2     1  UNL1        0.0170
     33  C         17.3920  -24.5180   -6.7620 C.2     1  UNL1        0.0070
     34  C         16.7150  -23.6500   -5.8960 C.2     1  UNL1       -0.0620
     35  C         15.4660  -24.0920   -5.1890 C.3     1  UNL1        0.0480
     36  C         17.1870  -22.3410   -5.7380 C.2     1  UNL1        0.0070
     37  C         18.3330  -21.9120   -6.4110 C.2     1  UNL1        0.0170
@<TRIPOS>BOND
     1    21    20    2
     2    21    22    1
     3    29    30    1
     4    29    28    2
     5    20    19    1
     6    22    23    2
     7    30    25    2
     8    28    27    1
     9    19    18    2
    10    23    24    1
    11    23    18    1
    12    25    24    1
    13    25    26    1
    14    18    16    1
    15    27    26    2
    16    16    17    1
    17    16    13    1
    18    15    13    2
    19    13    14    2
    20    13     9    1
    21     8     9    1
    22     8     7    2
    23     6     7    1
    24     6     5    1
    25     9    10    2
    26     7    12    1
    27     5     4    1
    28    10    11    1
    29    12    11    2
    30    12     3    1
    31     4     3    1
    32     3     1   am
    33     1     2    2
    34     1    31    1
    35    32    31    2
    36    32    33    1
    37    31    37    1
    38    33    34    2
    39    37    36    2
    40    34    36    1
    41    34    35    1
