@<TRIPOS>MOLECULE
67383_out_ligand_01.pdbqt
 32 35 0 0 0
SMALL
GASTEIGER

@<TRIPOS>ATOM
      1  C         22.9010  -22.2780  -12.0850 C.2     1  UNL1        0.0800
      2  C         23.0200  -22.9980  -10.9010 C.2     1  UNL1        0.0270
      3  C         21.9300  -23.0680  -10.0290 C.2     1  UNL1        0.0320
      4  C         20.7140  -22.4280  -10.3220 C.2     1  UNL1        0.0430
      5  C         20.5810  -21.7920  -11.5740 C.2     1  UNL1       -0.0300
      6  C         21.6820  -21.7010  -12.4420 C.2     1  UNL1        0.0340
      7  C         19.2910  -21.1420  -11.9900 C.3     1  UNL1        0.0420
      8  C         18.1280  -21.8430  -11.3190 C.3     1  UNL1        0.0250
      9  C         18.3470  -21.8390   -9.8170 C.3     1  UNL1        0.1330
     10  N         19.6140  -22.4530   -9.3890 N.am    1  UNL1       -0.3130
     11  C         19.8450  -22.6400   -8.0110 C.2     1  UNL1        0.2580
     12  O         20.9300  -22.5480   -7.4390 O.2     1  UNL1       -0.2670
     13  S         24.3290  -22.0560  -13.1220 S.O2    1  UNL1        0.2630
     14  O         24.9690  -23.3440  -13.2930 O.2     1  UNL1       -0.2000
     15  O         25.0590  -20.9130  -12.6160 O.2     1  UNL1       -0.2000
     16  N         23.6410  -21.5720  -14.5960 N.pl3   1  UNL1       -0.2810
     17  H         22.6710  -21.8740  -14.6650 H       1  UNL1        0.1790
     18  C         24.4430  -21.6790  -15.7700 C.2     1  UNL1        0.0450
     19  C         24.3630  -22.8210  -16.5650 C.2     1  UNL1        0.0300
     20  C         25.0880  -22.8870  -17.7530 C.2     1  UNL1        0.0050
     21  C         25.8670  -21.8010  -18.1530 C.2     1  UNL1        0.0370
     22  C         25.9250  -20.6410  -17.3750 C.2     1  UNL1        0.0700
     23  C         25.2260  -20.5900  -16.1690 C.2     1  UNL1        0.0660
     24  O         26.6920  -19.6350  -17.8950 O.2     1  UNL1       -0.3560
     25  C         26.0390  -18.3900  -18.1210 C.3     1  UNL1        0.2100
     26  C         18.6840  -22.9570   -7.1470 C.2     1  UNL1        0.0320
     27  C         17.9940  -24.1660   -7.3040 C.2     1  UNL1        0.0180
     28  C         16.9230  -24.4650   -6.4600 C.2     1  UNL1        0.0250
     29  C         16.5590  -23.5660   -5.4550 C.2     1  UNL1        0.0340
     30 CL         15.2390  -23.9380   -4.4170 Cl      1  UNL1       -0.0840
     31  C         17.2620  -22.3740   -5.2810 C.2     1  UNL1        0.0250
     32  C         18.3340  -22.0700   -6.1230 C.2     1  UNL1        0.0180
@<TRIPOS>BOND
     1    21    20    2
     2    21    22    1
     3    25    24    1
     4    24    22    1
     5    20    19    1
     6    22    23    2
     7    19    18    2
     8    23    18    1
     9    18    16    1
    10    17    16    1
    11    16    13    1
    12    14    13    2
    13    13    15    2
    14    13     1    1
    15     6     1    2
    16     6     5    1
    17     1     2    1
    18     7     5    1
    19     7     8    1
    20     5     4    2
    21     8     9    1
    22     2     3    2
    23     4     3    1
    24     4    10    1
    25     9    10    1
    26    10    11   am
    27    11    12    2
    28    11    26    1
    29    27    26    2
    30    27    28    1
    31    26    32    1
    32    28    29    2
    33    32    31    2
    34    29    31    1
    35    29    30    1
