@<TRIPOS>MOLECULE
67389_out_ligand_01.pdbqt
 34 37 0 0 0
SMALL
GASTEIGER

@<TRIPOS>ATOM
      1  C         22.4350  -22.5530  -10.1660 C.2     1  UNL1        0.2580
      2  O         22.6100  -22.9950   -9.0340 O.2     1  UNL1       -0.2670
      3  N         21.2200  -22.0920  -10.7040 N.am    1  UNL1       -0.3130
      4  C         21.2160  -21.1990  -11.8740 C.3     1  UNL1        0.1330
      5  C         20.1500  -20.1250  -11.7900 C.3     1  UNL1        0.0250
      6  C         18.7900  -20.7830  -11.7140 C.3     1  UNL1        0.0420
      7  C         18.7560  -21.8280  -10.6320 C.2     1  UNL1       -0.0300
      8  C         17.4930  -22.2060  -10.1360 C.2     1  UNL1        0.0340
      9  C         17.3960  -23.1830   -9.1480 C.2     1  UNL1        0.0800
     10  C         18.5430  -23.7830   -8.6390 C.2     1  UNL1        0.0270
     11  C         19.7950  -23.4200   -9.1440 C.2     1  UNL1        0.0320
     12  C         19.9340  -22.4420  -10.1460 C.2     1  UNL1        0.0430
     13  S         15.8080  -23.6840   -8.5390 S.O2    1  UNL1        0.2590
     14  O         15.8830  -25.0660   -8.1210 O.2     1  UNL1       -0.2010
     15  O         14.8100  -23.2220   -9.4750 O.2     1  UNL1       -0.2010
     16  N         15.6460  -22.7420   -7.1700 N.3     1  UNL1       -0.3110
     17  H         16.0610  -21.8140   -7.2180 H       1  UNL1        0.1720
     18  C         14.7620  -23.1330   -6.0700 C.3     1  UNL1        0.0890
     19  C         13.9940  -21.9030   -5.5970 C.3     1  UNL1        0.0330
     20  C         15.5760  -23.8080   -4.9570 C.3     1  UNL1        0.0300
     21  C         17.0740  -23.9520   -5.2460 C.3     1  UNL1        0.0400
     22  C         17.8170  -22.6770   -4.9310 C.2     1  UNL1       -0.0580
     23  C         17.7870  -22.1370   -3.6390 C.2     1  UNL1        0.0070
     24  C         18.4860  -20.9640   -3.3470 C.2     1  UNL1        0.0010
     25  C         19.2250  -20.3250   -4.3410 C.2     1  UNL1        0.0000
     26  C         19.2690  -20.8600   -5.6280 C.2     1  UNL1        0.0010
     27  C         18.5700  -22.0310   -5.9210 C.2     1  UNL1        0.0070
     28  C         23.6460  -22.4920  -11.0210 C.2     1  UNL1        0.0320
     29  C         24.6660  -21.5760  -10.7440 C.2     1  UNL1        0.0170
     30  C         25.8000  -21.5370  -11.5590 C.2     1  UNL1        0.0070
     31  C         25.9170  -22.4050  -12.6540 C.2     1  UNL1       -0.0620
     32  C         27.1210  -22.3400  -13.5470 C.3     1  UNL1        0.0480
     33  C         24.8680  -23.2870  -12.9460 C.2     1  UNL1        0.0070
     34  C         23.7340  -23.3300  -12.1350 C.2     1  UNL1        0.0170
@<TRIPOS>BOND
     1    32    31    1
     2    33    31    2
     3    33    34    1
     4    31    30    1
     5    34    28    2
     6     4     5    1
     7     4     3    1
     8     5     6    1
     9     6     7    1
    10    30    29    2
    11    28    29    1
    12    28     1    1
    13     3     1   am
    14     3    12    1
    15     7    12    2
    16     7     8    1
    17     1     2    2
    18    12    11    1
    19     8     9    2
    20    15    13    2
    21     9    10    1
    22     9    13    1
    23    11    10    2
    24    13    14    2
    25    13    16    1
    26    17    16    1
    27    16    18    1
    28    18    19    1
    29    18    20    1
    30    27    26    1
    31    27    22    2
    32    26    25    2
    33    21    20    1
    34    21    22    1
    35    22    23    1
    36    25    24    1
    37    23    24    2
