@<TRIPOS>MOLECULE
67386_out_ligand_01.pdbqt
 33 36 0 0 0
SMALL
GASTEIGER

@<TRIPOS>ATOM
      1  C         17.7040  -23.5560   -8.3410 C.2     1  UNL1        0.0800
      2  C         18.9970  -23.7500   -7.8610 C.2     1  UNL1        0.0270
      3  C         20.0800  -23.2890   -8.6120 C.2     1  UNL1        0.0320
      4  C         19.8940  -22.6270   -9.8380 C.2     1  UNL1        0.0430
      5  C         18.5740  -22.3260  -10.2380 C.2     1  UNL1       -0.0300
      6  C         17.4820  -22.8090   -9.4970 C.2     1  UNL1        0.0340
      7  C         18.2940  -21.5540  -11.4970 C.3     1  UNL1        0.0420
      8  C         19.4670  -20.6540  -11.8220 C.3     1  UNL1        0.0250
      9  C         20.7320  -21.4890  -11.8840 C.3     1  UNL1        0.1330
     10  N         21.0180  -22.2390  -10.6520 N.am    1  UNL1       -0.3130
     11  C         22.2460  -22.9240  -10.5520 C.2     1  UNL1        0.2580
     12  O         22.4330  -24.0080  -10.0020 O.2     1  UNL1       -0.2670
     13  S         16.3360  -24.3660   -7.5410 S.O2    1  UNL1        0.2630
     14  O         16.8770  -25.4050   -6.6900 O.2     1  UNL1       -0.2000
     15  O         15.3320  -24.6560   -8.5420 O.2     1  UNL1       -0.2000
     16  N         15.7460  -23.1520   -6.4980 N.pl3   1  UNL1       -0.2810
     17  H         14.7910  -23.3620   -6.2110 H       1  UNL1        0.1790
     18  C         16.6350  -22.6770   -5.4890 C.2     1  UNL1        0.0430
     19  C         16.3390  -22.8810   -4.1430 C.2     1  UNL1        0.0300
     20  C         17.1190  -22.2710   -3.1600 C.2     1  UNL1        0.0030
     21  C         18.1770  -21.4330   -3.5220 C.2     1  UNL1        0.0150
     22  C         18.4720  -21.2190   -4.8740 C.2     1  UNL1        0.0110
     23  C         17.7110  -21.8670   -5.8550 C.2     1  UNL1        0.0450
     24  C         19.5470  -20.2860   -5.3200 C.2     1  UNL1        0.1550
     25  C         20.6880  -20.8270   -6.1410 C.3     1  UNL1        0.0960
     26  O         19.4840  -19.0940   -5.0170 O.2     1  UNL1       -0.2930
     27  C         23.4390  -22.3040  -11.1750 C.2     1  UNL1        0.0320
     28  C         24.3120  -21.5240  -10.4050 C.2     1  UNL1        0.0180
     29  C         25.4500  -20.9730  -10.9980 C.2     1  UNL1        0.0250
     30  C         25.7170  -21.2170  -12.3470 C.2     1  UNL1        0.0340
     31 CL         27.1210  -20.5370  -13.0730 Cl      1  UNL1       -0.0840
     32  C         24.8590  -22.0120  -13.1090 C.2     1  UNL1        0.0250
     33  C         23.7200  -22.5650  -12.5210 C.2     1  UNL1        0.0180
@<TRIPOS>BOND
     1    32    33    1
     2    32    30    2
     3    31    30    1
     4    33    27    2
     5    30    29    1
     6     9     8    1
     7     9    10    1
     8     8     7    1
     9     7     5    1
    10    27    11    1
    11    27    28    1
    12    29    28    2
    13    10    11   am
    14    10     4    1
    15    11    12    2
    16     5     4    2
    17     5     6    1
    18     4     3    1
    19     6     1    2
    20     3     2    2
    21    15    13    2
    22     1     2    1
    23     1    13    1
    24    13    14    2
    25    13    16    1
    26    16    17    1
    27    16    18    1
    28    25    24    1
    29    23    18    2
    30    23    22    1
    31    18    19    1
    32    24    26    2
    33    24    22    1
    34    22    21    2
    35    19    20    2
    36    21    20    1
