@<TRIPOS>MOLECULE
67382_out_ligand_01.pdbqt
 32 35 0 0 0
SMALL
GASTEIGER

@<TRIPOS>ATOM
      1  O         20.0190  -24.8720   -8.0300 O.2     1  UNL1       -0.2670
      2  C         19.2750  -23.9310   -8.2950 C.2     1  UNL1        0.2580
      3  N         19.4800  -22.9540   -9.2870 N.am    1  UNL1       -0.3130
      4  C         18.3470  -22.1770   -9.8140 C.3     1  UNL1        0.1330
      5  C         18.4420  -21.9400  -11.3100 C.3     1  UNL1        0.0250
      6  C         19.7070  -21.1640  -11.6070 C.3     1  UNL1        0.0420
      7  C         20.9030  -21.8220  -10.9720 C.2     1  UNL1       -0.0300
      8  C         22.1700  -21.5220  -11.5070 C.2     1  UNL1        0.0340
      9  C         23.3160  -22.0880  -10.9530 C.2     1  UNL1        0.0800
     10  C         23.2160  -22.9560   -9.8720 C.2     1  UNL1        0.0270
     11  C         21.9570  -23.2410   -9.3280 C.2     1  UNL1        0.0320
     12  C         20.7790  -22.6890   -9.8600 C.2     1  UNL1        0.0430
     13  S         24.9110  -21.7150  -11.6300 S.O2    1  UNL1        0.2630
     14  O         25.5770  -22.9530  -11.9720 O.2     1  UNL1       -0.2000
     15  O         25.5360  -20.7420  -10.7610 O.2     1  UNL1       -0.2000
     16  N         24.5220  -20.8880  -13.0570 N.pl3   1  UNL1       -0.2810
     17  H         24.4720  -19.8850  -12.8780 H       1  UNL1        0.1790
     18  C         25.1370  -21.3200  -14.2620 C.2     1  UNL1        0.0440
     19  C         26.3930  -20.8260  -14.6100 C.2     1  UNL1        0.0320
     20  C         26.9820  -21.2100  -15.8160 C.2     1  UNL1        0.0280
     21  C         26.3100  -22.0820  -16.6780 C.2     1  UNL1        0.0550
     22 CL         27.0970  -22.5170  -18.1530 Cl      1  UNL1       -0.0830
     23  C         25.0450  -22.5680  -16.3290 C.2     1  UNL1        0.0580
     24 CL         24.1550  -23.6440  -17.3470 Cl      1  UNL1       -0.0820
     25  C         24.4560  -22.1820  -15.1210 C.2     1  UNL1        0.0550
     26  C         18.0400  -23.8530   -7.4770 C.2     1  UNL1        0.0320
     27  C         16.8510  -24.3890   -7.9880 C.2     1  UNL1        0.0180
     28  C         15.6850  -24.3460   -7.2220 C.2     1  UNL1        0.0250
     29  C         15.7160  -23.7860   -5.9440 C.2     1  UNL1        0.0340
     30 CL         14.2790  -23.7320   -5.0010 Cl      1  UNL1       -0.0840
     31  C         16.9050  -23.2740   -5.4210 C.2     1  UNL1        0.0250
     32  C         18.0740  -23.3140   -6.1840 C.2     1  UNL1        0.0180
@<TRIPOS>BOND
     1    22    21    1
     2    24    23    1
     3    21    23    2
     4    21    20    1
     5    23    25    1
     6    20    19    2
     7    25    18    2
     8    19    18    1
     9    18    16    1
    10    16    17    1
    11    16    13    1
    12    14    13    2
    13    13     9    1
    14    13    15    2
    15     6     5    1
    16     6     7    1
    17     8     7    2
    18     8     9    1
    19     5     4    1
    20     7    12    1
    21     9    10    2
    22    10    11    1
    23    12    11    2
    24    12     3    1
    25     4     3    1
    26     3     2   am
    27     2     1    2
    28     2    26    1
    29    27    26    2
    30    27    28    1
    31    26    32    1
    32    28    29    2
    33    32    31    2
    34    29    31    1
    35    29    30    1
