@<TRIPOS>MOLECULE
67385_out_ligand_01.pdbqt
 33 36 0 0 0
SMALL
GASTEIGER

@<TRIPOS>ATOM
      1  C         23.1450  -22.4450  -11.5990 C.2     1  UNL1        0.0800
      2  C         23.0950  -23.2590  -10.4730 C.2     1  UNL1        0.0270
      3  C         21.8900  -23.3990   -9.7730 C.2     1  UNL1        0.0320
      4  C         20.7120  -22.7560  -10.1910 C.2     1  UNL1        0.0430
      5  C         20.7810  -21.9460  -11.3500 C.2     1  UNL1       -0.0300
      6  C         21.9970  -21.7910  -12.0420 C.2     1  UNL1        0.0340
      7  C         19.5840  -21.1980  -11.8730 C.3     1  UNL1        0.0420
      8  C         18.2980  -21.8390  -11.3960 C.3     1  UNL1        0.0250
      9  C         18.3600  -22.0110   -9.8900 C.3     1  UNL1        0.1330
     10  N         19.4720  -22.8720   -9.4600 N.am    1  UNL1       -0.3130
     11  C         19.2970  -23.7880   -8.4040 C.2     1  UNL1        0.2580
     12  O         19.9790  -24.7860   -8.1810 O.2     1  UNL1       -0.2670
     13  S         24.6730  -22.2590  -12.4780 S.O2    1  UNL1        0.2630
     14  O         25.7440  -22.3590  -11.5100 O.2     1  UNL1       -0.2000
     15  O         24.6430  -23.1040  -13.6530 O.2     1  UNL1       -0.2000
     16  N         24.6260  -20.6360  -12.9600 N.pl3   1  UNL1       -0.2810
     17  H         24.7650  -20.0260  -12.1550 H       1  UNL1        0.1790
     18  C         25.2760  -20.2850  -14.1740 C.2     1  UNL1        0.0440
     19  C         26.3330  -19.3780  -14.1520 C.2     1  UNL1        0.0330
     20  C         26.9580  -18.9950  -15.3430 C.2     1  UNL1        0.0410
     21  C         26.5210  -19.5110  -16.5680 C.2     1  UNL1        0.0900
     22  C         25.4440  -20.4150  -16.5740 C.2     1  UNL1        0.0690
     23  C         24.8210  -20.8000  -15.3830 C.2     1  UNL1        0.0560
     24 CL         24.8460  -21.0910  -18.0510 Cl      1  UNL1       -0.0810
     25  O         27.0710  -19.1970  -17.7820 O.2     1  UNL1       -0.3540
     26  C         27.1210  -17.8260  -18.1530 C.3     1  UNL1        0.2100
     27  C         18.1810  -23.5610   -7.4540 C.2     1  UNL1        0.0320
     28  C         18.3500  -22.7280   -6.3410 C.2     1  UNL1        0.0180
     29  C         17.2940  -22.5480   -5.4460 C.2     1  UNL1        0.0250
     30  C         16.0830  -23.2100   -5.6590 C.2     1  UNL1        0.0340
     31 CL         14.7840  -22.9840   -4.5540 Cl      1  UNL1       -0.0840
     32  C         15.9200  -24.0600   -6.7530 C.2     1  UNL1        0.0250
     33  C         16.9740  -24.2440   -7.6510 C.2     1  UNL1        0.0180
@<TRIPOS>BOND
     1    26    25    1
     2    24    22    1
     3    25    21    1
     4    22    21    2
     5    22    23    1
     6    21    20    1
     7    23    18    2
     8    20    19    2
     9    18    19    1
    10    18    16    1
    11    15    13    2
    12    16    13    1
    13    16    17    1
    14    13     1    1
    15    13    14    2
    16     6     1    2
    17     6     5    1
    18     7     8    1
    19     7     5    1
    20     1     2    1
    21     8     9    1
    22     5     4    2
    23     2     3    2
    24     4     3    1
    25     4    10    1
    26     9    10    1
    27    10    11   am
    28    11    12    2
    29    11    27    1
    30    33    27    2
    31    33    32    1
    32    27    28    1
    33    32    30    2
    34    28    29    2
    35    30    29    1
    36    30    31    1
