@<TRIPOS>MOLECULE
67395_out_ligand_01.pdbqt
 25 27 0 0 0
SMALL
GASTEIGER

@<TRIPOS>ATOM
      1  C         22.9500  -21.8360  -12.6020 C.2     1  UNL1        0.0750
      2  C         23.2320  -22.6070  -11.4790 C.2     1  UNL1        0.0270
      3  C         22.2240  -22.8530  -10.5400 C.2     1  UNL1        0.0320
      4  C         20.9170  -22.3620  -10.7080 C.2     1  UNL1        0.0430
      5  C         20.6500  -21.5950  -11.8680 C.2     1  UNL1       -0.0300
      6  C         21.6680  -21.3310  -12.8030 C.2     1  UNL1        0.0340
      7  C         19.2880  -21.0110  -12.1390 C.3     1  UNL1        0.0420
      8  C         18.2150  -21.7720  -11.3900 C.3     1  UNL1        0.0250
      9  C         18.6080  -21.8740   -9.9290 C.3     1  UNL1        0.1330
     10  N         19.8800  -22.5870   -9.7300 N.am    1  UNL1       -0.3130
     11  C         20.0380  -23.4720   -8.6470 C.2     1  UNL1        0.2580
     12  O         20.8650  -24.3770   -8.5570 O.2     1  UNL1       -0.2670
     13  C         19.1240  -23.3330   -7.4860 C.2     1  UNL1        0.0320
     14  C         18.2010  -24.3540   -7.2230 C.2     1  UNL1        0.0200
     15  C         17.3510  -24.2490   -6.1220 C.2     1  UNL1        0.0430
     16  C         17.4420  -23.1390   -5.2870 C.2     1  UNL1        0.1160
     17  F         16.6260  -23.0410   -4.2300 F       1  UNL1       -0.2060
     18  C         18.3750  -22.1320   -5.5260 C.2     1  UNL1        0.0430
     19  C         19.2280  -22.2310   -6.6260 C.2     1  UNL1        0.0200
     20  S         24.2320  -21.5170  -13.7830 S.O2    1  UNL1        0.2390
     21  O         24.4900  -22.7320  -14.5210 O.2     1  UNL1       -0.2060
     22  O         25.2770  -20.7630  -13.1340 O.2     1  UNL1       -0.2060
     23  N         23.4450  -20.4950  -14.8670 N.3     1  UNL1       -0.2250
     24  H         22.8140  -19.8360  -14.4160 H       1  UNL1        0.1360
     25  H         22.9700  -21.0640  -15.5700 H       1  UNL1        0.1360
@<TRIPOS>BOND
     1    25    23    1
     2    23    24    1
     3    23    20    1
     4    21    20    2
     5    20    22    2
     6    20     1    1
     7     6     1    2
     8     6     5    1
     9     1     2    1
    10     7     5    1
    11     7     8    1
    12     5     4    2
    13     2     3    2
    14     8     9    1
    15     4     3    1
    16     4    10    1
    17     9    10    1
    18    10    11   am
    19    11    12    2
    20    11    13    1
    21    13    14    2
    22    13    19    1
    23    14    15    1
    24    19    18    2
    25    15    16    2
    26    18    16    1
    27    16    17    1
