@<TRIPOS>MOLECULE
67392_out_ligand_01.pdbqt
 32 35 0 0 0
SMALL
GASTEIGER

@<TRIPOS>ATOM
      1  O         19.8540  -24.6790   -8.2520 O.2     1  UNL1       -0.2670
      2  C         19.1340  -23.6940   -8.4010 C.2     1  UNL1        0.2580
      3  N         19.2030  -22.7560   -9.4490 N.am    1  UNL1       -0.3130
      4  C         18.0390  -21.9210   -9.7790 C.3     1  UNL1        0.1330
      5  C         17.8570  -21.7330  -11.2730 C.3     1  UNL1        0.0250
      6  C         19.0840  -21.0500  -11.8370 C.3     1  UNL1        0.0420
      7  C         20.3410  -21.7650  -11.4150 C.2     1  UNL1       -0.0300
      8  C         21.4970  -21.5610  -12.1920 C.2     1  UNL1        0.0340
      9  C         22.6920  -22.1870  -11.8430 C.2     1  UNL1        0.0800
     10  C         22.7510  -23.0130  -10.7270 C.2     1  UNL1        0.0270
     11  C         21.6060  -23.2000   -9.9440 C.2     1  UNL1        0.0320
     12  C         20.3820  -22.5910  -10.2670 C.2     1  UNL1        0.0430
     13  S         24.1480  -21.9460  -12.8260 S.O2    1  UNL1        0.2580
     14  O         25.1140  -21.1920  -12.0580 O.2     1  UNL1       -0.2010
     15  O         23.7220  -21.5300  -14.1430 O.2     1  UNL1       -0.2010
     16  N         24.7200  -23.5170  -12.9820 N.3     1  UNL1       -0.3150
     17  H         24.0030  -24.1600  -13.3210 H       1  UNL1        0.1720
     18  C         26.0910  -23.7150  -13.4730 C.3     1  UNL1        0.1370
     19  C         26.0730  -24.4420  -14.8230 C.3     1  UNL1        0.0580
     20  C         25.7020  -23.5430  -15.9800 C.2     1  UNL1       -0.0570
     21  C         26.5100  -22.4480  -16.3160 C.2     1  UNL1        0.0070
     22  C         26.1790  -21.6300  -17.3980 C.2     1  UNL1        0.0010
     23  C         25.0400  -21.8990  -18.1530 C.2     1  UNL1        0.0000
     24  C         24.2280  -22.9830  -17.8270 C.2     1  UNL1        0.0010
     25  C         24.5570  -23.8030  -16.7450 C.2     1  UNL1        0.0070
     26  C         18.0920  -23.5110   -7.3600 C.2     1  UNL1        0.0320
     27  C         16.8670  -24.1840   -7.4520 C.2     1  UNL1        0.0180
     28  C         15.8910  -23.9770   -6.4750 C.2     1  UNL1        0.0250
     29  C         16.1350  -23.0900   -5.4250 C.2     1  UNL1        0.0340
     30 CL         14.9300  -22.8390   -4.2240 Cl      1  UNL1       -0.0840
     31  C         17.3440  -22.3990   -5.3460 C.2     1  UNL1        0.0250
     32  C         18.3240  -22.6020   -6.3210 C.2     1  UNL1        0.0180
@<TRIPOS>BOND
     1    23    24    2
     2    23    22    1
     3    24    25    1
     4    22    21    2
     5    25    20    2
     6    21    20    1
     7    20    19    1
     8    19    18    1
     9    15    13    2
    10    18    16    1
    11    17    16    1
    12    16    13    1
    13    13    14    2
    14    13     9    1
    15     8     9    1
    16     8     7    2
    17     9    10    2
    18     6     7    1
    19     6     5    1
    20     7    12    1
    21     5     4    1
    22    10    11    1
    23    12    11    2
    24    12     3    1
    25     4     3    1
    26     3     2   am
    27     2     1    2
    28     2    26    1
    29    27    26    2
    30    27    28    1
    31    26    32    1
    32    28    29    2
    33    32    31    2
    34    29    31    1
    35    29    30    1
