@<TRIPOS>MOLECULE
67399_out_ligand_01.pdbqt
 30 33 0 0 0
SMALL
GASTEIGER

@<TRIPOS>ATOM
      1  O         22.8510  -24.0220  -10.3180 O.2     1  UNL1       -0.2670
      2  C         22.5710  -22.8940  -10.7170 C.2     1  UNL1        0.2580
      3  N         21.2900  -22.3110  -10.7500 N.am    1  UNL1       -0.3130
      4  C         21.0070  -21.1880  -11.6570 C.3     1  UNL1        0.1330
      5  C         19.6240  -21.2620  -12.2740 C.3     1  UNL1        0.0250
      6  C         18.5890  -21.2310  -11.1700 C.3     1  UNL1        0.0420
      7  C         18.8930  -22.2710  -10.1230 C.2     1  UNL1       -0.0300
      8  C         17.8310  -22.6910   -9.2990 C.2     1  UNL1        0.0340
      9  C         18.0530  -23.6360   -8.2990 C.2     1  UNL1        0.0800
     10  C         19.3210  -24.1770   -8.1160 C.2     1  UNL1        0.0270
     11  C         20.3800  -23.7460   -8.9240 C.2     1  UNL1        0.0320
     12  C         20.1960  -22.7900   -9.9400 C.2     1  UNL1        0.0430
     13  S         16.7130  -24.1650   -7.2670 S.O2    1  UNL1        0.2630
     14  O         15.6380  -24.6520   -8.1040 O.2     1  UNL1       -0.2000
     15  O         17.2720  -24.9930   -6.2180 O.2     1  UNL1       -0.2000
     16  N         16.2350  -22.7250   -6.5180 N.pl3   1  UNL1       -0.2810
     17  H         15.8580  -22.0720   -7.2040 H       1  UNL1        0.1790
     18  C         17.0750  -22.1930   -5.5030 C.2     1  UNL1        0.0420
     19  C         18.1740  -21.4070   -5.8420 C.2     1  UNL1        0.0300
     20  C         19.0120  -20.9180   -4.8380 C.2     1  UNL1        0.0020
     21  C         18.7510  -21.2200   -3.5010 C.2     1  UNL1        0.0000
     22  C         17.6530  -22.0130   -3.1660 C.2     1  UNL1        0.0020
     23  C         16.8170  -22.5050   -4.1680 C.2     1  UNL1        0.0300
     24  C         23.7190  -22.0980  -11.2210 C.2     1  UNL1        0.0320
     25  C         23.9480  -22.0370  -12.6030 C.2     1  UNL1        0.0200
     26  C         25.0360  -21.3140  -13.0910 C.2     1  UNL1        0.0430
     27  C         25.8910  -20.6740  -12.1980 C.2     1  UNL1        0.1160
     28  F         26.9350  -19.9800  -12.6690 F       1  UNL1       -0.2060
     29  C         25.6860  -20.7510  -10.8230 C.2     1  UNL1        0.0430
     30  C         24.6010  -21.4750  -10.3280 C.2     1  UNL1        0.0200
@<TRIPOS>BOND
     1    26    25    1
     2    26    27    2
     3    28    27    1
     4    25    24    2
     5     5     4    1
     6     5     6    1
     7    27    29    1
     8     4     3    1
     9    24     2    1
    10    24    30    1
    11     6     7    1
    12    29    30    2
    13     3     2   am
    14     3    12    1
    15     2     1    2
    16     7    12    2
    17     7     8    1
    18    12    11    1
    19     8     9    2
    20    11    10    2
    21     9    10    1
    22     9    13    1
    23    14    13    2
    24    13    16    1
    25    13    15    2
    26    17    16    1
    27    16    18    1
    28    19    18    2
    29    19    20    1
    30    18    23    1
    31    20    21    2
    32    23    22    2
    33    21    22    1
