@<TRIPOS>MOLECULE
67394_out_ligand_01.pdbqt
 37 41 0 0 0
SMALL
GASTEIGER

@<TRIPOS>ATOM
      1  O         20.0120  -24.7420   -8.4710 O.2     1  UNL1       -0.2670
      2  C         19.4300  -23.6800   -8.6800 C.2     1  UNL1        0.2580
      3  N         19.7400  -22.7430   -9.6850 N.am    1  UNL1       -0.3130
      4  C         18.7210  -21.7980  -10.1660 C.3     1  UNL1        0.1330
      5  C         18.7660  -21.6050  -11.6720 C.3     1  UNL1        0.0250
      6  C         20.1220  -21.0510  -12.0570 C.3     1  UNL1        0.0420
      7  C         21.2320  -21.8760  -11.4620 C.2     1  UNL1       -0.0300
      8  C         22.5040  -21.7830  -12.0600 C.2     1  UNL1        0.0340
      9  C         23.5740  -22.5090  -11.5420 C.2     1  UNL1        0.0800
     10  C         23.3930  -23.3380  -10.4410 C.2     1  UNL1        0.0270
     11  C         22.1340  -23.4170   -9.8350 C.2     1  UNL1        0.0320
     12  C         21.0310  -22.6960  -10.3270 C.2     1  UNL1        0.0430
     13  S         25.1790  -22.3850  -12.2830 S.O2    1  UNL1        0.2590
     14  O         26.0330  -21.6710  -11.3600 O.2     1  UNL1       -0.2010
     15  O         25.5430  -23.6850  -12.8030 O.2     1  UNL1       -0.2010
     16  N         24.9310  -21.3760  -13.5750 N.3     1  UNL1       -0.3020
     17  H         23.9850  -21.0480  -13.7340 H       1  UNL1        0.1730
     18  C         25.9280  -21.2420  -14.6380 C.3     1  UNL1        0.1590
     19  C         25.4070  -21.9600  -15.8850 C.2     1  UNL1       -0.0300
     20  C         26.2280  -22.1080  -17.0140 C.2     1  UNL1        0.0090
     21  C         25.7750  -22.8010  -18.1390 C.2     1  UNL1        0.0010
     22  C         24.4930  -23.3490  -18.1530 C.2     1  UNL1        0.0000
     23  C         23.6620  -23.2020  -17.0450 C.2     1  UNL1        0.0010
     24  C         24.1120  -22.5130  -15.9170 C.2     1  UNL1        0.0090
     25  C         26.3170  -19.7800  -14.8940 C.2     1  UNL1       -0.0300
     26  C         26.3510  -19.2600  -16.2040 C.2     1  UNL1        0.0090
     27  C         26.7410  -17.9400  -16.4480 C.2     1  UNL1        0.0010
     28  C         27.1200  -17.1180  -15.3900 C.2     1  UNL1        0.0000
     29  C         27.1200  -17.6180  -14.0900 C.2     1  UNL1        0.0010
     30  C         26.7320  -18.9380  -13.8440 C.2     1  UNL1        0.0090
     31  C         18.2840  -23.3940   -7.7800 C.2     1  UNL1        0.0320
     32  C         18.4850  -22.5580   -6.6750 C.2     1  UNL1        0.0180
     33  C         17.4150  -22.2550   -5.8300 C.2     1  UNL1        0.0250
     34  C         16.1500  -22.7770   -6.1010 C.2     1  UNL1        0.0340
     35 CL         14.8340  -22.4070   -5.0570 Cl      1  UNL1       -0.0840
     36  C         15.9400  -23.5900   -7.2160 C.2     1  UNL1        0.0250
     37  C         17.0070  -23.8940   -8.0650 C.2     1  UNL1        0.0180
@<TRIPOS>BOND
     1    22    21    2
     2    22    23    1
     3    21    20    1
     4    23    24    2
     5    20    19    2
     6    27    26    1
     7    27    28    2
     8    26    25    2
     9    24    19    1
    10    19    18    1
    11    28    29    1
    12    25    18    1
    13    25    30    1
    14    18    16    1
    15    29    30    2
    16    17    16    1
    17    16    13    1
    18    15    13    2
    19    13     9    1
    20    13    14    2
    21     8     9    1
    22     8     7    2
    23     6     5    1
    24     6     7    1
    25     5     4    1
    26     9    10    2
    27     7    12    1
    28    10    11    1
    29    12    11    2
    30    12     3    1
    31     4     3    1
    32     3     2   am
    33     2     1    2
    34     2    31    1
    35    37    31    2
    36    37    36    1
    37    31    32    1
    38    36    34    2
    39    32    33    2
    40    34    33    1
    41    34    35    1
