@<TRIPOS>MOLECULE
67391_out_ligand_01.pdbqt
 32 35 0 0 0
SMALL
GASTEIGER

@<TRIPOS>ATOM
      1  C         19.8700  -22.3960   -7.7770 C.2     1  UNL1        0.2580
      2  O         20.7070  -22.1240   -6.9200 O.2     1  UNL1       -0.2670
      3  N         20.0390  -22.3060   -9.1750 N.am    1  UNL1       -0.3130
      4  C         18.8670  -22.2290  -10.0590 C.3     1  UNL1        0.1330
      5  C         19.0720  -21.2880  -11.2320 C.3     1  UNL1        0.0250
      6  C         20.2410  -21.7780  -12.0580 C.3     1  UNL1        0.0420
      7  C         21.4500  -22.0060  -11.1910 C.2     1  UNL1       -0.0300
      8  C         22.7110  -21.9920  -11.8180 C.2     1  UNL1        0.0340
      9  C         23.8670  -22.2060  -11.0700 C.2     1  UNL1        0.0800
     10  C         23.7830  -22.4350   -9.7010 C.2     1  UNL1        0.0270
     11  C         22.5280  -22.4670   -9.0810 C.2     1  UNL1        0.0320
     12  C         21.3390  -22.2520   -9.8010 C.2     1  UNL1        0.0430
     13  S         25.4610  -22.1660  -11.8510 S.O2    1  UNL1        0.2580
     14  O         25.6270  -20.8670  -12.4680 O.2     1  UNL1       -0.2010
     15  O         26.4240  -22.6950  -10.9120 O.2     1  UNL1       -0.2010
     16  N         25.3050  -23.2920  -13.0750 N.3     1  UNL1       -0.3140
     17  H         24.3940  -23.3020  -13.5360 H       1  UNL1        0.1720
     18  C         26.4460  -23.5800  -13.9540 C.3     1  UNL1        0.1620
     19  C         26.2050  -22.9360  -15.3360 C.3     1  UNL1        0.2920
     20  N         24.7680  -22.6300  -15.5260 N.3     1  UNL1        0.0940
     21  C         24.5280  -21.1820  -15.7160 C.3     1  UNL1        0.2980
     22  C         24.9690  -20.6490  -17.0900 C.3     1  UNL1        0.1980
     23  O         24.3390  -21.3710  -18.1530 O.3     1  UNL1       -0.3880
     24  C         24.6340  -22.7700  -18.0580 C.3     1  UNL1        0.1980
     25  C         24.2010  -23.3430  -16.6960 C.3     1  UNL1        0.2980
     26  C         18.5550  -22.8480   -7.2610 C.2     1  UNL1        0.0320
     27  C         18.2120  -24.2050   -7.2770 C.2     1  UNL1        0.0170
     28  C         16.9750  -24.6110   -6.7740 C.2     1  UNL1        0.0070
     29  C         16.0780  -23.6700   -6.2500 C.2     1  UNL1       -0.0620
     30  C         14.7620  -24.1070   -5.6770 C.3     1  UNL1        0.0480
     31  C         16.4490  -22.3180   -6.2030 C.2     1  UNL1        0.0070
     32  C         17.6860  -21.9070   -6.7030 C.2     1  UNL1        0.0170
@<TRIPOS>BOND
     1    23    24    1
     2    23    22    1
     3    24    25    1
     4    22    21    1
     5    25    20    1
     6    21    20    1
     7    20    19    1
     8    19    18    1
     9    18    16    1
    10    17    16    1
    11    16    13    1
    12    14    13    2
    13     6     5    1
    14     6     7    1
    15    13     9    1
    16    13    15    2
    17     8     7    2
    18     8     9    1
    19     5     4    1
    20     7    12    1
    21     9    10    2
    22     4     3    1
    23    12     3    1
    24    12    11    2
    25    10    11    1
    26     3     1   am
    27     1    26    1
    28     1     2    2
    29    27    26    2
    30    27    28    1
    31    26    32    1
    32    28    29    2
    33    32    31    2
    34    29    31    1
    35    29    30    1
