@<TRIPOS>MOLECULE
67402_out_ligand_01.pdbqt
 32 35 0 0 0
SMALL
GASTEIGER

@<TRIPOS>ATOM
      1  C         23.0830  -22.4170  -11.1580 C.2     1  UNL1        0.0800
      2  C         22.9460  -23.2200  -10.0310 C.2     1  UNL1        0.0270
      3  C         21.6860  -23.3740   -9.4420 C.2     1  UNL1        0.0320
      4  C         20.5410  -22.7550   -9.9720 C.2     1  UNL1        0.0430
      5  C         20.7000  -21.9570  -11.1290 C.2     1  UNL1       -0.0300
      6  C         21.9690  -21.7910  -11.7120 C.2     1  UNL1        0.0340
      7  C         19.5420  -21.2330  -11.7640 C.3     1  UNL1        0.0420
      8  C         18.2270  -21.8810  -11.3880 C.3     1  UNL1        0.0250
      9  C         18.1640  -22.0360   -9.8810 C.3     1  UNL1        0.1330
     10  N         19.2430  -22.8820   -9.3500 N.am    1  UNL1       -0.3130
     11  C         18.9890  -23.7940   -8.3080 C.2     1  UNL1        0.2580
     12  O         19.6560  -24.7870   -8.0250 O.2     1  UNL1       -0.2670
     13  S         24.6790  -22.2140  -11.9060 S.O2    1  UNL1        0.2630
     14  O         25.1780  -23.5130  -12.3040 O.2     1  UNL1       -0.2000
     15  O         25.4590  -21.3540  -11.0410 O.2     1  UNL1       -0.2000
     16  N         24.3280  -21.2970  -13.2820 N.pl3   1  UNL1       -0.2810
     17  H         24.2310  -20.3110  -13.0420 H       1  UNL1        0.1790
     18  C         25.0140  -21.6120  -14.4850 C.2     1  UNL1        0.0430
     19  C         26.3380  -21.2180  -14.6410 C.2     1  UNL1        0.0300
     20  C         27.0080  -21.4950  -15.8310 C.2     1  UNL1        0.0090
     21  C         26.3600  -22.1640  -16.8810 C.2     1  UNL1       -0.0560
     22  C         27.1140  -22.4460  -18.1530 C.3     1  UNL1        0.0490
     23  C         25.0160  -22.5620  -16.7220 C.2     1  UNL1       -0.0540
     24  C         24.3520  -22.2740  -15.5180 C.2     1  UNL1        0.0370
     25  C         24.2700  -23.2650  -17.8220 C.3     1  UNL1        0.0490
     26  C         17.7970  -23.5680   -7.4530 C.2     1  UNL1        0.0320
     27  C         16.6310  -24.3010   -7.7080 C.2     1  UNL1        0.0200
     28  C         15.5080  -24.1180   -6.8980 C.2     1  UNL1        0.0430
     29  C         15.5690  -23.2190   -5.8370 C.2     1  UNL1        0.1160
     30  F         14.4910  -23.0450   -5.0610 F       1  UNL1       -0.2060
     31  C         16.7320  -22.5050   -5.5620 C.2     1  UNL1        0.0430
     32  C         17.8570  -22.6830   -6.3670 C.2     1  UNL1        0.0200
@<TRIPOS>BOND
     1    22    21    1
     2    25    23    1
     3    21    23    2
     4    21    20    1
     5    23    24    1
     6    20    19    2
     7    24    18    2
     8    19    18    1
     9    18    16    1
    10    16    17    1
    11    16    13    1
    12    14    13    2
    13    13     1    1
    14    13    15    2
    15     7     8    1
    16     7     5    1
    17     6     1    2
    18     6     5    1
    19     8     9    1
    20     1     2    1
    21     5     4    2
    22     2     3    2
    23     4     3    1
    24     4    10    1
    25     9    10    1
    26    10    11   am
    27    11    12    2
    28    11    26    1
    29    27    26    2
    30    27    28    1
    31    26    32    1
    32    28    29    2
    33    32    31    2
    34    29    31    1
    35    29    30    1
