@<TRIPOS>MOLECULE
67407_out_ligand_01.pdbqt
 35 38 0 0 0
SMALL
GASTEIGER

@<TRIPOS>ATOM
      1  C         18.6660  -21.8660   -5.5870 C.2     1  UNL1        0.0910
      2  C         19.7650  -21.0560   -5.9050 C.2     1  UNL1        0.0390
      3  C         20.6550  -21.4220   -6.9220 C.2     1  UNL1        0.0200
      4  C         20.4630  -22.6150   -7.6260 C.2     1  UNL1        0.0340
      5  C         19.3660  -23.4270   -7.3230 C.2     1  UNL1        0.0450
      6  C         18.4810  -23.0620   -6.2940 C.2     1  UNL1        0.1130
      7  C         21.3800  -23.0310   -8.7260 C.2     1  UNL1        0.2560
      8  O         21.5600  -24.2290   -8.9030 O.2     1  UNL1       -0.2670
      9  N         21.9680  -21.9870   -9.4190 N.am    1  UNL1       -0.3230
     10  H         21.8270  -21.0540   -9.0530 H       1  UNL1        0.1690
     11  C         22.8200  -22.0790  -10.5410 C.2     1  UNL1        0.0370
     12  C         24.1280  -22.5290  -10.3110 C.2     1  UNL1        0.0320
     13  C         25.0420  -22.6390  -11.3630 C.2     1  UNL1        0.0420
     14  C         24.6540  -22.2980  -12.6540 C.2     1  UNL1        0.1020
     15  C         23.3600  -21.8260  -12.8900 C.2     1  UNL1        0.1040
     16  O         25.5960  -22.4430  -13.6400 O.2     1  UNL1       -0.3460
     17  C         22.4420  -21.7310  -11.8400 C.2     1  UNL1        0.0690
     18  O         22.9180  -21.4430  -14.1320 O.2     1  UNL1       -0.3460
     19  C         24.0090  -21.2490  -15.0380 C.3     1  UNL1        0.2020
     20  C         24.9970  -22.3980  -14.9410 C.3     1  UNL1        0.2020
     21  S         17.0920  -24.1250   -5.9750 S.O2    1  UNL1        0.2610
     22  O         17.1650  -25.2980   -6.8140 O.2     1  UNL1       -0.2000
     23  O         16.9590  -24.2500   -4.5400 O.2     1  UNL1       -0.2000
     24  N         15.7780  -23.1740   -6.4270 N.3     1  UNL1       -0.3150
     25  H         14.9040  -23.6940   -6.3430 H       1  UNL1        0.1720
     26  C         15.9140  -22.2890   -7.5960 C.3     1  UNL1        0.1370
     27  C         15.9250  -23.1030   -8.8930 C.3     1  UNL1        0.0580
     28  C         16.8550  -22.5020   -9.9180 C.2     1  UNL1       -0.0570
     29  C         18.0150  -23.1900  -10.3020 C.2     1  UNL1        0.0070
     30  C         18.8910  -22.6330  -11.2320 C.2     1  UNL1        0.0010
     31  C         18.6200  -21.3820  -11.7820 C.2     1  UNL1        0.0000
     32  C         17.4730  -20.6870  -11.4010 C.2     1  UNL1        0.0010
     33  C         16.5940  -21.2430  -10.4710 C.2     1  UNL1        0.0070
     34  O         17.7960  -21.5660   -4.5800 O.2     1  UNL1       -0.3540
     35  C         18.3440  -21.3860   -3.2790 C.3     1  UNL1        0.2100
@<TRIPOS>BOND
     1    19    20    1
     2    19    18    1
     3    20    16    1
     4    18    15    1
     5    16    14    1
     6    15    14    2
     7    15    17    1
     8    14    13    1
     9    17    11    2
    10    31    32    2
    11    31    30    1
    12    32    33    1
    13    13    12    2
    14    30    29    2
    15    11    12    1
    16    11     9    1
    17    33    28    2
    18    29    28    1
    19    28    27    1
    20     9    10    1
    21     9     7   am
    22     8     7    2
    23    27    26    1
    24     7     4    1
    25     4     5    2
    26     4     3    1
    27    26    24    1
    28     5     6    1
    29     3     2    2
    30    22    21    2
    31    24    25    1
    32    24    21    1
    33     6    21    1
    34     6     1    2
    35    21    23    2
    36     2     1    1
    37     1    34    1
    38    34    35    1
