@<TRIPOS>MOLECULE
67400_out_ligand_01.pdbqt
 31 34 0 0 0
SMALL
GASTEIGER

@<TRIPOS>ATOM
      1  C         17.9630  -23.7120   -8.2720 C.2     1  UNL1        0.0800
      2  C         19.2370  -24.2450   -8.1210 C.2     1  UNL1        0.0270
      3  C         20.2820  -23.7800   -8.9280 C.2     1  UNL1        0.0320
      4  C         20.0770  -22.7970   -9.9120 C.2     1  UNL1        0.0430
      5  C         18.7680  -22.2800  -10.0620 C.2     1  UNL1       -0.0300
      6  C         17.7210  -22.7380   -9.2400 C.2     1  UNL1        0.0340
      7  C         18.4430  -21.2100  -11.0690 C.3     1  UNL1        0.0420
      8  C         19.4660  -21.1910  -12.1850 C.3     1  UNL1        0.0250
      9  C         20.8560  -21.1310  -11.5820 C.3     1  UNL1        0.1330
     10  N         21.1560  -22.2880  -10.7260 N.am    1  UNL1       -0.3130
     11  C         22.4330  -22.8780  -10.7440 C.2     1  UNL1        0.2580
     12  O         22.7170  -24.0200  -10.3900 O.2     1  UNL1       -0.2670
     13  S         16.6360  -24.2940   -7.2500 S.O2    1  UNL1        0.2630
     14  O         17.2190  -25.1120   -6.2060 O.2     1  UNL1       -0.2000
     15  O         15.5840  -24.8120   -8.0950 O.2     1  UNL1       -0.2000
     16  N         16.1070  -22.8780   -6.4910 N.pl3   1  UNL1       -0.2810
     17  H         15.6880  -22.2420   -7.1670 H       1  UNL1        0.1790
     18  C         16.9380  -22.3110   -5.4870 C.2     1  UNL1        0.0430
     19  C         16.6620  -22.5690   -4.1450 C.2     1  UNL1        0.0300
     20  C         17.4860  -22.0340   -3.1560 C.2     1  UNL1        0.0030
     21  C         18.5880  -21.2540   -3.5090 C.2     1  UNL1        0.0070
     22  C         18.8850  -21.0130   -4.8570 C.2     1  UNL1       -0.0600
     23  C         20.0570  -20.1580   -5.2370 C.3     1  UNL1        0.0480
     24  C         18.0430  -21.5390   -5.8460 C.2     1  UNL1        0.0370
     25  C         23.5730  -22.0700  -11.2460 C.2     1  UNL1        0.0320
     26  C         24.5060  -21.5250  -10.3530 C.2     1  UNL1        0.0200
     27  C         25.5840  -20.7890  -10.8490 C.2     1  UNL1        0.0430
     28  C         25.7270  -20.6190  -12.2230 C.2     1  UNL1        0.1160
     29  F         26.7620  -19.9130  -12.6940 F       1  UNL1       -0.2060
     30  C         24.8180  -21.1790  -13.1170 C.2     1  UNL1        0.0430
     31  C         23.7390  -21.9150  -12.6280 C.2     1  UNL1        0.0200
@<TRIPOS>BOND
     1    30    31    1
     2    30    28    2
     3    29    28    1
     4    31    25    2
     5    28    27    1
     6     8     9    1
     7     8     7    1
     8     9    10    1
     9    25    11    1
    10    25    26    1
    11     7     5    1
    12    27    26    2
    13    11    10   am
    14    11    12    2
    15    10     4    1
    16     5     4    2
    17     5     6    1
    18     4     3    1
    19     6     1    2
    20     3     2    2
    21     1     2    1
    22     1    13    1
    23    15    13    2
    24    13    16    1
    25    13    14    2
    26    17    16    1
    27    16    18    1
    28    24    18    2
    29    24    22    1
    30    18    19    1
    31    23    22    1
    32    22    21    2
    33    19    20    2
    34    21    20    1
