@<TRIPOS>MOLECULE
67415_out_ligand_01.pdbqt
 32 34 0 0 0
SMALL
GASTEIGER

@<TRIPOS>ATOM
      1  C         20.1440  -21.8230  -11.3390 C.2     1  UNL1        0.0330
      2  C         19.0750  -21.1640  -11.9520 C.2     1  UNL1        0.0170
      3  C         17.7850  -21.2920  -11.4300 C.2     1  UNL1        0.0090
      4  C         17.5360  -22.0590  -10.2780 C.2     1  UNL1       -0.0390
      5  C         16.1190  -22.1580   -9.7850 C.3     1  UNL1        0.0500
      6  C         18.6240  -22.7100   -9.6620 C.2     1  UNL1        0.0860
      7  C         19.9200  -22.5910  -10.1920 C.2     1  UNL1        0.0420
      8  C         21.5350  -21.7010  -11.8540 C.2     1  UNL1        0.2560
      9  N         22.5050  -22.2370  -11.0270 N.am    1  UNL1       -0.3230
     10  H         22.2070  -22.5620  -10.1160 H       1  UNL1        0.1690
     11  O         21.7070  -21.1290  -12.9230 O.2     1  UNL1       -0.2670
     12  C         23.8940  -22.3020  -11.2680 C.2     1  UNL1        0.0370
     13  C         24.8220  -21.4080  -10.7350 C.2     1  UNL1        0.0290
     14  C         26.1810  -21.5430  -11.0300 C.2     1  UNL1        0.0050
     15  C         26.6270  -22.5720  -11.8620 C.2     1  UNL1        0.0370
     16  C         25.7110  -23.4700  -12.4050 C.2     1  UNL1        0.0700
     17  C         24.3520  -23.3280  -12.1050 C.2     1  UNL1        0.0660
     18  O         26.0050  -24.5180  -13.2350 O.2     1  UNL1       -0.3510
     19  C         25.3060  -24.5760  -14.4770 C.3     1  UNL1        0.1710
     20  C         26.0090  -23.6470  -15.4520 C.3     1  UNL1        0.0340
     21  S         18.4310  -23.7270   -8.1990 S.O2    1  UNL1        0.2630
     22  O         19.6340  -24.5150   -8.0350 O.2     1  UNL1       -0.2000
     23  O         17.1390  -24.3760   -8.2710 O.2     1  UNL1       -0.2000
     24  N         18.3310  -22.6000   -6.9490 N.pl3   1  UNL1       -0.2810
     25  H         19.2460  -22.2990   -6.6210 H       1  UNL1        0.1790
     26  C         17.2660  -22.6690   -6.0060 C.2     1  UNL1        0.0430
     27  C         17.4890  -23.3370   -4.8020 C.2     1  UNL1        0.0300
     28  C         16.4630  -23.4460   -3.8640 C.2     1  UNL1        0.0030
     29  C         15.2120  -22.8880   -4.1280 C.2     1  UNL1        0.0070
     30  C         14.9780  -22.2130   -5.3320 C.2     1  UNL1       -0.0600
     31  C         13.6440  -21.5860   -5.6100 C.3     1  UNL1        0.0480
     32  C         16.0230  -22.0870   -6.2590 C.2     1  UNL1        0.0370
@<TRIPOS>BOND
     1    20    19    1
     2    19    18    1
     3    18    16    1
     4    11     8    2
     5    16    17    1
     6    16    15    2
     7    17    12    2
     8     2     3    1
     9     2     1    2
    10    15    14    1
    11     8     1    1
    12     8     9   am
    13     3     4    2
    14     1     7    1
    15    12     9    1
    16    12    13    1
    17    14    13    2
    18     9    10    1
    19     4     5    1
    20     4     6    1
    21     7     6    2
    22     6    21    1
    23    23    21    2
    24    21    22    2
    25    21    24    1
    26    24    25    1
    27    24    26    1
    28    32    26    2
    29    32    30    1
    30    26    27    1
    31    31    30    1
    32    30    29    2
    33    27    28    2
    34    29    28    1
