@<TRIPOS>MOLECULE
67419_out_ligand_01.pdbqt
 31 34 0 0 0
SMALL
GASTEIGER

@<TRIPOS>ATOM
      1  C         18.6570  -21.8480  -10.8170 C.2     1  UNL1       -0.0580
      2  C         19.4290  -22.6710   -9.9850 C.2     1  UNL1        0.0090
      3  C         18.8300  -23.3850   -8.9470 C.2     1  UNL1        0.0250
      4  C         17.4540  -23.2670   -8.7360 C.2     1  UNL1        0.0750
      5  C         16.6710  -22.4440   -9.5480 C.2     1  UNL1        0.0250
      6  C         17.2770  -21.7300  -10.5820 C.2     1  UNL1        0.0090
      7  S         16.6990  -24.2190   -7.4310 S.O2    1  UNL1        0.2480
      8  O         17.7790  -24.9580   -6.8100 O.2     1  UNL1       -0.2050
      9  O         15.5550  -24.9130   -7.9920 O.2     1  UNL1       -0.2050
     10  N         16.0990  -22.9710   -6.3690 N.pl3   1  UNL1       -0.1720
     11  C         14.8910  -23.4330   -5.6090 C.3     1  UNL1        0.1140
     12  C         14.5790  -22.5390   -4.4240 C.3     1  UNL1        0.0200
     13  C         15.7670  -22.5410   -3.4810 C.3     1  UNL1        0.0420
     14  C         16.9900  -22.0670   -4.2170 C.2     1  UNL1       -0.0360
     15  C         17.9950  -21.4030   -3.4930 C.2     1  UNL1        0.0090
     16  C         17.1340  -22.2780   -5.6010 C.2     1  UNL1        0.0310
     17  C         19.1130  -20.8900   -4.1440 C.2     1  UNL1        0.0010
     18  C         19.2230  -21.0210   -5.5230 C.2     1  UNL1        0.0020
     19  C         18.2330  -21.6930   -6.2440 C.2     1  UNL1        0.0250
     20  C         19.2840  -21.1590  -12.0070 C.3     1  UNL1        0.0470
     21  C         20.7020  -20.6570  -11.7290 C.3     1  UNL1        0.1070
     22  C         21.7430  -21.4730  -12.4680 C.2     1  UNL1        0.2180
     23  O         22.1190  -22.5710  -12.0690 O.2     1  UNL1       -0.2740
     24  N         22.2390  -20.8630  -13.5950 N.am    1  UNL1       -0.3550
     25  H         22.1110  -19.8620  -13.6840 H       1  UNL1        0.1620
     26  C         23.3890  -21.4100  -14.2740 C.3     1  UNL1        0.1870
     27  C         24.6060  -20.7860  -13.7060 C.2     1  UNL1        0.0700
     28  C         25.3940  -21.0590  -12.6070 C.2     1  UNL1        0.0360
     29  C         26.4330  -20.0950  -12.6120 C.2     1  UNL1        0.0270
     30  C         26.2160  -19.3000  -13.7120 C.2     1  UNL1        0.1420
     31  O         25.1090  -19.7100  -14.3820 O.2     1  UNL1       -0.3250
@<TRIPOS>BOND
     1    31    30    1
     2    31    27    1
     3    26    27    1
     4    26    24    1
     5    30    29    2
     6    27    28    2
     7    25    24    1
     8    24    22   am
     9    29    28    1
    10    22    23    2
    11    22    21    1
    12    20    21    1
    13    20     1    1
    14     1     6    2
    15     1     2    1
    16     6     5    1
    17     2     3    2
    18     5     4    2
    19     3     4    1
    20     4     7    1
    21     9     7    2
    22     7     8    2
    23     7    10    1
    24    10    11    1
    25    10    16    1
    26    19    16    1
    27    19    18    2
    28    11    12    1
    29    16    14    2
    30    18    17    1
    31    12    13    1
    32    14    15    1
    33    14    13    1
    34    17    15    2
