@<TRIPOS>MOLECULE
67420_out_ligand_01.pdbqt
 33 37 0 0 0
SMALL
GASTEIGER

@<TRIPOS>ATOM
      1  C         20.8610  -22.9720   -8.3290 C.2     1  UNL1        0.0170
      2  C         21.2570  -23.7730   -9.4090 C.2     1  UNL1        0.0160
      3  C         22.4940  -23.5750  -10.0310 C.2     1  UNL1        0.0100
      4  C         23.3620  -22.5680   -9.5900 C.2     1  UNL1       -0.0400
      5  C         22.9750  -21.7700   -8.5070 C.2     1  UNL1        0.0100
      6  C         21.7380  -21.9690   -7.8880 C.2     1  UNL1        0.0160
      7  C         24.7040  -22.3810  -10.2490 C.3     1  UNL1        0.1610
      8  N         24.5510  -22.2010  -11.6740 N.am    1  UNL1       -0.3530
      9  C         25.5210  -22.6140  -12.5610 C.2     1  UNL1        0.2520
     10  O         26.5220  -23.2490  -12.2560 O.2     1  UNL1       -0.2680
     11  H         23.8670  -21.5270  -11.9910 H       1  UNL1        0.1630
     12  C         25.3210  -22.1610  -13.9580 C.2     1  UNL1        0.0430
     13  C         24.6700  -23.0700  -14.7990 C.2     1  UNL1        0.0180
     14  C         24.4890  -22.7590  -16.1360 C.2     1  UNL1        0.0020
     15  C         24.9530  -21.5400  -16.6300 C.2     1  UNL1        0.0130
     16  C         25.5980  -20.5840  -15.8030 C.2     1  UNL1       -0.0070
     17  C         26.0660  -19.3290  -16.2730 C.2     1  UNL1        0.0220
     18  C         25.7750  -20.8990  -14.4280 C.2     1  UNL1       -0.0090
     19 BR         25.9070  -18.7910  -18.0980 Br      1  UNL1       -0.0500
     20  C         26.6740  -18.4050  -15.4170 C.2     1  UNL1        0.0200
     21  C         26.8220  -18.7050  -14.0720 C.2     1  UNL1        0.0020
     22  C         26.3760  -19.9320  -13.5860 C.2     1  UNL1        0.0130
     23  C         19.5770  -23.1540   -7.6570 C.ar    1  UNL1        0.1800
     24  N         18.5810  -23.9630   -7.9740 N.ar    1  UNL1       -0.2210
     25  C         17.6390  -23.7180   -7.0090 C.ar    1  UNL1        0.0940
     26  C         16.3670  -24.2620   -6.8000 C.2     1  UNL1        0.0410
     27  C         18.1050  -22.7570   -6.1310 C.ar    1  UNL1        0.1070
     28  C         15.6010  -23.8110   -5.7020 C.2     1  UNL1       -0.0540
     29  C         14.2330  -24.4040   -5.4850 C.3     1  UNL1        0.0490
     30  C         16.1180  -22.8230   -4.8250 C.2     1  UNL1       -0.0530
     31  C         17.3990  -22.2760   -5.0360 C.2     1  UNL1        0.0470
     32  C         15.3120  -22.3330   -3.6500 C.3     1  UNL1        0.0490
     33  O         19.3510  -22.3870   -6.5390 O.2     1  UNL1       -0.2890
@<TRIPOS>BOND
     1    19    17    1
     2    15    14    2
     3    15    16    1
     4    17    16    2
     5    17    20    1
     6    14    13    1
     7    16    18    1
     8    20    21    2
     9    13    12    2
    10    18    12    1
    11    18    22    2
    12    21    22    1
    13    12     9    1
    14     9    10    2
    15     9     8   am
    16    11     8    1
    17     8     7    1
    18     7     4    1
    19     3     4    2
    20     3     2    1
    21     4     5    1
    22     2     1    2
    23     5     6    2
    24     1     6    1
    25     1    23    1
    26    24    23   ar
    27    24    25   ar
    28    23    33   ar
    29    25    26    2
    30    25    27   ar
    31    26    28    1
    32    33    27   ar
    33    27    31    2
    34    28    29    1
    35    28    30    2
    36    31    30    1
    37    30    32    1
