@<TRIPOS>MOLECULE
6744_out_ligand_01.pdbqt
 32 35 0 0 0
SMALL
GASTEIGER

@<TRIPOS>ATOM
      1  C         21.2790  -23.0140   -9.9260 C.2     1  UNL1        0.1060
      2  C         22.5490  -23.5690   -9.6320 C.2     1  UNL1        0.0670
      3  C         23.4810  -22.8610  -10.3730 C.2     1  UNL1        0.1060
      4  O         22.8180  -21.9070  -11.1020 O.2     1  UNL1       -0.3110
      5  C         21.4890  -21.9920  -10.8200 C.2     1  UNL1        0.0720
      6  C         20.6080  -21.0180  -11.4970 C.3     1  UNL1        0.0780
      7  S         19.7650  -23.5040   -9.2890 S.O2    1  UNL1        0.2480
      8  O         20.0620  -24.7290   -8.5850 O.2     1  UNL1       -0.2050
      9  O         18.8730  -23.4560  -10.4280 O.2     1  UNL1       -0.2050
     10  N         19.2560  -22.2850   -8.2240 N.pl3   1  UNL1       -0.1780
     11  H         19.0820  -21.4420   -8.7720 H       1  UNL1        0.1460
     12  C         18.1290  -22.6570   -7.4160 C.2     1  UNL1        0.0610
     13  C         18.3310  -23.2180   -6.1560 C.2     1  UNL1        0.0280
     14  C         17.2300  -23.5200   -5.3470 C.2     1  UNL1        0.0090
     15  C         15.9250  -23.2410   -5.7790 C.2     1  UNL1       -0.0590
     16  C         14.7470  -23.5920   -4.9200 C.3     1  UNL1        0.0480
     17  C         15.7330  -22.6720   -7.0450 C.2     1  UNL1        0.0510
     18  C         16.8300  -22.3730   -7.8460 C.2     1  UNL1        0.1390
     19  F         16.6220  -21.8280   -9.0550 F       1  UNL1       -0.2040
     20  C         24.9010  -23.0180  -10.4420 C.2     1  UNL1        0.1010
     21  N         25.5740  -24.0540   -9.8520 N.pl3   1  UNL1       -0.2750
     22  N         26.8970  -24.0550  -10.0900 N.2     1  UNL1       -0.1860
     23  H         25.1940  -24.8070   -9.2910 H       1  UNL1        0.1890
     24  C         27.0690  -22.9890  -10.8740 C.2     1  UNL1        0.1580
     25  C         25.8710  -22.2730  -11.0920 C.2     1  UNL1        0.0820
     26  C         25.7180  -21.0770  -11.8940 C.2     1  UNL1        0.2570
     27  O         25.8420  -19.9640  -11.3890 O.2     1  UNL1       -0.2670
     28  N         25.3680  -21.2460  -13.2210 N.am    1  UNL1       -0.3480
     29  C         24.9730  -22.4810  -13.8830 C.3     1  UNL1        0.1260
     30  C         25.2220  -20.1040  -14.1030 C.3     1  UNL1        0.1260
     31  C         24.2960  -22.0180  -15.1670 C.3     1  UNL1        0.0210
     32  C         25.0210  -20.7150  -15.4810 C.3     1  UNL1        0.0210
@<TRIPOS>BOND
     1    32    31    1
     2    32    30    1
     3    31    29    1
     4    30    28    1
     5    29    28    1
     6    28    26   am
     7    26    27    2
     8    26    25    1
     9     6     5    1
    10     4     5    1
    11     4     3    1
    12    25    24    1
    13    25    20    2
    14    24    22    2
    15     5     1    2
    16    20     3    1
    17    20    21    1
    18     9     7    2
    19     3     2    2
    20    22    21    1
    21     1     2    1
    22     1     7    1
    23    21    23    1
    24     7     8    2
    25     7    10    1
    26    19    18    1
    27    11    10    1
    28    10    12    1
    29    18    12    2
    30    18    17    1
    31    12    13    1
    32    17    15    2
    33    13    14    2
    34    15    14    1
    35    15    16    1
