@<TRIPOS>MOLECULE
67459_out_ligand_01.pdbqt
 41 44 0 0 0
SMALL
GASTEIGER

@<TRIPOS>ATOM
      1  C         21.0270  -23.2850   -8.7180 C.2     1  UNL1        0.0220
      2  C         20.1270  -24.3490   -8.6430 C.2     1  UNL1        0.0260
      3  C         19.1080  -24.3350   -7.6890 C.2     1  UNL1        0.0260
      4  C         19.0170  -23.2600   -6.8000 C.2     1  UNL1        0.0740
      5  C         19.9230  -22.1960   -6.8660 C.2     1  UNL1        0.0260
      6  C         20.9380  -22.2150   -7.8240 C.2     1  UNL1        0.0260
      7  N         22.1020  -23.3450   -9.6670 N.pl3   1  UNL1       -0.1810
      8  H         21.8290  -23.9180  -10.4690 H       1  UNL1        0.1460
      9  S         22.5320  -21.8140  -10.3000 S.O2    1  UNL1        0.2450
     10  O         23.1310  -20.9950   -9.2720 O.2     1  UNL1       -0.2060
     11  O         21.3920  -21.3770  -11.0780 O.2     1  UNL1       -0.2060
     12  C         23.8220  -22.2800  -11.4260 C.2     1  UNL1        0.0750
     13  C         24.8860  -23.0710  -10.9900 C.2     1  UNL1        0.0260
     14  C         25.8840  -23.4470  -11.8960 C.2     1  UNL1        0.0210
     15  C         25.8420  -23.0270  -13.2350 C.2     1  UNL1        0.0150
     16  C         24.7560  -22.2350  -13.6500 C.2     1  UNL1        0.0500
     17  C         23.7410  -21.8670  -12.7570 C.2     1  UNL1        0.0430
     18  S         27.1170  -23.5790  -14.3690 S.3     1  UNL1       -0.1330
     19  C         26.3850  -25.1230  -14.9750 C.3     1  UNL1        0.0950
     20  C         24.5970  -21.7850  -15.0470 C.2     1  UNL1        0.2550
     21  O         23.8510  -22.4240  -15.7810 O.2     1  UNL1       -0.2670
     22  N         25.2570  -20.6360  -15.4280 N.am    1  UNL1       -0.3480
     23  C         26.0800  -19.7660  -14.6020 C.3     1  UNL1        0.1260
     24  C         25.1810  -20.1530  -16.7950 C.3     1  UNL1        0.1260
     25  C         26.3110  -18.5340  -15.4670 C.3     1  UNL1        0.0210
     26  C         26.2730  -19.0980  -16.8820 C.3     1  UNL1        0.0210
     27  S         17.7160  -23.2130   -5.5880 S.O2    1  UNL1        0.2450
     28  O         18.1920  -22.4600   -4.4460 O.2     1  UNL1       -0.2060
     29  O         17.2000  -24.5570   -5.4610 O.2     1  UNL1       -0.2060
     30  N         16.5830  -22.2150   -6.3860 N.pl3   1  UNL1       -0.1810
     31  H         15.6920  -22.3380   -5.8990 H       1  UNL1        0.1460
     32  C         16.4410  -22.5110   -7.7820 C.2     1  UNL1        0.0230
     33  C         15.6760  -23.6120   -8.1640 C.2     1  UNL1        0.0240
     34  C         15.4870  -23.8900   -9.5160 C.2     1  UNL1        0.0030
     35  C         16.0470  -23.0560  -10.4850 C.2     1  UNL1        0.0160
     36  C         16.7930  -21.9260  -10.1100 C.2     1  UNL1        0.0490
     37  C         16.9880  -21.6620   -8.7440 C.2     1  UNL1        0.0400
     38  C         17.4000  -21.0270  -11.1580 C.3     1  UNL1        0.4170
     39  F         16.7860  -19.8150  -11.2450 F       1  UNL1       -0.1660
     40  F         18.7170  -20.7630  -10.9400 F       1  UNL1       -0.1660
     41  F         17.3300  -21.5720  -12.4030 F       1  UNL1       -0.1660
@<TRIPOS>BOND
     1    26    24    1
     2    26    25    1
     3    24    22    1
     4    21    20    2
     5    25    23    1
     6    22    20   am
     7    22    23    1
     8    20    16    1
     9    19    18    1
    10    18    15    1
    11    16    15    2
    12    16    17    1
    13    15    14    1
    14    17    12    2
    15    41    38    1
    16    14    13    2
    17    12    13    1
    18    12     9    1
    19    39    38    1
    20    38    40    1
    21    38    36    1
    22    11     9    2
    23    35    36    2
    24    35    34    1
    25     8     7    1
    26     9     7    1
    27     9    10    2
    28    36    37    1
    29     7     1    1
    30    34    33    2
    31    37    32    2
    32     1     2    2
    33     1     6    1
    34     2     3    1
    35    33    32    1
    36     6     5    2
    37    32    30    1
    38     3     4    2
    39     5     4    1
    40     4    27    1
    41    30    31    1
    42    30    27    1
    43    27    29    2
    44    27    28    2
