@<TRIPOS>MOLECULE
6745_out_ligand_01.pdbqt
 30 32 0 0 0
SMALL
GASTEIGER

@<TRIPOS>ATOM
      1  C         18.4020  -22.6190   -9.4790 C.2     1  UNL1        0.0810
      2  C         19.6190  -22.2550  -10.0820 C.2     1  UNL1        0.0360
      3  C         19.6380  -21.4500  -11.2270 C.2     1  UNL1       -0.0350
      4  C         18.4240  -20.9970  -11.7480 C.2     1  UNL1        0.0120
      5  C         17.2100  -21.3650  -11.1560 C.2     1  UNL1        0.0090
      6  C         17.1760  -22.1790  -10.0130 C.2     1  UNL1       -0.0390
      7  C         15.8390  -22.5580   -9.4430 C.3     1  UNL1        0.0500
      8  S         18.4780  -23.6660   -8.0300 S.O2    1  UNL1        0.2460
      9  O         17.2680  -24.4560   -7.9880 O.2     1  UNL1       -0.2060
     10  O         19.7900  -24.2800   -7.9960 O.2     1  UNL1       -0.2060
     11  N         18.4730  -22.4920   -6.7890 N.pl3   1  UNL1       -0.1810
     12  H         19.3760  -22.5460   -6.3160 H       1  UNL1        0.1460
     13  C         17.3970  -22.6450   -5.8540 C.2     1  UNL1        0.0230
     14  C         17.5720  -23.4230   -4.7090 C.2     1  UNL1        0.0240
     15  C         16.5060  -23.6080   -3.8280 C.2     1  UNL1        0.0020
     16  C         15.2670  -23.0230   -4.0970 C.2     1  UNL1        0.0070
     17  C         15.0830  -22.2460   -5.2470 C.2     1  UNL1       -0.0600
     18  C         13.7370  -21.6640   -5.5640 C.3     1  UNL1        0.0480
     19  C         16.1540  -22.0780   -6.1340 C.2     1  UNL1        0.0310
     20  C         20.9360  -21.0710  -11.8050 C.2     1  UNL1        0.0140
     21  C         21.6610  -21.8690  -12.6070 C.2     1  UNL1        0.0430
     22  C         22.9220  -21.4410  -13.1260 C.ar    1  UNL1        0.1360
     23  O         23.0540  -20.9060  -14.3930 O.2     1  UNL1       -0.2110
     24  N         24.3610  -20.5840  -14.6700 N.ar    1  UNL1       -0.1300
     25  C         25.0590  -20.9110  -13.5820 C.ar    1  UNL1        0.0940
     26  C         26.5230  -20.6800  -13.5560 C.3     1  UNL1        0.0760
     27  C         24.2060  -21.4500  -12.5840 C.ar    1  UNL1        0.1650
     28  N         24.5930  -21.9180  -11.2910 N.pl3   1  UNL1       -0.1110
     29  O         25.0270  -23.0750  -11.2210 O.2     1  UNL1       -0.5320
     30  O         24.4750  -21.1450  -10.3340 O.2     1  UNL1       -0.5320
@<TRIPOS>BOND
     1    24    23   ar
     2    24    25   ar
     3    23    22   ar
     4    25    26    1
     5    25    27   ar
     6    22    21    1
     7    22    27   ar
     8    21    20    2
     9    27    28    1
    10    20     3    1
    11     4     3    2
    12     4     5    1
    13    28    29    2
    14    28    30    2
    15     3     2    1
    16     5     6    2
    17     2     1    2
    18     6     1    1
    19     6     7    1
    20     1     8    1
    21     8    10    2
    22     8     9    2
    23     8    11    1
    24    11    12    1
    25    11    13    1
    26    19    13    2
    27    19    17    1
    28    13    14    1
    29    18    17    1
    30    17    16    2
    31    14    15    2
    32    16    15    1
