@<TRIPOS>MOLECULE
67462_out_ligand_01.pdbqt
 41 44 0 0 0
SMALL
GASTEIGER

@<TRIPOS>ATOM
      1  N         21.3930  -22.9790  -10.5670 N.pl3   1  UNL1       -0.1810
      2  H         21.3660  -22.1480  -11.1640 H       1  UNL1        0.1460
      3  C         20.1520  -23.1660   -9.8770 C.2     1  UNL1        0.0220
      4  C         20.0570  -24.1220   -8.8620 C.2     1  UNL1        0.0260
      5  C         18.8350  -24.3280   -8.2150 C.2     1  UNL1        0.0260
      6  C         17.7170  -23.5800   -8.5980 C.2     1  UNL1        0.0740
      7  C         17.8020  -22.6490   -9.6380 C.2     1  UNL1        0.0260
      8  C         19.0270  -22.4400  -10.2740 C.2     1  UNL1        0.0260
      9  S         16.1490  -23.8490   -7.7990 S.O2    1  UNL1        0.2450
     10  O         15.5180  -22.5540   -7.6500 O.2     1  UNL1       -0.2060
     11  O         15.4790  -24.9350   -8.4810 O.2     1  UNL1       -0.2060
     12  N         16.5810  -24.3530   -6.2440 N.pl3   1  UNL1       -0.1790
     13  H         15.8360  -24.9160   -5.8310 H       1  UNL1        0.1460
     14  C         17.1210  -23.3760   -5.3460 C.2     1  UNL1        0.0560
     15  C         18.0820  -22.4660   -5.7890 C.2     1  UNL1        0.0340
     16  C         18.5870  -21.5000   -4.9150 C.2     1  UNL1       -0.0600
     17  C         18.1040  -21.4490   -3.6020 C.2     1  UNL1        0.0090
     18  C         19.6170  -20.5100   -5.3750 C.3     1  UNL1        0.0480
     19  C         17.1420  -22.3640   -3.1530 C.2     1  UNL1        0.0390
     20  C         16.6450  -23.3350   -4.0220 C.2     1  UNL1        0.0900
     21  O         15.7030  -24.2830   -3.7050 O.2     1  UNL1       -0.3540
     22  C         14.4650  -24.2210   -4.4040 C.3     1  UNL1        0.2100
     23  S         22.7590  -22.7820   -9.5590 S.O2    1  UNL1        0.2450
     24  O         22.4870  -21.6050   -8.7630 O.2     1  UNL1       -0.2060
     25  O         23.1580  -24.0410   -8.9730 O.2     1  UNL1       -0.2060
     26  C         23.9820  -22.3530  -10.7750 C.2     1  UNL1        0.0750
     27  C         24.7740  -21.2190  -10.5750 C.2     1  UNL1        0.0260
     28  C         25.7310  -20.8630  -11.5310 C.2     1  UNL1        0.0210
     29  C         25.9180  -21.6350  -12.6880 C.2     1  UNL1        0.0150
     30  C         25.0990  -22.7640  -12.8730 C.2     1  UNL1        0.0500
     31  C         24.1230  -23.1200  -11.9300 C.2     1  UNL1        0.0430
     32  S         27.1210  -21.1070  -13.9060 S.3     1  UNL1       -0.1330
     33  C         26.8530  -19.3110  -13.8760 C.3     1  UNL1        0.0950
     34  C         25.1880  -23.6120  -14.0780 C.2     1  UNL1        0.2550
     35  O         25.6660  -24.7360  -13.9530 O.2     1  UNL1       -0.2670
     36  N         24.7800  -23.0740  -15.2910 N.am    1  UNL1       -0.3440
     37  C         24.8090  -23.9210  -16.4820 C.3     1  UNL1        0.1520
     38  C         24.3090  -21.7030  -15.5030 C.3     1  UNL1        0.1520
     39  C         23.7410  -23.4860  -17.4900 C.3     1  UNL1        0.1870
     40  O         23.8540  -22.1140  -17.9040 O.3     1  UNL1       -0.3880
     41  C         24.5180  -21.2690  -16.9560 C.3     1  UNL1        0.1870
@<TRIPOS>BOND
     1    40    39    1
     2    40    41    1
     3    39    37    1
     4    41    38    1
     5    37    36    1
     6    38    36    1
     7    36    34   am
     8    34    35    2
     9    34    30    1
    10    32    33    1
    11    32    29    1
    12    30    29    2
    13    30    31    1
    14    29    28    1
    15    31    26    2
    16    28    27    2
    17     2     1    1
    18    26    27    1
    19    26    23    1
    20     1     3    1
    21     1    23    1
    22     8     3    2
    23     8     7    1
    24     3     4    1
    25     7     6    2
    26    23    25    2
    27    23    24    2
    28     4     5    2
    29     6     5    1
    30     6     9    1
    31    11     9    2
    32     9    10    2
    33     9    12    1
    34    12    13    1
    35    12    14    1
    36    15    14    2
    37    15    16    1
    38    18    16    1
    39    14    20    1
    40    16    17    2
    41    22    21    1
    42    20    21    1
    43    20    19    2
    44    17    19    1
