@<TRIPOS>MOLECULE
67474_out_ligand_01.pdbqt
 36 39 0 0 0
SMALL
GASTEIGER

@<TRIPOS>ATOM
      1  C         17.5740  -23.6080   -8.6670 C.2     1  UNL1        0.1020
      2  C         18.9610  -23.8300   -8.7080 C.2     1  UNL1        0.0440
      3  C         19.7450  -23.2310   -9.7000 C.2     1  UNL1        0.0330
      4  C         19.1390  -22.4140  -10.6600 C.2     1  UNL1        0.0190
      5  C         17.7590  -22.1900  -10.6130 C.2     1  UNL1        0.0260
      6  C         16.9700  -22.7820   -9.6180 C.2     1  UNL1        0.0570
      7 CL         15.2770  -22.4550   -9.6850 Cl      1  UNL1       -0.0830
      8  C         21.2040  -23.5190   -9.7210 C.2     1  UNL1        0.2510
      9  O         21.6870  -24.2660   -8.8790 O.2     1  UNL1       -0.2680
     10  N         21.9340  -22.8840  -10.7010 N.am    1  UNL1       -0.3530
     11  H         21.5180  -22.1040  -11.1910 H       1  UNL1        0.1630
     12  C         23.3810  -22.9450  -10.7160 C.3     1  UNL1        0.1610
     13  C         23.9080  -22.6820  -12.1010 C.2     1  UNL1       -0.0400
     14  C         23.3200  -21.7070  -12.9090 C.2     1  UNL1        0.0110
     15  C         23.7910  -21.4790  -14.2090 C.2     1  UNL1        0.0300
     16  C         24.8580  -22.2080  -14.7570 C.2     1  UNL1        0.0300
     17  C         25.4280  -23.1860  -13.9270 C.2     1  UNL1        0.0300
     18  C         24.9660  -23.4260  -12.6250 C.2     1  UNL1        0.0110
     19  N         25.3150  -21.9800  -16.0330 N.pl3   1  UNL1       -0.3810
     20  C         24.8470  -20.8930  -16.8900 C.3     1  UNL1        0.1230
     21  C         25.8570  -20.8670  -18.0350 C.3     1  UNL1        0.0210
     22  C         26.2810  -22.3200  -18.1510 C.3     1  UNL1        0.0210
     23  C         26.3440  -22.7780  -16.6960 C.3     1  UNL1        0.1230
     24  S         16.6380  -24.3910   -7.3810 S.O2    1  UNL1        0.2650
     25  O         17.5500  -25.1870   -6.5880 O.2     1  UNL1       -0.2000
     26  O         15.4800  -25.0180   -7.9860 O.2     1  UNL1       -0.2000
     27  N         16.1240  -23.1160   -6.4120 N.pl3   1  UNL1       -0.2800
     28  H         15.1290  -23.1840   -6.2060 H       1  UNL1        0.1790
     29  C         16.9790  -22.4770   -5.4580 C.2     1  UNL1        0.0490
     30  C         16.6890  -22.5890   -4.0850 C.2     1  UNL1       -0.0350
     31  C         17.5280  -21.9560   -3.1530 C.2     1  UNL1        0.0090
     32  C         15.5140  -23.3730   -3.5680 C.3     1  UNL1        0.0500
     33  C         18.6220  -21.1990   -3.5710 C.2     1  UNL1        0.0070
     34  C         18.8930  -21.0510   -4.9300 C.2     1  UNL1       -0.0600
     35  C         20.0320  -20.1910   -5.3960 C.3     1  UNL1        0.0480
     36  C         18.0480  -21.6670   -5.8640 C.2     1  UNL1        0.0370
@<TRIPOS>BOND
     1    22    21    1
     2    22    23    1
     3    21    20    1
     4    20    19    1
     5    23    19    1
     6    19    16    1
     7    16    15    2
     8    16    17    1
     9    15    14    1
    10    17    18    2
    11    14    13    2
    12    18    13    1
    13    13    12    1
    14    11    10    1
    15    12    10    1
    16    10     8   am
    17     4     5    2
    18     4     3    1
    19     5     6    1
    20     8     3    1
    21     8     9    2
    22     3     2    2
    23     7     6    1
    24     6     1    2
    25     2     1    1
    26     1    24    1
    27    26    24    2
    28    24    25    2
    29    24    27    1
    30    27    28    1
    31    27    29    1
    32    36    29    2
    33    36    34    1
    34    29    30    1
    35    35    34    1
    36    34    33    2
    37    30    32    1
    38    30    31    2
    39    33    31    1
