@<TRIPOS>MOLECULE
67477_out_ligand_01.pdbqt
 35 37 0 0 0
SMALL
GASTEIGER

@<TRIPOS>ATOM
      1  C         21.4250  -22.5390  -11.1870 C.2     1  UNL1        0.0290
      2  C         20.1180  -22.6190  -10.6950 C.2     1  UNL1        0.0420
      3  C         19.1350  -21.7540  -11.1860 C.2     1  UNL1        0.0330
      4  C         19.4620  -20.8070  -12.1610 C.2     1  UNL1        0.0170
      5  C         20.7650  -20.7390  -12.6580 C.2     1  UNL1        0.0090
      6  C         21.7620  -21.6010  -12.1750 C.2     1  UNL1       -0.0400
      7  C         23.1490  -21.5180  -12.7460 C.3     1  UNL1        0.0500
      8  C         17.7620  -21.8580  -10.6270 C.2     1  UNL1        0.2520
      9  O         17.0760  -20.8500  -10.4950 O.2     1  UNL1       -0.2680
     10  N         17.3500  -23.1190  -10.2640 N.am    1  UNL1       -0.3490
     11  H         18.0210  -23.8730  -10.2340 H       1  UNL1        0.1630
     12  C         16.0570  -23.3560   -9.6430 C.3     1  UNL1        0.1140
     13  C         15.0340  -22.3000  -10.0720 C.3     1  UNL1        0.0370
     14  C         16.2350  -23.4340   -8.1380 C.2     1  UNL1       -0.0360
     15  C         16.9670  -24.4560   -7.5210 C.2     1  UNL1        0.0100
     16  C         17.0880  -24.5190   -6.1270 C.2     1  UNL1        0.0080
     17  C         16.4830  -23.5640   -5.2960 C.2     1  UNL1       -0.0510
     18  C         15.7440  -22.5450   -5.9260 C.2     1  UNL1        0.0080
     19  C         15.6140  -22.4850   -7.3180 C.2     1  UNL1        0.0100
     20  C         16.6020  -23.5970   -3.7630 C.3     1  UNL1       -0.0240
     21  C         17.9430  -24.1710   -3.2510 C.3     1  UNL1        0.0190
     22  C         16.4750  -22.1640   -3.2050 C.3     1  UNL1        0.0190
     23  C         15.4770  -24.4740   -3.1690 C.3     1  UNL1        0.0190
     24  N         22.4100  -23.4710  -10.7150 N.pl3   1  UNL1       -0.1810
     25  H         23.0690  -23.6980  -11.4640 H       1  UNL1        0.1460
     26  S         23.3530  -22.8870   -9.4150 S.O2    1  UNL1        0.2450
     27  O         24.0860  -21.7080   -9.8190 O.2     1  UNL1       -0.2060
     28  O         24.0140  -24.0400   -8.8400 O.2     1  UNL1       -0.2060
     29  C         22.0720  -22.3700   -8.2980 C.2     1  UNL1        0.0740
     30  C         22.2430  -21.1990   -7.5570 C.2     1  UNL1        0.0250
     31  C         21.2470  -20.7960   -6.6680 C.2     1  UNL1        0.0080
     32  C         20.0780  -21.5550   -6.5190 C.2     1  UNL1       -0.0620
     33  C         19.0250  -21.1360   -5.5370 C.3     1  UNL1        0.0480
     34  C         19.9320  -22.7420   -7.2510 C.2     1  UNL1        0.0080
     35  C         20.9250  -23.1520   -8.1410 C.2     1  UNL1        0.0250
@<TRIPOS>BOND
     1     7     6    1
     2     5     6    1
     3     5     4    2
     4     6     1    2
     5     4     3    1
     6    25    24    1
     7     1    24    1
     8     1     2    1
     9     3     2    2
    10     3     8    1
    11    24    26    1
    12     8     9    2
    13     8    10   am
    14    10    11    1
    15    10    12    1
    16    13    12    1
    17    27    26    2
    18    12    14    1
    19    26    28    2
    20    26    29    1
    21    29    35    2
    22    29    30    1
    23    35    34    1
    24    14    15    2
    25    14    19    1
    26    30    31    2
    27    15    16    1
    28    19    18    2
    29    34    32    2
    30    31    32    1
    31    32    33    1
    32    16    17    2
    33    18    17    1
    34    17    20    1
    35    20    21    1
    36    20    22    1
    37    20    23    1
