@<TRIPOS>MOLECULE
67479_out_ligand_01.pdbqt
 36 39 0 0 0
SMALL
GASTEIGER

@<TRIPOS>ATOM
      1  C         17.6230  -23.6260   -8.6120 C.2     1  UNL1        0.0860
      2  C         18.9980  -23.9290   -8.5650 C.2     1  UNL1        0.0420
      3  C         19.8790  -23.3570   -9.4870 C.2     1  UNL1        0.0330
      4  C         19.3880  -22.4810  -10.4550 C.2     1  UNL1        0.0170
      5  C         18.0200  -22.2070  -10.5260 C.2     1  UNL1        0.0090
      6  C         17.1110  -22.7800   -9.6160 C.2     1  UNL1       -0.0390
      7  C         15.6560  -22.4480   -9.7840 C.3     1  UNL1        0.0500
      8  C         21.3440  -23.6070   -9.4360 C.2     1  UNL1        0.2510
      9  O         21.7690  -24.5660   -8.8060 O.2     1  UNL1       -0.2680
     10  N         22.1410  -22.7060  -10.1080 N.am    1  UNL1       -0.3530
     11  H         21.7490  -21.8440  -10.4620 H       1  UNL1        0.1630
     12  C         23.5870  -22.8030  -10.0780 C.3     1  UNL1        0.1610
     13  C         24.2340  -22.0670  -11.2260 C.2     1  UNL1       -0.0400
     14  C         25.3820  -21.3000  -11.0150 C.2     1  UNL1        0.0110
     15  C         25.9580  -20.5670  -12.0640 C.2     1  UNL1        0.0300
     16  C         25.4180  -20.5640  -13.3590 C.2     1  UNL1        0.0300
     17  C         24.2660  -21.3440  -13.5500 C.2     1  UNL1        0.0300
     18  C         23.6730  -22.0700  -12.5070 C.2     1  UNL1        0.0110
     19  N         25.9860  -19.8390  -14.3790 N.pl3   1  UNL1       -0.3810
     20  C         25.8380  -20.1590  -15.7970 C.3     1  UNL1        0.1230
     21  C         26.8210  -19.2160  -16.4850 C.3     1  UNL1        0.0210
     22  C         26.7940  -17.9890  -15.5890 C.3     1  UNL1        0.0210
     23  C         26.7190  -18.5890  -14.1870 C.3     1  UNL1        0.1230
     24  S         16.6140  -24.4130   -7.3580 S.O2    1  UNL1        0.2630
     25  O         17.5250  -25.1610   -6.5120 O.2     1  UNL1       -0.2000
     26  O         15.4800  -25.0680   -7.9690 O.2     1  UNL1       -0.2000
     27  N         16.0850  -23.1230   -6.4170 N.pl3   1  UNL1       -0.2800
     28  H         15.0790  -23.1140   -6.2680 H       1  UNL1        0.1790
     29  C         16.9290  -22.5060   -5.4500 C.2     1  UNL1        0.0490
     30  C         16.6790  -22.6790   -4.0780 C.2     1  UNL1       -0.0350
     31  C         17.5350  -22.0630   -3.1530 C.2     1  UNL1        0.0090
     32  C         15.5290  -23.5010   -3.5670 C.3     1  UNL1        0.0500
     33  C         18.6030  -21.2700   -3.5810 C.2     1  UNL1        0.0070
     34  C         18.8270  -21.0650   -4.9430 C.2     1  UNL1       -0.0600
     35  C         19.9760  -20.2240   -5.4130 C.3     1  UNL1        0.0480
     36  C         17.9880  -21.6950   -5.8700 C.2     1  UNL1        0.0370
@<TRIPOS>BOND
     1    21    20    1
     2    21    22    1
     3    20    19    1
     4    22    23    1
     5    19    23    1
     6    19    16    1
     7    17    16    2
     8    17    18    1
     9    16    15    1
    10    18    13    2
    11    15    14    2
    12    13    14    1
    13    13    12    1
    14     5     4    2
    15     5     6    1
    16    11    10    1
    17     4     3    1
    18    10    12    1
    19    10     8   am
    20     7     6    1
    21     6     1    2
    22     3     8    1
    23     3     2    2
    24     8     9    2
    25     1     2    1
    26     1    24    1
    27    26    24    2
    28    24    25    2
    29    24    27    1
    30    27    28    1
    31    27    29    1
    32    36    29    2
    33    36    34    1
    34    29    30    1
    35    35    34    1
    36    34    33    2
    37    30    32    1
    38    30    31    2
    39    33    31    1
