@<TRIPOS>MOLECULE
67489_out_ligand_01.pdbqt
 36 39 0 0 0
SMALL
GASTEIGER

@<TRIPOS>ATOM
      1  C         17.6630  -23.4360   -8.6630 C.2     1  UNL1        0.1020
      2  C         19.0660  -23.5430   -8.5980 C.2     1  UNL1        0.0440
      3  C         19.8620  -22.9390   -9.5750 C.2     1  UNL1        0.0330
      4  C         19.2540  -22.2230  -10.6110 C.2     1  UNL1        0.0190
      5  C         17.8620  -22.1240  -10.6780 C.2     1  UNL1        0.0260
      6  C         17.0570  -22.7290   -9.7060 C.2     1  UNL1        0.0570
      7 CL         15.3540  -22.4950   -9.8640 Cl      1  UNL1       -0.0830
      8  C         21.3490  -22.9930   -9.5310 C.2     1  UNL1        0.2510
      9  O         21.9190  -22.9440   -8.4490 O.2     1  UNL1       -0.2680
     10  N         21.9980  -23.0750  -10.7440 N.am    1  UNL1       -0.3530
     11  H         21.4900  -22.9580  -11.6090 H       1  UNL1        0.1630
     12  C         23.4430  -23.0640  -10.8300 C.3     1  UNL1        0.1610
     13  C         23.9960  -22.3970  -12.0680 C.2     1  UNL1       -0.0400
     14  C         25.3520  -22.3850  -12.4060 C.2     1  UNL1        0.0110
     15  C         25.7930  -21.7490  -13.5780 C.2     1  UNL1        0.0300
     16  C         24.9130  -21.1060  -14.4620 C.2     1  UNL1        0.0300
     17  C         23.5580  -21.1240  -14.1030 C.2     1  UNL1        0.0300
     18  C         23.1050  -21.7540  -12.9350 C.2     1  UNL1        0.0110
     19  N         25.3650  -20.4840  -15.6190 N.pl3   1  UNL1       -0.3810
     20  C         25.1720  -21.1240  -16.9260 C.3     1  UNL1        0.1230
     21  C         24.9920  -20.0770  -18.0230 C.3     1  UNL1        0.0200
     22  C         26.1780  -19.1190  -18.1070 C.3     1  UNL1        0.0030
     23  C         26.8430  -18.8840  -16.7530 C.3     1  UNL1        0.0200
     24  C         25.8830  -19.1130  -15.5880 C.3     1  UNL1        0.1230
     25  S         16.7110  -24.2480   -7.4050 S.O2    1  UNL1        0.2650
     26  O         15.5500  -24.8460   -8.0240 O.2     1  UNL1       -0.2000
     27  O         17.6220  -25.0790   -6.6430 O.2     1  UNL1       -0.2000
     28  N         16.1710  -22.9810   -6.4370 N.pl3   1  UNL1       -0.2800
     29  H         15.4720  -22.4060   -6.9040 H       1  UNL1        0.1790
     30  C         17.0200  -22.3780   -5.4580 C.2     1  UNL1        0.0480
     31  C         18.0610  -21.5330   -5.8610 C.2     1  UNL1        0.0300
     32  C         18.8940  -20.9260   -4.9190 C.2     1  UNL1        0.0020
     33  C         18.7000  -21.1670   -3.5650 C.2     1  UNL1        0.0010
     34  C         17.6860  -22.0310   -3.1530 C.2     1  UNL1        0.0090
     35  C         16.8480  -22.6620   -4.0900 C.2     1  UNL1       -0.0350
     36  C         15.7760  -23.5830   -3.5750 C.3     1  UNL1        0.0500
@<TRIPOS>BOND
     1    22    21    1
     2    22    23    1
     3    21    20    1
     4    20    19    1
     5    23    24    1
     6    19    24    1
     7    19    16    1
     8    16    17    2
     9    16    15    1
    10    17    18    1
    11    15    14    2
    12    18    13    2
    13    14    13    1
    14    13    12    1
    15    11    10    1
    16    12    10    1
    17    10     8   am
    18     5     4    2
    19     5     6    1
    20     4     3    1
    21     7     6    1
    22     6     1    2
    23     3     8    1
    24     3     2    2
    25     8     9    2
    26     1     2    1
    27     1    25    1
    28    26    25    2
    29    25    27    2
    30    25    28    1
    31    29    28    1
    32    28    30    1
    33    31    30    2
    34    31    32    1
    35    30    35    1
    36    32    33    2
    37    35    36    1
    38    35    34    2
    39    33    34    1
