@<TRIPOS>MOLECULE
67487_out_ligand_01.pdbqt
 42 45 0 0 0
SMALL
GASTEIGER

@<TRIPOS>ATOM
      1  C         21.1830  -23.2410   -8.7250 C.2     1  UNL1        0.0220
      2  C         21.0540  -22.1670   -7.8430 C.2     1  UNL1        0.0260
      3  C         20.0100  -22.1470   -6.9180 C.2     1  UNL1        0.0270
      4  C         19.1170  -23.2210   -6.8690 C.2     1  UNL1        0.0800
      5  C         19.2330  -24.2930   -7.7610 C.2     1  UNL1        0.0270
      6  C         20.2790  -24.3050   -8.6850 C.2     1  UNL1        0.0260
      7  N         22.3240  -23.2910   -9.5890 N.pl3   1  UNL1       -0.1810
      8  H         23.1680  -23.5190   -9.0580 H       1  UNL1        0.1460
      9  S         22.6420  -21.8090  -10.3790 S.O2    1  UNL1        0.2450
     10  O         23.2830  -20.9630   -9.3970 O.2     1  UNL1       -0.2060
     11  O         21.4890  -21.3740  -11.1350 O.2     1  UNL1       -0.2060
     12  C         23.8690  -22.3200  -11.5560 C.2     1  UNL1        0.0750
     13  C         24.9060  -23.1570  -11.1350 C.2     1  UNL1        0.0260
     14  C         25.8840  -23.5620  -12.0490 C.2     1  UNL1        0.0210
     15  C         25.8340  -23.1390  -13.3860 C.2     1  UNL1        0.0150
     16  C         24.7630  -22.3250  -13.7920 C.2     1  UNL1        0.0500
     17  C         23.7860  -21.9010  -12.8830 C.2     1  UNL1        0.0430
     18  S         27.1210  -23.7220  -14.4820 S.3     1  UNL1       -0.1330
     19  C         26.3890  -25.3080  -14.9670 C.3     1  UNL1        0.0950
     20  C         24.6250  -21.8500  -15.1810 C.2     1  UNL1        0.2550
     21  O         23.9120  -22.5120  -15.9290 O.2     1  UNL1       -0.2670
     22  N         25.3490  -20.7270  -15.5700 N.am    1  UNL1       -0.3480
     23  C         25.2460  -20.2920  -16.9620 C.3     1  UNL1        0.1260
     24  C         26.2070  -19.9390  -14.6810 C.3     1  UNL1        0.1260
     25  C         26.5020  -19.5660  -17.4250 C.3     1  UNL1        0.0200
     26  C         26.8140  -18.3480  -16.5560 C.3     1  UNL1        0.0030
     27  C         26.2950  -18.4840  -15.1250 C.3     1  UNL1        0.0200
     28  S         17.8350  -23.2400   -5.6420 S.O2    1  UNL1        0.2630
     29  O         18.2560  -22.3740   -4.5610 O.2     1  UNL1       -0.2000
     30  O         17.4440  -24.6100   -5.3890 O.2     1  UNL1       -0.2000
     31  N         16.5660  -22.4370   -6.4270 N.pl3   1  UNL1       -0.2810
     32  H         15.7270  -22.4330   -5.8490 H       1  UNL1        0.1790
     33  C         16.4060  -22.6570   -7.8210 C.2     1  UNL1        0.0430
     34  C         15.6380  -23.7370   -8.2560 C.2     1  UNL1        0.0300
     35  C         15.4270  -23.9380   -9.6190 C.2     1  UNL1        0.0030
     36  C         15.9860  -23.0580  -10.5460 C.2     1  UNL1        0.0160
     37  C         16.7650  -21.9700  -10.1200 C.2     1  UNL1        0.0500
     38  C         16.9630  -21.7720   -8.7430 C.2     1  UNL1        0.0460
     39  C         17.3400  -21.0010  -11.1210 C.3     1  UNL1        0.4170
     40  F         18.6800  -20.8100  -10.9700 F       1  UNL1       -0.1660
     41  F         17.1670  -21.4050  -12.4100 F       1  UNL1       -0.1660
     42  F         16.7710  -19.7670  -11.0370 F       1  UNL1       -0.1660
@<TRIPOS>BOND
     1    25    23    1
     2    25    26    1
     3    23    22    1
     4    26    27    1
     5    21    20    2
     6    22    20   am
     7    22    24    1
     8    20    16    1
     9    27    24    1
    10    19    18    1
    11    18    15    1
    12    16    15    2
    13    16    17    1
    14    15    14    1
    15    17    12    2
    16    41    39    1
    17    14    13    2
    18    12    13    1
    19    12     9    1
    20    11     9    2
    21    39    42    1
    22    39    40    1
    23    39    37    1
    24    36    37    2
    25    36    35    1
    26     9     7    1
    27     9    10    2
    28    37    38    1
    29    35    34    2
    30     7     8    1
    31     7     1    1
    32    38    33    2
    33     1     6    2
    34     1     2    1
    35     6     5    1
    36    34    33    1
    37     2     3    2
    38    33    31    1
    39     5     4    2
    40     3     4    1
    41     4    28    1
    42    31    32    1
    43    31    28    1
    44    28    30    2
    45    28    29    2
