@<TRIPOS>MOLECULE
67481_out_ligand_01.pdbqt
 33 36 0 0 0
SMALL
GASTEIGER

@<TRIPOS>ATOM
      1  C         22.6040  -22.1250  -10.1250 C.2     1  UNL1        0.0320
      2  C         21.3440  -22.1740  -10.7340 C.2     1  UNL1        0.0170
      3  C         20.1910  -22.2390   -9.9460 C.2     1  UNL1        0.0100
      4  C         20.2830  -22.2710   -8.5460 C.2     1  UNL1       -0.0300
      5  C         21.5490  -22.2370   -7.9460 C.2     1  UNL1        0.0100
      6  C         22.7030  -22.1700   -8.7300 C.2     1  UNL1        0.0170
      7  C         23.8610  -22.0600  -10.9260 C.2     1  UNL1        0.2560
      8  N         23.9050  -22.9220  -12.0090 N.am    1  UNL1       -0.3220
      9  H         23.0460  -23.4130  -12.2120 H       1  UNL1        0.1690
     10  O         24.7140  -21.2450  -10.5970 O.2     1  UNL1       -0.2670
     11  C         24.9860  -23.1510  -12.8960 C.2     1  UNL1        0.0420
     12  C         26.0820  -23.9410  -12.5230 C.2     1  UNL1        0.0300
     13  C         27.1150  -24.2190  -13.4180 C.2     1  UNL1        0.0030
     14  C         27.0590  -23.7270  -14.7130 C.2     1  UNL1        0.0180
     15  C         25.9760  -22.9290  -15.1130 C.2     1  UNL1        0.0470
     16  C         24.9410  -22.6020  -14.2020 C.2     1  UNL1       -0.0190
     17  C         23.8110  -21.7000  -14.6400 C.3     1  UNL1        0.0520
     18  C         25.9240  -22.4970  -16.5340 C.2     1  UNL1        0.2930
     19  O         26.3080  -21.4120  -16.9350 O.2     1  UNL1       -0.2590
     20  O         25.4060  -23.5010  -17.2860 O.3     1  UNL1       -0.3180
     21  C         24.3220  -23.1340  -18.1510 C.3     1  UNL1        0.1740
     22  C         23.0570  -23.8600  -17.7350 C.3     1  UNL1        0.0340
     23  C         19.0300  -22.3510   -7.6950 C.3     1  UNL1        0.3110
     24  N         18.3320  -23.6400   -7.8210 N.3     1  UNL1        0.0970
     25  C         17.1050  -23.5280   -8.6250 C.3     1  UNL1        0.2770
     26  C         16.0100  -22.6470   -8.0020 C.3     1  UNL1        0.0690
     27  C         15.8500  -22.8700   -6.5190 C.2     1  UNL1       -0.0490
     28  C         14.7590  -22.3100   -5.8410 C.2     1  UNL1        0.0070
     29  C         16.8260  -23.5850   -5.8010 C.2     1  UNL1       -0.0240
     30  C         14.6240  -22.4770   -4.4640 C.2     1  UNL1        0.0010
     31  C         15.5790  -23.2000   -3.7520 C.2     1  UNL1        0.0010
     32  C         16.6730  -23.7560   -4.4170 C.2     1  UNL1        0.0090
     33  C         17.9960  -24.2330   -6.5120 C.3     1  UNL1        0.3110
@<TRIPOS>BOND
     1    21    22    1
     2    21    20    1
     3    20    18    1
     4    19    18    2
     5    18    15    1
     6    15    14    2
     7    15    16    1
     8    14    13    1
     9    17    16    1
    10    16    11    2
    11    13    12    2
    12    11    12    1
    13    11     8    1
    14     9     8    1
    15     8     7   am
    16     7    10    2
    17     7     1    1
    18     2     1    2
    19     2     3    1
    20     1     6    1
    21     3     4    2
    22     6     5    2
    23    25    26    1
    24    25    24    1
    25     4     5    1
    26     4    23    1
    27    26    27    1
    28    24    23    1
    29    24    33    1
    30    27    28    2
    31    27    29    1
    32    33    29    1
    33    28    30    1
    34    29    32    2
    35    30    31    2
    36    32    31    1
