@<TRIPOS>MOLECULE
6749_out_ligand_01.pdbqt
 36 40 0 0 0
SMALL
GASTEIGER

@<TRIPOS>ATOM
      1  N         20.5650  -23.6260   -9.2190 N.pl3   1  UNL1       -0.3530
      2  C         21.9110  -23.3480   -9.2130 C.2     1  UNL1        0.1030
      3  C         22.1040  -22.2080   -9.9600 C.2     1  UNL1       -0.0070
      4  C         20.8390  -21.7940  -10.4710 C.2     1  UNL1        0.0020
      5  C         20.4110  -20.7420  -11.3090 C.2     1  UNL1        0.0140
      6  C         19.0540  -20.6180  -11.6280 C.2     1  UNL1        0.0010
      7  C         18.1260  -21.5240  -11.1290 C.2     1  UNL1        0.0020
      8  C         18.5230  -22.5790  -10.3010 C.2     1  UNL1        0.0300
      9  C         19.8870  -22.6990   -9.9850 C.2     1  UNL1        0.0450
     10  C         23.3820  -21.6310  -10.2030 C.3     1  UNL1        0.0340
     11  C         24.0150  -21.4750  -11.3840 C.ar    1  UNL1        0.0820
     12  C         23.4560  -21.8310  -12.7310 C.ar    1  UNL1        0.1620
     13  C         25.4220  -20.9200  -11.3270 C.ar    1  UNL1        0.2830
     14  N         22.2070  -22.1270  -12.9330 N.pl3   1  UNL1       -0.2810
     15  N         24.3630  -21.7940  -13.7740 N.ar    1  UNL1       -0.1880
     16  H         22.0930  -22.3280  -13.9330 H       1  UNL1        0.1880
     17  N         24.0260  -22.1530  -15.0710 N.ar    1  UNL1       -0.1440
     18  C         25.6540  -21.3820  -13.5630 C.ar    1  UNL1        0.2020
     19  C         25.0830  -22.0260  -15.8240 C.ar    1  UNL1        0.2150
     20  S         26.5630  -21.4630  -15.0490 S.2     1  UNL1       -0.0170
     21  N         26.1930  -20.9750  -12.4720 N.ar    1  UNL1       -0.1820
     22  O         25.8680  -20.4460  -10.2870 O.2     1  UNL1       -0.2650
     23  S         25.0120  -22.4110  -17.5480 S.O2    1  UNL1        0.1970
     24  C         26.6680  -22.1790  -18.1330 C.3     1  UNL1        0.1690
     25  O         24.1680  -21.3980  -18.1530 O.2     1  UNL1       -0.2210
     26  O         24.6920  -23.8230  -17.6340 O.2     1  UNL1       -0.2210
     27  C         19.9650  -24.7290   -8.4820 C.3     1  UNL1        0.1550
     28  C         18.7100  -24.3170   -7.7180 C.3     1  UNL1        0.1960
     29  O         18.9790  -23.1270   -6.9720 O.2     1  UNL1       -0.3490
     30  C         18.2070  -22.9260   -5.8560 C.2     1  UNL1        0.0740
     31  C         17.2150  -23.8120   -5.4220 C.2     1  UNL1        0.0370
     32  C         16.4870  -23.5420   -4.2620 C.2     1  UNL1        0.0030
     33  C         16.7490  -22.3910   -3.5250 C.2     1  UNL1        0.0010
     34  C         17.7430  -21.5090   -3.9450 C.2     1  UNL1        0.0090
     35  C         18.4860  -21.7700   -5.1060 C.2     1  UNL1       -0.0290
     36  C         19.5400  -20.7970   -5.5520 C.3     1  UNL1        0.0510
@<TRIPOS>BOND
     1    25    23    2
     2    24    23    1
     3    26    23    2
     4    23    19    1
     5    19    17   ar
     6    19    20   ar
     7    17    15   ar
     8    20    18   ar
     9    16    14    1
    10    15    18   ar
    11    15    12   ar
    12    18    21   ar
    13    14    12    1
    14    12    11   ar
    15    21    13   ar
    16     6     5    1
    17     6     7    2
    18    11    13   ar
    19    11    10    1
    20    13    22    2
    21     5     4    2
    22     7     8    1
    23     4     9    1
    24     4     3    1
    25     8     9    2
    26    10     3    1
    27     9     1    1
    28     3     2    2
    29     1     2    1
    30     1    27    1
    31    27    28    1
    32    28    29    1
    33    29    30    1
    34    30    31    2
    35    30    35    1
    36    36    35    1
    37    31    32    1
    38    35    34    2
    39    32    33    2
    40    34    33    1
