@<TRIPOS>MOLECULE
67506_out_ligand_01.pdbqt
 35 37 0 0 0
SMALL
GASTEIGER

@<TRIPOS>ATOM
      1  C         19.7550  -22.4970  -10.0680 C.2     1  UNL1        0.0330
      2  C         19.0110  -21.8300  -11.0430 C.2     1  UNL1        0.0170
      3  C         17.6140  -21.8510  -10.9960 C.2     1  UNL1        0.0090
      4  C         16.9270  -22.5360   -9.9790 C.2     1  UNL1       -0.0390
      5  C         15.4240  -22.4630   -9.9720 C.3     1  UNL1        0.0500
      6  C         17.6870  -23.1910   -8.9880 C.2     1  UNL1        0.0860
      7  C         19.0910  -23.1620   -9.0320 C.2     1  UNL1        0.0420
      8  C         21.2470  -22.4800  -10.0640 C.2     1  UNL1        0.2560
      9  N         21.8390  -22.5270  -11.3150 N.am    1  UNL1       -0.3220
     10  H         21.2170  -22.7140  -12.0880 H       1  UNL1        0.1690
     11  O         21.8150  -22.4610   -8.9790 O.2     1  UNL1       -0.2670
     12  C         23.2220  -22.4550  -11.6250 C.2     1  UNL1        0.0420
     13  C         24.1980  -22.9780  -10.7640 C.2     1  UNL1        0.0300
     14  C         25.5570  -22.9070  -11.0710 C.2     1  UNL1        0.0030
     15  C         25.9650  -22.3240  -12.2620 C.2     1  UNL1        0.0180
     16  C         25.0110  -21.8060  -13.1430 C.2     1  UNL1        0.0470
     17  C         23.6310  -21.8230  -12.8250 C.2     1  UNL1       -0.0190
     18  C         22.6240  -21.1830  -13.7500 C.3     1  UNL1        0.0520
     19  C         25.5440  -21.2400  -14.4010 C.2     1  UNL1        0.2930
     20  O         25.7900  -20.0560  -14.5620 O.2     1  UNL1       -0.2590
     21  O         25.7750  -22.2560  -15.2730 O.3     1  UNL1       -0.3180
     22  C         25.0990  -22.1480  -16.5350 C.3     1  UNL1        0.1740
     23  C         24.3490  -23.4310  -16.8350 C.3     1  UNL1        0.0340
     24  S         16.9340  -24.0430   -7.6050 S.O2    1  UNL1        0.2630
     25  O         17.9860  -24.6770   -6.8390 O.2     1  UNL1       -0.2000
     26  O         15.8230  -24.8250   -8.1030 O.2     1  UNL1       -0.2000
     27  N         16.3410  -22.7850   -6.6540 N.pl3   1  UNL1       -0.2800
     28  H         15.3240  -22.7680   -6.6140 H       1  UNL1        0.1790
     29  C         17.0850  -22.2840   -5.5420 C.2     1  UNL1        0.0480
     30  C         18.1840  -21.4430   -5.7540 C.2     1  UNL1        0.0300
     31  C         18.9340  -20.9690   -4.6800 C.2     1  UNL1        0.0020
     32  C         18.5810  -21.3160   -3.3800 C.2     1  UNL1        0.0010
     33  C         17.4670  -22.1280   -3.1530 C.2     1  UNL1        0.0090
     34  C         16.7000  -22.6120   -4.2270 C.2     1  UNL1       -0.0350
     35  C         15.5080  -23.4800   -3.9320 C.3     1  UNL1        0.0500
@<TRIPOS>BOND
     1    23    22    1
     2    22    21    1
     3    21    19    1
     4    20    19    2
     5    19    16    1
     6    18    17    1
     7    16    17    1
     8    16    15    2
     9    17    12    2
    10    15    14    1
    11    10     9    1
    12    12     9    1
    13    12    13    1
    14     9     8   am
    15    14    13    2
    16     2     3    1
    17     2     1    2
    18     3     4    2
    19     1     8    1
    20     1     7    1
    21     8    11    2
    22     4     5    1
    23     4     6    1
    24     7     6    2
    25     6    24    1
    26    26    24    2
    27    24    25    2
    28    24    27    1
    29    27    28    1
    30    27    29    1
    31    30    29    2
    32    30    31    1
    33    29    34    1
    34    31    32    2
    35    34    35    1
    36    34    33    2
    37    32    33    1
