@<TRIPOS>MOLECULE
67500_out_ligand_01.pdbqt
 43 46 0 0 0
SMALL
GASTEIGER

@<TRIPOS>ATOM
      1  N         21.7560  -22.2110   -8.4130 N.pl3   1  UNL1       -0.1810
      2  H         22.6140  -22.3980   -7.8910 H       1  UNL1        0.1460
      3  S         21.8000  -23.2360   -9.7810 S.O2    1  UNL1        0.2450
      4  O         20.6960  -22.9440  -10.6670 O.2     1  UNL1       -0.2060
      5  O         22.0510  -24.5690   -9.2740 O.2     1  UNL1       -0.2060
      6  C         23.2820  -22.6540  -10.5650 C.2     1  UNL1        0.0750
      7  C         24.0150  -21.6110   -9.9930 C.2     1  UNL1        0.0260
      8  C         25.1860  -21.1670  -10.6170 C.2     1  UNL1        0.0210
      9  C         25.6360  -21.7630  -11.8050 C.2     1  UNL1        0.0150
     10  C         24.8800  -22.8070  -12.3640 C.2     1  UNL1        0.0500
     11  C         23.7120  -23.2670  -11.7420 C.2     1  UNL1        0.0430
     12  S         27.1210  -21.1090  -12.5560 S.3     1  UNL1       -0.1330
     13  C         26.5460  -19.4200  -12.8850 C.3     1  UNL1        0.0950
     14  C         25.2960  -23.4820  -13.6050 C.2     1  UNL1        0.2550
     15  O         25.8750  -24.5590  -13.4860 O.2     1  UNL1       -0.2670
     16  N         24.9790  -22.8860  -14.8290 N.am    1  UNL1       -0.3480
     17  C         25.3830  -23.5840  -16.0450 C.3     1  UNL1        0.1260
     18  C         24.3000  -21.5950  -14.9510 C.3     1  UNL1        0.1260
     19  C         26.7590  -23.1220  -16.5200 C.3     1  UNL1        0.0200
     20  C         26.7540  -21.7640  -17.2210 C.3     1  UNL1        0.0020
     21  C         26.1520  -20.6120  -16.4160 C.3     1  UNL1        0.0020
     22  C         24.6500  -20.7650  -16.1850 C.3     1  UNL1        0.0200
     23  C         20.6110  -22.4330   -7.5800 C.2     1  UNL1        0.0220
     24  C         19.8500  -23.5960   -7.7160 C.2     1  UNL1        0.0260
     25  C         18.6800  -23.7500   -6.9720 C.2     1  UNL1        0.0270
     26  C         18.2760  -22.7290   -6.1060 C.2     1  UNL1        0.0800
     27  C         19.0480  -21.5720   -5.9520 C.2     1  UNL1        0.0270
     28  C         20.2110  -21.4200   -6.7060 C.2     1  UNL1        0.0260
     29  S         16.7610  -22.8960   -5.1960 S.O2    1  UNL1        0.2630
     30  O         16.5210  -24.3110   -5.0060 O.2     1  UNL1       -0.2000
     31  O         16.7920  -21.9880   -4.0700 O.2     1  UNL1       -0.2000
     32  N         15.6110  -22.3720   -6.3150 N.pl3   1  UNL1       -0.2810
     33  H         15.2790  -21.4330   -6.0980 H       1  UNL1        0.1790
     34  C         15.8000  -22.7120   -7.6800 C.2     1  UNL1        0.0430
     35  C         15.3540  -23.9480   -8.1430 C.2     1  UNL1        0.0300
     36  C         15.5620  -24.3070   -9.4730 C.2     1  UNL1        0.0030
     37  C         16.2170  -23.4290  -10.3400 C.2     1  UNL1        0.0160
     38  C         16.6780  -22.1860   -9.8800 C.2     1  UNL1        0.0500
     39  C         16.4550  -21.8310   -8.5390 C.2     1  UNL1        0.0460
     40  C         17.3730  -21.2260  -10.8140 C.3     1  UNL1        0.4170
     41  F         18.6420  -20.9440  -10.4090 F       1  UNL1       -0.1660
     42  F         17.4830  -21.7060  -12.0830 F       1  UNL1       -0.1660
     43  F         16.7400  -20.0250  -10.9230 F       1  UNL1       -0.1660
@<TRIPOS>BOND
     1    20    19    1
     2    20    21    1
     3    19    17    1
     4    21    22    1
     5    22    18    1
     6    17    16    1
     7    18    16    1
     8    16    14   am
     9    14    15    2
    10    14    10    1
    11    13    12    1
    12    12     9    1
    13    10     9    2
    14    10    11    1
    15    42    40    1
    16     9     8    1
    17    11     6    2
    18    43    40    1
    19    40    41    1
    20    40    38    1
    21     4     3    2
    22     8     7    2
    23     6     7    1
    24     6     3    1
    25    37    38    2
    26    37    36    1
    27    38    39    1
    28     3     5    2
    29     3     1    1
    30    36    35    2
    31    39    34    2
    32     1     2    1
    33     1    23    1
    34    35    34    1
    35    24    23    2
    36    24    25    1
    37    34    32    1
    38    23    28    1
    39    25    26    2
    40    28    27    2
    41    32    33    1
    42    32    29    1
    43    26    27    1
    44    26    29    1
    45    29    30    2
    46    29    31    2
