@<TRIPOS>MOLECULE
67507_out_ligand_01.pdbqt
 33 35 0 0 0
SMALL
GASTEIGER

@<TRIPOS>ATOM
      1  C         20.7380  -22.3910  -10.7520 C.2     1  UNL1        0.0330
      2  C         20.3780  -21.3920  -11.6610 C.2     1  UNL1        0.0170
      3  C         19.0490  -20.9650  -11.7400 C.2     1  UNL1        0.0090
      4  C         18.0540  -21.5250  -10.9200 C.2     1  UNL1       -0.0390
      5  C         16.6510  -20.9990  -11.0470 C.3     1  UNL1        0.0500
      6  C         18.4350  -22.5120   -9.9870 C.2     1  UNL1        0.0810
      7  C         19.7700  -22.9350   -9.9010 C.2     1  UNL1        0.0420
      8  C         22.1420  -22.8780  -10.6400 C.2     1  UNL1        0.2560
      9  N         23.0220  -22.3340  -11.5570 N.am    1  UNL1       -0.3230
     10  H         22.6320  -21.7360  -12.2740 H       1  UNL1        0.1690
     11  O         22.3920  -23.7260   -9.7930 O.2     1  UNL1       -0.2670
     12  C         24.4060  -22.5870  -11.6720 C.2     1  UNL1        0.0370
     13  C         25.3850  -21.9170  -10.9410 C.2     1  UNL1        0.0290
     14  C         26.7340  -22.2330  -11.1190 C.2     1  UNL1        0.0050
     15  C         27.1190  -23.2180  -12.0310 C.2     1  UNL1        0.0370
     16  C         26.1530  -23.8900  -12.7750 C.2     1  UNL1        0.0700
     17  C         24.8030  -23.5700  -12.5880 C.2     1  UNL1        0.0660
     18  O         26.3770  -24.8730  -13.6970 O.2     1  UNL1       -0.3510
     19  C         25.9430  -24.6690  -15.0410 C.3     1  UNL1        0.1710
     20  C         26.6770  -23.5020  -15.6750 C.3     1  UNL1        0.0340
     21  S         17.2600  -23.2540   -8.8600 S.O2    1  UNL1        0.2460
     22  O         16.0690  -23.5950   -9.6110 O.2     1  UNL1       -0.2060
     23  O         17.9550  -24.2410   -8.0650 O.2     1  UNL1       -0.2060
     24  N         16.8380  -21.9000   -7.9170 N.pl3   1  UNL1       -0.1810
     25  H         15.9990  -21.4980   -8.3430 H       1  UNL1        0.1460
     26  C         16.5790  -22.1490   -6.5230 C.2     1  UNL1        0.0290
     27  C         15.2860  -22.4670   -6.0940 C.2     1  UNL1        0.0250
     28  C         15.0140  -22.6260   -4.7390 C.2     1  UNL1        0.0020
     29  C         16.0290  -22.4480   -3.8030 C.2     1  UNL1        0.0070
     30  C         17.3260  -22.0970   -4.2080 C.2     1  UNL1       -0.0540
     31  C         18.3820  -21.8970   -3.1540 C.3     1  UNL1        0.0490
     32  C         17.6020  -21.9080   -5.5830 C.2     1  UNL1       -0.0340
     33  C         18.9870  -21.5100   -6.0230 C.3     1  UNL1        0.0500
@<TRIPOS>BOND
     1    20    19    1
     2    19    18    1
     3    18    16    1
     4    16    17    1
     5    16    15    2
     6    17    12    2
     7    10     9    1
     8    15    14    1
     9     3     2    1
    10     3     4    2
    11    12     9    1
    12    12    13    1
    13     2     1    2
    14     9     8   am
    15    14    13    2
    16     5     4    1
    17     4     6    1
    18     1     8    1
    19     1     7    1
    20     8    11    2
    21     6     7    2
    22     6    21    1
    23    22    21    2
    24    21    23    2
    25    21    24    1
    26    25    24    1
    27    24    26    1
    28    26    27    2
    29    26    32    1
    30    27    28    1
    31    33    32    1
    32    32    30    2
    33    28    29    2
    34    30    29    1
    35    30    31    1
