@<TRIPOS>MOLECULE
67517_out_ligand_01.pdbqt
 34 36 0 0 0
SMALL
GASTEIGER

@<TRIPOS>ATOM
      1  C         20.8520  -22.2540  -10.7730 C.2     1  UNL1        0.0330
      2  C         20.4860  -21.2620  -11.6860 C.2     1  UNL1        0.0170
      3  C         19.1530  -20.8460  -11.7670 C.2     1  UNL1        0.0090
      4  C         18.1610  -21.4100  -10.9440 C.2     1  UNL1       -0.0390
      5  C         16.7520  -20.9050  -11.0810 C.3     1  UNL1        0.0500
      6  C         18.5450  -22.4070  -10.0240 C.2     1  UNL1        0.0810
      7  C         19.8810  -22.8360   -9.9510 C.2     1  UNL1        0.0420
      8  C         22.2550  -22.7340  -10.6590 C.2     1  UNL1        0.2510
      9  N         23.0100  -22.6840  -11.8080 N.am    1  UNL1       -0.3530
     10  H         22.6320  -22.2980  -12.6610 H       1  UNL1        0.1630
     11  O         22.6860  -23.1100   -9.5760 O.2     1  UNL1       -0.2680
     12  C         24.3930  -23.1000  -11.8120 C.3     1  UNL1        0.1610
     13  C         24.9210  -23.1690  -13.2210 C.2     1  UNL1       -0.0400
     14  C         25.2700  -24.3950  -13.8050 C.2     1  UNL1        0.0110
     15  C         25.7370  -24.4480  -15.1240 C.2     1  UNL1        0.0370
     16  C         25.8570  -23.2790  -15.8750 C.2     1  UNL1        0.0680
     17  C         25.4990  -22.0600  -15.3010 C.2     1  UNL1        0.0370
     18  C         25.0360  -22.0010  -13.9840 C.2     1  UNL1        0.0110
     19  O         26.2870  -23.1970  -17.1710 O.2     1  UNL1       -0.3520
     20  C         25.3800  -22.6270  -18.1140 C.3     1  UNL1        0.1710
     21  C         24.0620  -23.3740  -18.0010 C.3     1  UNL1        0.0340
     22  S         17.3740  -23.1720   -8.9020 S.O2    1  UNL1        0.2460
     23  O         18.1260  -24.0590   -8.0360 O.2     1  UNL1       -0.2060
     24  O         16.2580  -23.6450   -9.6860 O.2     1  UNL1       -0.2060
     25  N         16.9040  -21.8330   -7.9480 N.pl3   1  UNL1       -0.1810
     26  H         17.5840  -21.0840   -8.0780 H       1  UNL1        0.1460
     27  C         16.7080  -22.1380   -6.5550 C.2     1  UNL1        0.0290
     28  C         15.4530  -22.6210   -6.1650 C.2     1  UNL1        0.0250
     29  C         15.1890  -22.8930   -4.8280 C.2     1  UNL1        0.0020
     30  C         16.1720  -22.6640   -3.8690 C.2     1  UNL1        0.0070
     31  C         17.4300  -22.1560   -4.2350 C.2     1  UNL1       -0.0540
     32  C         18.4450  -21.8990   -3.1530 C.3     1  UNL1        0.0490
     33  C         17.7150  -21.9040   -5.5990 C.2     1  UNL1       -0.0340
     34  C         19.0600  -21.3590   -6.0020 C.3     1  UNL1        0.0500
@<TRIPOS>BOND
     1    20    21    1
     2    20    19    1
     3    19    16    1
     4    16    17    2
     5    16    15    1
     6    17    18    1
     7    15    14    2
     8    18    13    2
     9    14    13    1
    10    13    12    1
    11    10     9    1
    12    12     9    1
    13     9     8   am
    14     3     2    1
    15     3     4    2
    16     2     1    2
    17     5     4    1
    18     4     6    1
    19     1     8    1
    20     1     7    1
    21     8    11    2
    22     6     7    2
    23     6    22    1
    24    24    22    2
    25    22    23    2
    26    22    25    1
    27    26    25    1
    28    25    27    1
    29    27    28    2
    30    27    33    1
    31    28    29    1
    32    34    33    1
    33    33    31    2
    34    29    30    2
    35    31    30    1
    36    31    32    1
