@<TRIPOS>MOLECULE
67519_out_ligand_01.pdbqt
 33 35 0 0 0
SMALL
GASTEIGER

@<TRIPOS>ATOM
      1  C         19.7580  -22.9490   -9.9190 C.2     1  UNL1        0.0330
      2  C         19.1090  -22.1440  -10.8570 C.2     1  UNL1        0.0170
      3  C         17.7240  -21.9720  -10.7890 C.2     1  UNL1        0.0090
      4  C         16.9620  -22.5800   -9.7750 C.2     1  UNL1       -0.0390
      5  C         15.4740  -22.3590   -9.7820 C.3     1  UNL1        0.0500
      6  C         17.6310  -23.3780   -8.8250 C.2     1  UNL1        0.0860
      7  C         19.0210  -23.5620   -8.9030 C.2     1  UNL1        0.0420
      8  C         21.2350  -23.1470   -9.9490 C.2     1  UNL1        0.2560
      9  N         21.8880  -22.4660  -10.9600 N.am    1  UNL1       -0.3230
     10  H         21.3110  -21.9940  -11.6430 H       1  UNL1        0.1690
     11  O         21.7330  -23.8970   -9.1190 O.2     1  UNL1       -0.2670
     12  C         23.2780  -22.4300  -11.2110 C.2     1  UNL1        0.0370
     13  C         24.0250  -21.4760  -10.5100 C.2     1  UNL1        0.0290
     14  C         25.4030  -21.3780  -10.6980 C.2     1  UNL1        0.0050
     15  C         26.0430  -22.2370  -11.5890 C.2     1  UNL1        0.0370
     16  C         25.3140  -23.1990  -12.2940 C.2     1  UNL1        0.0700
     17  C         23.9330  -23.2890  -12.1010 C.2     1  UNL1        0.0660
     18  O         26.0700  -23.9700  -13.1330 O.2     1  UNL1       -0.3510
     19  C         25.8540  -23.8750  -14.5410 C.3     1  UNL1        0.1710
     20  C         25.2740  -25.1670  -15.0920 C.3     1  UNL1        0.0340
     21  S         16.7750  -24.2280   -7.5010 S.O2    1  UNL1        0.2630
     22  O         17.7500  -25.0000   -6.7600 O.2     1  UNL1       -0.2000
     23  O         15.6080  -24.8810   -8.0560 O.2     1  UNL1       -0.2000
     24  N         16.2000  -22.9690   -6.5370 N.pl3   1  UNL1       -0.2800
     25  H         15.5570  -22.3580   -7.0330 H       1  UNL1        0.1790
     26  C         17.0160  -22.4150   -5.5060 C.2     1  UNL1        0.0490
     27  C         18.0910  -21.5830   -5.8380 C.2     1  UNL1        0.0370
     28  C         18.8710  -20.9810   -4.8440 C.2     1  UNL1       -0.0600
     29  C         20.0140  -20.0860   -5.2230 C.3     1  UNL1        0.0480
     30  C         18.5910  -21.2560   -3.5050 C.2     1  UNL1        0.0070
     31  C         17.5380  -22.1060   -3.1650 C.2     1  UNL1        0.0090
     32  C         16.7410  -22.7010   -4.1570 C.2     1  UNL1       -0.0350
     33  C         15.6120  -23.5970   -3.7370 C.3     1  UNL1        0.0500
@<TRIPOS>BOND
     1    20    19    1
     2    19    18    1
     3    18    16    1
     4    16    17    1
     5    16    15    2
     6    17    12    2
     7    10     9    1
     8    15    14    1
     9    12     9    1
    10    12    13    1
    11     9     8   am
    12     2     3    1
    13     2     1    2
    14     3     4    2
    15    14    13    2
    16     8     1    1
    17     8    11    2
    18     1     7    1
    19     5     4    1
    20     4     6    1
    21     7     6    2
    22     6    21    1
    23    23    21    2
    24    21    22    2
    25    21    24    1
    26    25    24    1
    27    24    26    1
    28    27    26    2
    29    27    28    1
    30    26    32    1
    31    29    28    1
    32    28    30    2
    33    32    33    1
    34    32    31    2
    35    30    31    1
