@<TRIPOS>MOLECULE
6752_out_ligand_01.pdbqt
 35 39 0 0 0
SMALL
GASTEIGER

@<TRIPOS>ATOM
      1  C         22.6670  -22.1070  -11.9690 C.ar    1  UNL1        0.1020
      2  S         21.1900  -21.3580  -12.4300 S.2     1  UNL1       -0.0620
      3  C         20.3330  -22.0870  -11.1560 C.ar    1  UNL1        0.1110
      4  N         19.0160  -21.8480  -11.0010 N.2     1  UNL1       -0.2450
      5  C         18.4480  -22.4790   -9.9460 C.2     1  UNL1        0.0450
      6  C         19.1290  -23.3270   -9.0700 C.2     1  UNL1       -0.0040
      7  C         20.4980  -23.5330   -9.2740 C.2     1  UNL1        0.0270
      8  C         21.1330  -22.8980  -10.3640 C.ar    1  UNL1        0.0280
      9  C         22.4830  -22.8980  -10.8460 C.ar    1  UNL1        0.0620
     10  N         23.4820  -23.5990  -10.2580 N.pl3   1  UNL1       -0.3970
     11  C         18.4350  -23.9420   -7.8780 C.3     1  UNL1        0.3130
     12  N         16.9750  -23.9750   -8.0200 N.3     1  UNL1        0.0970
     13  C         16.4650  -22.6500   -8.3830 C.3     1  UNL1        0.2790
     14  C         16.9640  -22.2680   -9.7780 C.3     1  UNL1        0.0900
     15  H         24.3860  -23.6750  -10.7340 H       1  UNL1        0.1560
     16  H         23.3000  -24.3720   -9.6270 H       1  UNL1        0.1560
     17  C         23.9040  -21.8950  -12.7270 C.2     1  UNL1        0.2650
     18  N         23.7690  -21.0760  -13.8380 N.am    1  UNL1       -0.3220
     19  H         22.8360  -20.7180  -14.0010 H       1  UNL1        0.1690
     20  O         24.9620  -22.4180  -12.3810 O.2     1  UNL1       -0.2670
     21  C         24.7560  -20.6810  -14.7640 C.2     1  UNL1        0.0370
     22  C         25.6610  -19.6410  -14.5520 C.2     1  UNL1        0.0290
     23  C         26.6070  -19.3200  -15.5290 C.2     1  UNL1        0.0050
     24  C         26.6580  -20.0340  -16.7280 C.2     1  UNL1        0.0370
     25  C         25.7610  -21.0750  -16.9540 C.2     1  UNL1        0.0700
     26  C         24.8170  -21.3910  -15.9700 C.2     1  UNL1        0.0660
     27  O         25.6980  -21.8540  -18.0760 O.2     1  UNL1       -0.3560
     28  C         24.6780  -22.8430  -18.1160 C.3     1  UNL1        0.2100
     29  C         16.2900  -24.5850   -6.8730 C.3     1  UNL1        0.3110
     30  C         16.3010  -23.8120   -5.5710 C.2     1  UNL1       -0.0300
     31  C         17.4660  -23.7410   -4.7920 C.2     1  UNL1        0.0090
     32  C         17.4770  -23.0270   -3.5920 C.2     1  UNL1        0.0010
     33  C         16.3250  -22.3780   -3.1560 C.2     1  UNL1        0.0000
     34  C         15.1580  -22.4460   -3.9150 C.2     1  UNL1        0.0010
     35  C         15.1460  -23.1610   -5.1140 C.2     1  UNL1        0.0090
@<TRIPOS>BOND
     1    28    27    1
     2    27    25    1
     3    25    24    2
     4    25    26    1
     5    24    23    1
     6    26    21    2
     7    23    22    2
     8    21    22    1
     9    21    18    1
    10    19    18    1
    11    18    17   am
    12    17    20    2
    13    17     1    1
    14     2     1   ar
    15     2     3   ar
    16     1     9   ar
    17     3     4    2
    18     3     8   ar
    19     4     5    1
    20     9     8   ar
    21     9    10    1
    22    15    10    1
    23     8     7    2
    24    10    16    1
    25     5    14    1
    26     5     6    2
    27    14    13    1
    28     7     6    1
    29     6    11    1
    30    13    12    1
    31    12    11    1
    32    12    29    1
    33    29    30    1
    34    30    35    2
    35    30    31    1
    36    35    34    1
    37    31    32    2
    38    34    33    2
    39    32    33    1
