@<TRIPOS>MOLECULE
67531_out_ligand_01.pdbqt
 32 34 0 0 0
SMALL
GASTEIGER

@<TRIPOS>ATOM
      1  C         21.7280  -22.4380  -10.7100 C.2     1  UNL1        0.0810
      2  C         20.3470  -22.2780  -10.5180 C.2     1  UNL1        0.0420
      3  C         19.5730  -21.6160  -11.4780 C.2     1  UNL1        0.0330
      4  C         20.1900  -21.0840  -12.6130 C.2     1  UNL1        0.0170
      5  C         21.5670  -21.2380  -12.8010 C.2     1  UNL1        0.0090
      6  C         22.3560  -21.9250  -11.8620 C.2     1  UNL1       -0.0390
      7  C         23.8340  -22.0340  -12.1190 C.3     1  UNL1        0.0500
      8  C         18.1100  -21.4770  -11.2370 C.2     1  UNL1        0.2510
      9  O         17.4780  -20.5860  -11.7930 O.2     1  UNL1       -0.2680
     10  N         17.5470  -22.3650  -10.3430 N.am    1  UNL1       -0.3570
     11  H         18.1440  -22.9420   -9.7670 H       1  UNL1        0.1620
     12  C         16.1470  -22.2770   -9.9710 C.3     1  UNL1        0.1230
     13  C         15.7010  -23.5000   -9.1690 C.3     1  UNL1        0.0240
     14  C         16.6450  -23.8180   -8.0050 C.3     1  UNL1        0.0400
     15  C         16.0890  -23.4320   -6.6570 C.2     1  UNL1       -0.0580
     16  C         16.5280  -24.0820   -5.4950 C.2     1  UNL1        0.0070
     17  C         16.0210  -23.7160   -4.2470 C.2     1  UNL1        0.0010
     18  C         15.0730  -22.7010   -4.1470 C.2     1  UNL1        0.0000
     19  C         14.6280  -22.0500   -5.2960 C.2     1  UNL1        0.0010
     20  C         15.1320  -22.4140   -6.5450 C.2     1  UNL1        0.0070
     21  S         22.6480  -23.2940   -9.4350 S.O2    1  UNL1        0.2460
     22  O         21.7850  -24.3000   -8.8610 O.2     1  UNL1       -0.2060
     23  O         23.9530  -23.6230   -9.9700 O.2     1  UNL1       -0.2060
     24  N         22.9040  -22.0180   -8.3250 N.pl3   1  UNL1       -0.1810
     25  H         23.6910  -22.2930   -7.7360 H       1  UNL1        0.1460
     26  C         21.7560  -21.7200   -7.5180 C.2     1  UNL1        0.0220
     27  C         21.7910  -20.6530   -6.6200 C.2     1  UNL1        0.0250
     28  C         20.6840  -20.3900   -5.8090 C.2     1  UNL1        0.0080
     29  C         19.5400  -21.1940   -5.8870 C.2     1  UNL1       -0.0620
     30  C         18.3680  -20.9330   -4.9870 C.3     1  UNL1        0.0480
     31  C         19.5320  -22.2860   -6.7650 C.2     1  UNL1        0.0080
     32  C         20.6380  -22.5480   -7.5770 C.2     1  UNL1        0.0250
@<TRIPOS>BOND
     1     5     4    2
     2     5     6    1
     3     4     3    1
     4     7     6    1
     5     6     1    2
     6     9     8    2
     7     3     8    1
     8     3     2    2
     9     8    10   am
    10     1     2    1
    11     1    21    1
    12    10    12    1
    13    10    11    1
    14    12    13    1
    15    23    21    2
    16    21    22    2
    17    21    24    1
    18    13    14    1
    19    24    25    1
    20    24    26    1
    21    14    15    1
    22    32    26    2
    23    32    31    1
    24    26    27    1
    25    31    29    2
    26    15    20    2
    27    15    16    1
    28    27    28    2
    29    20    19    1
    30    29    28    1
    31    29    30    1
    32    16    17    2
    33    19    18    2
    34    17    18    1
