@<TRIPOS>MOLECULE
67539_out_ligand_01.pdbqt
 32 34 0 0 0
SMALL
GASTEIGER

@<TRIPOS>ATOM
      1  C         17.7540  -22.5220   -9.9480 C.2     1  UNL1        0.0330
      2  C         17.5050  -21.7920  -11.1110 C.2     1  UNL1        0.0170
      3  C         18.5690  -21.2330  -11.8250 C.2     1  UNL1        0.0090
      4  C         19.9000  -21.3700  -11.3880 C.2     1  UNL1       -0.0390
      5  C         20.9810  -20.7330  -12.2140 C.3     1  UNL1        0.0500
      6  C         20.1360  -22.0860  -10.1990 C.2     1  UNL1        0.0860
      7  C         19.0670  -22.6700   -9.4960 C.2     1  UNL1        0.0420
      8  S         21.7560  -22.3120   -9.4670 S.O2    1  UNL1        0.2630
      9  O         22.4630  -21.0570   -9.6260 O.2     1  UNL1       -0.2000
     10  O         21.6350  -22.9290   -8.1660 O.2     1  UNL1       -0.2000
     11  N         22.4970  -23.4070  -10.5230 N.pl3   1  UNL1       -0.2810
     12  H         22.4930  -24.3560  -10.1510 H       1  UNL1        0.1790
     13  C         23.6440  -22.9900  -11.2540 C.2     1  UNL1        0.0430
     14  C         24.9040  -22.9860  -10.6670 C.2     1  UNL1        0.0300
     15  C         26.0200  -22.6170  -11.4190 C.2     1  UNL1        0.0090
     16  C         25.8890  -22.2480  -12.7670 C.2     1  UNL1       -0.0560
     17  C         27.1210  -21.8720  -13.5460 C.3     1  UNL1        0.0490
     18  C         24.6140  -22.2610  -13.3650 C.2     1  UNL1       -0.0540
     19  C         24.4170  -21.8810  -14.8080 C.3     1  UNL1        0.0490
     20  C         23.4970  -22.6240  -12.5940 C.2     1  UNL1        0.0370
     21  C         16.6580  -23.1090   -9.1320 C.2     1  UNL1        0.2510
     22  N         17.0410  -23.8480   -8.0360 N.am    1  UNL1       -0.3530
     23  H         18.0000  -23.7990   -7.7200 H       1  UNL1        0.1630
     24  O         15.4930  -22.8990   -9.4480 O.2     1  UNL1       -0.2680
     25  C         16.0750  -24.3460   -7.0810 C.3     1  UNL1        0.1610
     26  C         16.2440  -23.6600   -5.7510 C.2     1  UNL1       -0.0400
     27  C         15.3350  -23.9060   -4.7120 C.2     1  UNL1        0.0090
     28  C         15.4770  -23.2650   -3.4820 C.2     1  UNL1        0.0010
     29  C         16.5250  -22.3670   -3.2800 C.2     1  UNL1        0.0070
     30  C         17.4310  -22.0900   -4.3100 C.2     1  UNL1       -0.0610
     31  C         18.5740  -21.1470   -4.0780 C.3     1  UNL1        0.0480
     32  C         17.2890  -22.7480   -5.5410 C.2     1  UNL1        0.0150
@<TRIPOS>BOND
     1    19    18    1
     2    17    16    1
     3    18    16    2
     4    18    20    1
     5    16    15    1
     6    20    13    2
     7     5     4    1
     8     3     4    2
     9     3     2    1
    10    15    14    2
    11     4     6    1
    12    13    14    1
    13    13    11    1
    14     2     1    2
    15    11    12    1
    16    11     8    1
    17     6     7    2
    18     6     8    1
    19     1     7    1
    20     1    21    1
    21     9     8    2
    22     8    10    2
    23    24    21    2
    24    21    22   am
    25    22    23    1
    26    22    25    1
    27    25    26    1
    28    26    32    2
    29    26    27    1
    30    32    30    1
    31    27    28    2
    32    30    31    1
    33    30    29    2
    34    28    29    1
