@<TRIPOS>MOLECULE
67540_out_ligand_01.pdbqt
 38 41 0 0 0
SMALL
GASTEIGER

@<TRIPOS>ATOM
      1  C         19.4920  -22.6630   -9.9400 C.2     1  UNL1        0.0330
      2  C         20.3910  -23.3620   -9.1330 C.2     1  UNL1        0.0170
      3  C         19.9160  -24.1160   -8.0580 C.2     1  UNL1        0.0090
      4  C         18.5390  -24.1980   -7.7740 C.2     1  UNL1       -0.0390
      5  C         18.1130  -25.0380   -6.6010 C.3     1  UNL1        0.0500
      6  C         17.6400  -23.5130   -8.6180 C.2     1  UNL1        0.0860
      7  C         18.1200  -22.7610   -9.7040 C.2     1  UNL1        0.0420
      8  C         19.9600  -21.8640  -11.0930 C.2     1  UNL1        0.2530
      9  N         21.3030  -21.9150  -11.4510 N.am    1  UNL1       -0.3450
     10  C         22.3720  -22.4870  -10.6220 C.3     1  UNL1        0.1460
     11  C         21.7340  -21.1730  -12.6400 C.3     1  UNL1        0.1460
     12  C         23.7470  -21.8670  -10.9050 C.3     1  UNL1        0.1550
     13  N         24.1040  -21.9380  -12.3480 N.3     1  UNL1       -0.3040
     14  C         22.9610  -21.8160  -13.2980 C.3     1  UNL1        0.1550
     15  O         19.1340  -21.1750  -11.6860 O.2     1  UNL1       -0.2670
     16  S         25.3860  -22.9470  -12.8080 S.O2    1  UNL1        0.2600
     17  O         24.8450  -24.2660  -13.0620 O.2     1  UNL1       -0.2000
     18  O         26.4710  -22.7480  -11.8710 O.2     1  UNL1       -0.2000
     19  C         25.8960  -22.2720  -14.3760 C.2     1  UNL1        0.0790
     20  C         26.4540  -20.9910  -14.4290 C.2     1  UNL1        0.0260
     21  C         26.8490  -20.4600  -15.6580 C.2     1  UNL1        0.0080
     22  C         26.6660  -21.1940  -16.8390 C.2     1  UNL1       -0.0620
     23  C         27.1040  -20.6150  -18.1530 C.3     1  UNL1        0.0480
     24  C         26.0840  -22.4670  -16.7750 C.2     1  UNL1        0.0080
     25  C         25.6870  -23.0020  -15.5490 C.2     1  UNL1        0.0260
     26  S         15.8630  -23.5660   -8.4170 S.O2    1  UNL1        0.2630
     27  O         15.4610  -24.8170   -7.8160 O.2     1  UNL1       -0.2000
     28  O         15.2790  -23.1440   -9.6750 O.2     1  UNL1       -0.2000
     29  N         15.5980  -22.2990   -7.3510 N.pl3   1  UNL1       -0.2800
     30  H         14.6390  -21.9510   -7.3310 H       1  UNL1        0.1790
     31  C         16.4180  -22.1150   -6.2090 C.2     1  UNL1        0.0490
     32  C         17.6510  -21.4660   -6.3430 C.2     1  UNL1        0.0370
     33  C         18.5000  -21.3130   -5.2400 C.2     1  UNL1       -0.0600
     34  C         19.8230  -20.6250   -5.4020 C.3     1  UNL1        0.0480
     35  C         18.1170  -21.8520   -4.0100 C.2     1  UNL1        0.0070
     36  C         16.9020  -22.5270   -3.8820 C.2     1  UNL1        0.0090
     37  C         16.0490  -22.6880   -4.9850 C.2     1  UNL1       -0.0350
     38  C         14.7470  -23.4140   -4.7940 C.3     1  UNL1        0.0500
@<TRIPOS>BOND
     1    23    22    1
     2    22    24    2
     3    22    21    1
     4    24    25    1
     5    21    20    2
     6    25    19    2
     7    20    19    1
     8    19    16    1
     9    14    11    1
    10    14    13    1
    11    17    16    2
    12    16    13    1
    13    16    18    2
    14    11     9    1
    15    13    12    1
    16    15     8    2
    17     9     8   am
    18     9    10    1
    19     8     1    1
    20    12    10    1
    21     1     7    2
    22     1     2    1
    23     7     6    1
    24    28    26    2
    25     2     3    2
    26     6    26    1
    27     6     4    2
    28    26    27    2
    29    26    29    1
    30     3     4    1
    31     4     5    1
    32    29    30    1
    33    29    31    1
    34    32    31    2
    35    32    33    1
    36    31    37    1
    37    34    33    1
    38    33    35    2
    39    37    38    1
    40    37    36    2
    41    35    36    1
