@<TRIPOS>MOLECULE
67545_out_ligand_01.pdbqt
 32 35 0 0 0
SMALL
GASTEIGER

@<TRIPOS>ATOM
      1  C         24.9740  -22.7610  -12.5390 C.2     1  UNL1        0.0860
      2  C         23.7460  -23.1460  -11.9750 C.2     1  UNL1        0.0420
      3  C         23.3180  -22.5730  -10.7800 C.2     1  UNL1        0.0340
      4  C         24.1040  -21.6260  -10.1260 C.2     1  UNL1        0.0170
      5  C         25.3090  -21.2200  -10.7030 C.2     1  UNL1        0.0090
      6  C         25.7620  -21.7700  -11.9200 C.2     1  UNL1       -0.0390
      7  C         27.0570  -21.2530  -12.4790 C.3     1  UNL1        0.0500
      8  S         25.4130  -23.5860  -14.0660 S.O2    1  UNL1        0.2630
      9  O         25.0570  -24.9850  -13.9940 O.2     1  UNL1       -0.2000
     10  O         26.7770  -23.1960  -14.3670 O.2     1  UNL1       -0.2000
     11  N         24.4470  -22.8130  -15.2140 N.pl3   1  UNL1       -0.2800
     12  H         23.7560  -23.4340  -15.6260 H       1  UNL1        0.1790
     13  C         24.9720  -21.7540  -16.0120 C.2     1  UNL1        0.0490
     14  C         25.0440  -21.8800  -17.4090 C.2     1  UNL1       -0.0350
     15  C         25.6080  -20.8300  -18.1520 C.2     1  UNL1        0.0090
     16  C         24.5610  -23.1020  -18.1390 C.3     1  UNL1        0.0500
     17  C         26.0600  -19.6680  -17.5240 C.2     1  UNL1        0.0070
     18  C         25.9450  -19.5230  -16.1400 C.2     1  UNL1       -0.0600
     19  C         26.4310  -18.2830  -15.4490 C.3     1  UNL1        0.0480
     20  C         25.4030  -20.5750  -15.3920 C.2     1  UNL1        0.0370
     21  C         22.0600  -23.0470  -10.1680 C.2     1  UNL1        0.2580
     22  O         22.1940  -24.0330   -9.4440 O.2     1  UNL1       -0.2670
     23  N         20.8660  -22.3650  -10.4810 N.am    1  UNL1       -0.3130
     24  C         20.8020  -21.5500  -11.7050 C.3     1  UNL1        0.1330
     25  C         19.6150  -22.6830   -9.8290 C.2     1  UNL1        0.0430
     26  C         19.6010  -20.6250  -11.7830 C.3     1  UNL1        0.0250
     27  C         18.3360  -21.4450  -11.6470 C.3     1  UNL1        0.0420
     28  C         18.3890  -22.2450  -10.3760 C.2     1  UNL1       -0.0310
     29  C         17.1690  -22.5780   -9.7570 C.2     1  UNL1        0.0090
     30  C         17.1490  -23.3100   -8.5750 C.2     1  UNL1        0.0010
     31  C         18.3480  -23.7100   -8.0020 C.2     1  UNL1        0.0020
     32  C         19.5640  -23.3970   -8.6200 C.2     1  UNL1        0.0300
@<TRIPOS>BOND
     1    15    17    2
     2    15    14    1
     3    16    14    1
     4    17    18    1
     5    14    13    2
     6    18    19    1
     7    18    20    2
     8    13    20    1
     9    13    11    1
    10    12    11    1
    11    11     8    1
    12    10     8    2
    13     8     9    2
    14     8     1    1
    15     1     2    2
    16     1     6    1
    17     7     6    1
    18     2     3    1
    19     6     5    2
    20    26    24    1
    21    26    27    1
    22    24    23    1
    23    27    28    1
    24     3    21    1
    25     3     4    2
    26     5     4    1
    27    23    21   am
    28    23    25    1
    29    28    25    2
    30    28    29    1
    31    21    22    2
    32    25    32    1
    33    29    30    2
    34    32    31    2
    35    30    31    1
