@<TRIPOS>MOLECULE
67547_out_ligand_01.pdbqt
 31 34 0 0 0
SMALL
GASTEIGER

@<TRIPOS>ATOM
      1  C         20.7050  -22.1970  -10.2480 C.2     1  UNL1        0.0860
      2  C         19.7380  -22.5920   -9.3120 C.2     1  UNL1        0.0420
      3  C         18.3860  -22.4210   -9.6070 C.2     1  UNL1        0.0340
      4  C         17.9840  -21.8550  -10.8180 C.2     1  UNL1        0.0170
      5  C         18.9480  -21.4770  -11.7540 C.2     1  UNL1        0.0090
      6  C         20.3210  -21.6330  -11.4840 C.2     1  UNL1       -0.0390
      7  C         21.3020  -21.1990  -12.5380 C.3     1  UNL1        0.0500
      8  S         22.4190  -22.4430   -9.8050 S.O2    1  UNL1        0.2630
      9  O         23.0530  -21.1500   -9.6700 O.2     1  UNL1       -0.2000
     10  O         22.4610  -23.3880   -8.7100 O.2     1  UNL1       -0.2000
     11  N         23.0450  -23.2450  -11.1530 N.pl3   1  UNL1       -0.2810
     12  H         22.7390  -24.2170  -11.1650 H       1  UNL1        0.1790
     13  C         24.3960  -22.9860  -11.5200 C.2     1  UNL1        0.0430
     14  C         25.4310  -23.2290  -10.6200 C.2     1  UNL1        0.0300
     15  C         26.7530  -23.0060  -11.0070 C.2     1  UNL1        0.0030
     16  C         27.0370  -22.5420  -12.2920 C.2     1  UNL1        0.0070
     17  C         26.0040  -22.3140  -13.2090 C.2     1  UNL1       -0.0600
     18  C         26.3060  -21.7970  -14.5860 C.3     1  UNL1        0.0480
     19  C         24.6780  -22.5330  -12.8110 C.2     1  UNL1        0.0370
     20  C         17.3720  -22.7620   -8.5920 C.2     1  UNL1        0.2580
     21  O         16.3470  -23.2540   -9.0550 O.2     1  UNL1       -0.2670
     22  N         17.6700  -22.4900   -7.2400 N.am    1  UNL1       -0.3130
     23  C         18.7700  -21.5680   -6.9130 C.3     1  UNL1        0.1330
     24  C         16.7770  -22.8710   -6.1670 C.2     1  UNL1        0.0430
     25  C         19.2120  -21.5930   -5.4620 C.3     1  UNL1        0.0250
     26  C         18.0150  -21.3200   -4.5780 C.3     1  UNL1        0.0420
     27  C         16.9400  -22.3280   -4.8740 C.2     1  UNL1       -0.0310
     28  C         16.0600  -22.6780   -3.8300 C.2     1  UNL1        0.0090
     29  C         15.0360  -23.5930   -4.0450 C.2     1  UNL1        0.0010
     30  C         14.8840  -24.1630   -5.3000 C.2     1  UNL1        0.0020
     31  C         15.7450  -23.8060   -6.3450 C.2     1  UNL1        0.0300
@<TRIPOS>BOND
     1    18    17    1
     2    17    19    1
     3    17    16    2
     4    19    13    2
     5     7     6    1
     6    16    15    1
     7     5     6    1
     8     5     4    2
     9    13    11    1
    10    13    14    1
    11     6     1    2
    12    12    11    1
    13    11     8    1
    14    15    14    2
    15     4     3    1
    16     1     8    1
    17     1     2    1
    18     8     9    2
    19     8    10    2
    20     3     2    2
    21     3    20    1
    22    21    20    2
    23    20    22   am
    24    22    23    1
    25    22    24    1
    26    23    25    1
    27    31    24    2
    28    31    30    1
    29    24    27    1
    30    25    26    1
    31    30    29    2
    32    27    26    1
    33    27    28    2
    34    29    28    1
