@<TRIPOS>MOLECULE
67566_out_ligand_01.pdbqt
 33 35 0 0 0
SMALL
GASTEIGER

@<TRIPOS>ATOM
      1  C         19.8390  -22.8240   -9.9970 C.2     1  UNL1        0.0330
      2  C         19.1780  -22.0750  -10.9710 C.2     1  UNL1        0.0170
      3  C         17.7900  -21.9220  -10.9040 C.2     1  UNL1        0.0090
      4  C         17.0320  -22.5210   -9.8780 C.2     1  UNL1       -0.0390
      5  C         15.5460  -22.2960   -9.8800 C.3     1  UNL1        0.0500
      6  C         17.7100  -23.2950   -8.9160 C.2     1  UNL1        0.0860
      7  C         19.1080  -23.4310   -8.9730 C.2     1  UNL1        0.0420
      8  C         21.3080  -23.0440  -10.0410 C.2     1  UNL1        0.2560
      9  N         21.9820  -22.2690  -10.9640 N.am    1  UNL1       -0.3230
     10  H         21.4430  -21.5660  -11.4550 H       1  UNL1        0.1690
     11  O         21.7860  -23.8520   -9.2540 O.2     1  UNL1       -0.2670
     12  C         23.3680  -22.2690  -11.2280 C.2     1  UNL1        0.0350
     13  C         24.3070  -21.5650  -10.4710 C.2     1  UNL1        0.0290
     14  C         25.6660  -21.6090  -10.8000 C.2     1  UNL1        0.0030
     15  C         26.1010  -22.3600  -11.8910 C.2     1  UNL1        0.0180
     16  C         25.1750  -23.0780  -12.6550 C.2     1  UNL1        0.0410
     17  C         23.8130  -23.0300  -12.3170 C.2     1  UNL1        0.0470
     18  C         25.5730  -23.9000  -13.8290 C.2     1  UNL1        0.2930
     19  O         25.5090  -25.1190  -13.8470 O.2     1  UNL1       -0.2590
     20  O         26.0000  -23.1110  -14.8470 O.3     1  UNL1       -0.3230
     21  C         25.0510  -22.9620  -15.9040 C.3     1  UNL1        0.2130
     22  S         16.9100  -24.1280   -7.5490 S.O2    1  UNL1        0.2630
     23  O         15.7430  -24.7930   -8.0950 O.2     1  UNL1       -0.2000
     24  O         17.8830  -24.8770   -6.7850 O.2     1  UNL1       -0.2000
     25  N         16.3230  -22.8530   -6.6160 N.pl3   1  UNL1       -0.2800
     26  H         15.7230  -22.2190   -7.1370 H       1  UNL1        0.1790
     27  C         17.0830  -22.3490   -5.5220 C.2     1  UNL1        0.0480
     28  C         18.1690  -21.5080   -5.7900 C.2     1  UNL1        0.0300
     29  C         18.9270  -20.9730   -4.7480 C.2     1  UNL1        0.0020
     30  C         18.6030  -21.2770   -3.4310 C.2     1  UNL1        0.0010
     31  C         17.5290  -22.1230   -3.1570 C.2     1  UNL1        0.0090
     32  C         16.7610  -22.6830   -4.1950 C.2     1  UNL1       -0.0350
     33  C         15.6050  -23.5630   -3.8090 C.3     1  UNL1        0.0500
@<TRIPOS>BOND
     1    21    20    1
     2    20    18    1
     3    19    18    2
     4    18    16    1
     5    16    17    1
     6    16    15    2
     7    17    12    2
     8    15    14    1
     9    10     9    1
    10    12     9    1
    11    12    13    1
    12     2     3    1
    13     2     1    2
    14     9     8   am
    15     3     4    2
    16    14    13    2
    17     8     1    1
    18     8    11    2
    19     1     7    1
    20     5     4    1
    21     4     6    1
    22     7     6    2
    23     6    22    1
    24    23    22    2
    25    22    24    2
    26    22    25    1
    27    26    25    1
    28    25    27    1
    29    28    27    2
    30    28    29    1
    31    27    32    1
    32    29    30    2
    33    32    33    1
    34    32    31    2
    35    30    31    1
