@<TRIPOS>MOLECULE
67560_out_ligand_01.pdbqt
 37 40 0 0 0
SMALL
GASTEIGER

@<TRIPOS>ATOM
      1  C         17.6070  -23.5830   -8.5900 C.2     1  UNL1        0.1020
      2  C         18.9850  -23.8520   -8.4870 C.2     1  UNL1        0.0440
      3  C         19.8890  -23.3130   -9.4090 C.2     1  UNL1        0.0330
      4  C         19.4200  -22.5000  -10.4400 C.2     1  UNL1        0.0190
      5  C         18.0500  -22.2440  -10.5500 C.2     1  UNL1        0.0260
      6  C         17.1330  -22.7850   -9.6330 C.2     1  UNL1        0.0570
      7 CL         15.4860  -22.3650   -9.9040 Cl      1  UNL1       -0.0830
      8  C         21.3360  -23.6050   -9.2310 C.2     1  UNL1        0.2510
      9  O         21.6900  -24.7350   -8.9220 O.2     1  UNL1       -0.2680
     10  N         22.1950  -22.5510   -9.4490 N.am    1  UNL1       -0.3530
     11  H         21.8380  -21.7130   -9.8880 H       1  UNL1        0.1630
     12  C         23.6250  -22.7580   -9.5450 C.3     1  UNL1        0.1610
     13  C         24.0750  -22.5720  -10.9710 C.2     1  UNL1       -0.0400
     14  C         25.3410  -23.0030  -11.3750 C.2     1  UNL1        0.0110
     15  C         25.7390  -22.8790  -12.7110 C.2     1  UNL1        0.0300
     16  C         24.8880  -22.3370  -13.6860 C.2     1  UNL1        0.0300
     17  C         23.6220  -21.9120  -13.2650 C.2     1  UNL1        0.0300
     18  C         23.2160  -22.0280  -11.9300 C.2     1  UNL1        0.0110
     19  N         25.3320  -22.2400  -15.0110 N.pl3   1  UNL1       -0.3810
     20  C         24.7910  -21.0690  -15.7250 C.3     1  UNL1        0.1230
     21  C         25.0380  -21.1780  -17.2290 C.3     1  UNL1        0.0200
     22  C         24.4210  -22.4500  -17.8180 C.3     1  UNL1        0.0030
     23  C         24.4450  -23.6280  -16.8430 C.3     1  UNL1        0.0200
     24  C         25.5430  -23.4630  -15.7970 C.3     1  UNL1        0.1230
     25  S         16.5720  -24.3430   -7.3630 S.O2    1  UNL1        0.2650
     26  O         15.4320  -24.9880   -7.9680 O.2     1  UNL1       -0.2000
     27  O         17.4500  -25.1000   -6.4890 O.2     1  UNL1       -0.2000
     28  N         16.0530  -23.0340   -6.4360 N.pl3   1  UNL1       -0.2800
     29  H         15.0490  -23.0500   -6.2730 H       1  UNL1        0.1790
     30  C         16.9020  -22.4370   -5.4590 C.2     1  UNL1        0.0490
     31  C         16.6610  -22.6470   -4.0900 C.2     1  UNL1       -0.0350
     32  C         17.5300  -22.0640   -3.1530 C.2     1  UNL1        0.0090
     33  C         15.5330  -23.5040   -3.5880 C.3     1  UNL1        0.0500
     34  C         18.6020  -21.2710   -3.5660 C.2     1  UNL1        0.0070
     35  C         18.8360  -21.0520   -4.9240 C.2     1  UNL1       -0.0600
     36  C         19.9590  -20.1680   -5.3760 C.3     1  UNL1        0.0480
     37  C         17.9670  -21.6230   -5.8620 C.2     1  UNL1        0.0370
@<TRIPOS>BOND
     1    22    21    1
     2    22    23    1
     3    21    20    1
     4    23    24    1
     5    24    19    1
     6    20    19    1
     7    19    16    1
     8    16    17    2
     9    16    15    1
    10    17    18    1
    11    15    14    2
    12    18    13    2
    13    14    13    1
    14    13    12    1
    15     5     4    2
    16     5     6    1
    17     4     3    1
    18     7     6    1
    19    11    10    1
    20     6     1    2
    21    12    10    1
    22    10     8   am
    23     3     8    1
    24     3     2    2
    25     8     9    2
    26     1     2    1
    27     1    25    1
    28    26    25    2
    29    25    27    2
    30    25    28    1
    31    28    29    1
    32    28    30    1
    33    37    30    2
    34    37    35    1
    35    30    31    1
    36    36    35    1
    37    35    34    2
    38    31    33    1
    39    31    32    2
    40    34    32    1
