@<TRIPOS>MOLECULE
67569_out_ligand_01.pdbqt
 31 33 0 0 0
SMALL
GASTEIGER

@<TRIPOS>ATOM
      1  C         20.0070  -23.3630   -9.3940 C.2     1  UNL1        0.0330
      2  C         19.5890  -22.5030  -10.4100 C.2     1  UNL1        0.0170
      3  C         18.2340  -22.1790  -10.5330 C.2     1  UNL1        0.0090
      4  C         17.2740  -22.6820   -9.6340 C.2     1  UNL1       -0.0390
      5  C         15.8370  -22.2960   -9.8590 C.3     1  UNL1        0.0500
      6  C         17.7120  -23.5260   -8.5970 C.2     1  UNL1        0.0860
      7  C         19.0700  -23.8730   -8.4920 C.2     1  UNL1        0.0420
      8  C         21.4370  -23.7280   -9.2070 C.2     1  UNL1        0.2510
      9  N         22.3590  -22.7750   -9.5720 N.am    1  UNL1       -0.3530
     10  H         22.0540  -21.9850  -10.1220 H       1  UNL1        0.1630
     11  O         21.7240  -24.8370   -8.7720 O.2     1  UNL1       -0.2680
     12  C         23.7750  -23.0750   -9.6240 C.3     1  UNL1        0.1610
     13  C         24.3940  -22.4550  -10.8500 C.2     1  UNL1       -0.0400
     14  C         24.0810  -22.9490  -12.1250 C.2     1  UNL1        0.0090
     15  C         24.6180  -22.3530  -13.2650 C.2     1  UNL1        0.0010
     16  C         25.4710  -21.2570  -13.1430 C.2     1  UNL1        0.0070
     17  C         25.8010  -20.7500  -11.8800 C.2     1  UNL1       -0.0610
     18  C         26.7300  -19.5760  -11.7640 C.3     1  UNL1        0.0480
     19  C         25.2570  -21.3540  -10.7380 C.2     1  UNL1        0.0150
     20  S         16.6320  -24.2490   -7.3660 S.O2    1  UNL1        0.2630
     21  O         17.4720  -25.0300   -6.4790 O.2     1  UNL1       -0.2000
     22  O         15.4870  -24.8590   -8.0050 O.2     1  UNL1       -0.2000
     23  N         16.1290  -22.9140   -6.4680 N.pl3   1  UNL1       -0.2800
     24  H         15.1190  -22.8770   -6.3380 H       1  UNL1        0.1790
     25  C         16.9700  -22.3560   -5.4630 C.2     1  UNL1        0.0480
     26  C         18.0360  -21.5380   -5.8520 C.2     1  UNL1        0.0300
     27  C         18.8960  -20.9900   -4.9000 C.2     1  UNL1        0.0020
     28  C         18.6940  -21.2610   -3.5510 C.2     1  UNL1        0.0010
     29  C         17.6270  -22.0650   -3.1530 C.2     1  UNL1        0.0090
     30  C         16.7390  -22.6080   -4.0990 C.2     1  UNL1       -0.0350
     31  C         15.6270  -23.4860   -3.5950 C.3     1  UNL1        0.0500
@<TRIPOS>BOND
     1    15    16    2
     2    15    14    1
     3    16    17    1
     4    14    13    2
     5    17    18    1
     6    17    19    2
     7    13    19    1
     8    13    12    1
     9     3     2    1
    10     3     4    2
    11     2     1    2
    12    10     9    1
    13     5     4    1
    14     4     6    1
    15    12     9    1
    16     9     8   am
    17     1     8    1
    18     1     7    1
    19     8    11    2
    20     6     7    2
    21     6    20    1
    22    22    20    2
    23    20    21    2
    24    20    23    1
    25    23    24    1
    26    23    25    1
    27    26    25    2
    28    26    27    1
    29    25    30    1
    30    27    28    2
    31    30    31    1
    32    30    29    2
    33    28    29    1
