@<TRIPOS>MOLECULE
67579_out_ligand_01.pdbqt
 36 39 0 0 0
SMALL
GASTEIGER

@<TRIPOS>ATOM
      1  C         17.4710  -23.6230   -8.5430 C.2     1  UNL1        0.0860
      2  C         18.8520  -23.8840   -8.4540 C.2     1  UNL1        0.0420
      3  C         19.7410  -23.3230   -9.3730 C.2     1  UNL1        0.0330
      4  C         19.2540  -22.4800  -10.3740 C.2     1  UNL1        0.0170
      5  C         17.8810  -22.2260  -10.4690 C.2     1  UNL1        0.0090
      6  C         16.9660  -22.8010   -9.5660 C.2     1  UNL1       -0.0390
      7  C         15.5050  -22.4940   -9.7470 C.3     1  UNL1        0.0500
      8  C         21.1900  -23.6320   -9.2350 C.2     1  UNL1        0.2510
      9  O         21.5500  -24.7800   -8.9980 O.2     1  UNL1       -0.2680
     10  N         22.0530  -22.5790   -9.4290 N.am    1  UNL1       -0.3530
     11  H         21.7000  -21.6930   -9.7690 H       1  UNL1        0.1630
     12  C         23.4890  -22.7610   -9.4430 C.3     1  UNL1        0.1610
     13  C         24.0840  -22.1740  -10.6960 C.2     1  UNL1       -0.0400
     14  C         23.4720  -22.3770  -11.9330 C.2     1  UNL1        0.0110
     15  C         24.0120  -21.8130  -13.0980 C.2     1  UNL1        0.0300
     16  C         25.1920  -21.0430  -13.0920 C.2     1  UNL1        0.0300
     17  C         25.7860  -20.8570  -11.8330 C.2     1  UNL1        0.0300
     18  C         25.2470  -21.4040  -10.6560 C.2     1  UNL1        0.0110
     19  N         25.7050  -20.4840  -14.2640 N.pl3   1  UNL1       -0.3810
     20  C         25.2760  -20.9480  -15.5860 C.3     1  UNL1        0.1230
     21  C         26.3770  -20.7370  -16.6270 C.3     1  UNL1        0.0200
     22  C         27.0120  -19.3470  -16.5940 C.3     1  UNL1        0.0030
     23  C         26.3850  -18.4520  -15.5360 C.3     1  UNL1        0.0200
     24  C         26.3340  -19.1550  -14.1820 C.3     1  UNL1        0.1230
     25  S         16.4540  -24.4170   -7.3060 S.O2    1  UNL1        0.2630
     26  O         15.3170  -25.0730   -7.9090 O.2     1  UNL1       -0.2000
     27  O         17.3580  -25.1550   -6.4450 O.2     1  UNL1       -0.2000
     28  N         15.9130  -23.1050   -6.3950 N.pl3   1  UNL1       -0.2810
     29  H         15.3210  -22.4760   -6.9380 H       1  UNL1        0.1790
     30  C         16.7960  -22.5230   -5.4490 C.2     1  UNL1        0.0430
     31  C         16.5700  -22.7250   -4.0910 C.2     1  UNL1        0.0300
     32  C         17.4210  -22.1360   -3.1560 C.2     1  UNL1        0.0030
     33  C         18.4980  -21.3560   -3.5830 C.2     1  UNL1        0.0070
     34  C         18.7410  -21.1660   -4.9490 C.2     1  UNL1       -0.0600
     35  C         19.8840  -20.3050   -5.4030 C.3     1  UNL1        0.0480
     36  C         17.8730  -21.7480   -5.8810 C.2     1  UNL1        0.0370
@<TRIPOS>BOND
     1    21    22    1
     2    21    20    1
     3    22    23    1
     4    20    19    1
     5    23    24    1
     6    19    24    1
     7    19    16    1
     8    15    16    2
     9    15    14    1
    10    16    17    1
    11    14    13    2
    12    17    18    2
    13    13    18    1
    14    13    12    1
    15     5     4    2
    16     5     6    1
    17     4     3    1
    18    11    10    1
    19     7     6    1
    20     6     1    2
    21    12    10    1
    22    10     8   am
    23     3     8    1
    24     3     2    2
    25     8     9    2
    26     1     2    1
    27     1    25    1
    28    26    25    2
    29    25    27    2
    30    25    28    1
    31    29    28    1
    32    28    30    1
    33    36    30    2
    34    36    34    1
    35    30    31    1
    36    35    34    1
    37    34    33    2
    38    31    32    2
    39    33    32    1
