@<TRIPOS>MOLECULE
67586_out_ligand_01.pdbqt
 31 34 0 0 0
SMALL
GASTEIGER

@<TRIPOS>ATOM
      1  C         24.9880  -23.0210  -12.1520 C.2     1  UNL1        0.0860
      2  C         23.5860  -23.1020  -12.1870 C.2     1  UNL1        0.0420
      3  C         22.8170  -22.3190  -11.3240 C.2     1  UNL1        0.0340
      4  C         23.4350  -21.4100  -10.4650 C.2     1  UNL1        0.0170
      5  C         24.8280  -21.3230  -10.4360 C.2     1  UNL1        0.0090
      6  C         25.6290  -22.1290  -11.2670 C.2     1  UNL1       -0.0390
      7  C         27.1200  -21.9600  -11.1780 C.3     1  UNL1        0.0500
      8  S         25.8690  -24.0680  -13.3050 S.O2    1  UNL1        0.2630
      9  O         24.9360  -24.8670  -14.0680 O.2     1  UNL1       -0.2000
     10  O         26.9420  -24.7070  -12.5720 O.2     1  UNL1       -0.2000
     11  N         26.6140  -22.9430  -14.3000 N.pl3   1  UNL1       -0.2800
     12  H         27.6270  -22.8900  -14.2230 H       1  UNL1        0.1790
     13  C         25.9710  -22.4180  -15.4490 C.2     1  UNL1        0.0480
     14  C         25.8810  -23.1940  -16.6080 C.2     1  UNL1        0.0300
     15  C         25.3020  -22.6700  -17.7630 C.2     1  UNL1        0.0020
     16  C         24.8290  -21.3610  -17.7680 C.2     1  UNL1        0.0010
     17  C         24.9520  -20.5690  -16.6240 C.2     1  UNL1        0.0090
     18  C         25.5460  -21.0800  -15.4590 C.2     1  UNL1       -0.0350
     19  C         25.6460  -20.2020  -14.2430 C.3     1  UNL1        0.0500
     20  C         21.3360  -22.4150  -11.3870 C.2     1  UNL1        0.2580
     21  O         20.8310  -22.0670  -12.4520 O.2     1  UNL1       -0.2670
     22  N         20.6520  -22.9050  -10.2580 N.am    1  UNL1       -0.3130
     23  C         21.3430  -23.7370   -9.2640 C.3     1  UNL1        0.1330
     24  C         19.2460  -22.6570  -10.0380 C.2     1  UNL1        0.0430
     25  C         20.4840  -24.8840   -8.7640 C.3     1  UNL1        0.0250
     26  C         19.2450  -24.3200   -8.1020 C.3     1  UNL1        0.0420
     27  C         18.5590  -23.3240   -9.0000 C.2     1  UNL1       -0.0310
     28  C         17.2010  -23.0490   -8.7530 C.2     1  UNL1        0.0090
     29  C         16.5080  -22.1320   -9.5340 C.2     1  UNL1        0.0010
     30  C         17.1700  -21.4710  -10.5590 C.2     1  UNL1        0.0020
     31  C         18.5240  -21.7280  -10.8020 C.2     1  UNL1        0.0300
@<TRIPOS>BOND
     1    16    15    2
     2    16    17    1
     3    15    14    1
     4    17    18    2
     5    14    13    2
     6    18    13    1
     7    18    19    1
     8    13    11    1
     9    11    12    1
    10    11     8    1
    11     9     8    2
    12     8    10    2
    13     8     1    1
    14    21    20    2
    15     2     1    2
    16     2     3    1
    17     1     6    1
    18    20     3    1
    19    20    22   am
    20     3     4    2
    21     6     7    1
    22     6     5    2
    23    31    30    1
    24    31    24    2
    25    30    29    2
    26     4     5    1
    27    22    24    1
    28    22    23    1
    29    24    27    1
    30    29    28    1
    31    23    25    1
    32    27    28    2
    33    27    26    1
    34    25    26    1
