@<TRIPOS>MOLECULE
67583_out_ligand_01.pdbqt
 31 34 0 0 0
SMALL
GASTEIGER

@<TRIPOS>ATOM
      1  C         20.4570  -22.7490   -7.7220 C.2     1  UNL1        0.0320
      2  C         21.4420  -21.7560   -7.6500 C.2     1  UNL1        0.0170
      3  C         22.6630  -21.9320   -8.3100 C.2     1  UNL1        0.0100
      4  C         22.9240  -23.1040   -9.0360 C.2     1  UNL1       -0.0300
      5  C         21.9490  -24.1090   -9.0760 C.2     1  UNL1        0.0100
      6  C         20.7250  -23.9320   -8.4230 C.2     1  UNL1        0.0170
      7  C         19.1210  -22.6080   -7.0700 C.2     1  UNL1        0.2510
      8  N         18.1650  -23.5400   -7.4130 N.am    1  UNL1       -0.3570
      9  H         18.4250  -24.3290   -7.9870 H       1  UNL1        0.1620
     10  O         18.9330  -21.7150   -6.2520 O.2     1  UNL1       -0.2680
     11  C         16.8530  -23.5820   -6.7920 C.3     1  UNL1        0.1230
     12  C         15.7820  -22.9240   -7.6630 C.3     1  UNL1        0.0240
     13  C         15.8050  -23.3660   -9.1300 C.3     1  UNL1        0.0400
     14  C         16.8500  -22.6480   -9.9540 C.2     1  UNL1       -0.0580
     15  C         17.9870  -23.3230  -10.4100 C.2     1  UNL1        0.0070
     16  C         18.9560  -22.6570  -11.1650 C.2     1  UNL1        0.0070
     17  C         18.7990  -21.3060  -11.4910 C.2     1  UNL1       -0.0620
     18  C         19.8520  -20.5940  -12.2850 C.3     1  UNL1        0.0480
     19  C         17.6730  -20.6230  -11.0230 C.2     1  UNL1        0.0070
     20  C         16.7030  -21.2900  -10.2670 C.2     1  UNL1        0.0070
     21  C         24.2390  -23.2720   -9.7670 C.3     1  UNL1        0.3110
     22  N         24.4950  -22.1970  -10.7400 N.3     1  UNL1        0.0970
     23  C         25.8970  -21.7600  -10.6650 C.3     1  UNL1        0.2770
     24  C         26.1240  -20.5140  -11.5310 C.3     1  UNL1        0.0690
     25  C         25.5810  -20.6760  -12.9280 C.2     1  UNL1       -0.0490
     26  C         25.9820  -19.8040  -13.9480 C.2     1  UNL1        0.0070
     27  C         24.6250  -21.6700  -13.1920 C.2     1  UNL1       -0.0240
     28  C         25.4530  -19.9340  -15.2310 C.2     1  UNL1        0.0010
     29  C         24.5180  -20.9300  -15.5030 C.2     1  UNL1        0.0010
     30  C         24.1080  -21.7960  -14.4900 C.2     1  UNL1        0.0090
     31  C         24.1950  -22.6480  -12.1160 C.3     1  UNL1        0.3110
@<TRIPOS>BOND
     1    29    28    2
     2    29    30    1
     3    28    26    1
     4    30    27    2
     5    26    25    2
     6    27    25    1
     7    27    31    1
     8    25    24    1
     9    18    17    1
    10    31    22    1
    11    24    23    1
    12    17    16    2
    13    17    19    1
    14    16    15    1
    15    19    20    2
    16    22    23    1
    17    22    21    1
    18    15    14    2
    19    20    14    1
    20    14    13    1
    21    21     4    1
    22    13    12    1
    23     5     4    2
    24     5     6    1
    25     4     3    1
    26     6     1    2
    27     3     2    2
    28     9     8    1
    29     1     2    1
    30     1     7    1
    31    12    11    1
    32     8     7   am
    33     8    11    1
    34     7    10    2
