@<TRIPOS>MOLECULE
67593_out_ligand_01.pdbqt
 32 34 0 0 0
SMALL
GASTEIGER

@<TRIPOS>ATOM
      1  C         19.9170  -23.3570   -9.3700 C.2     1  UNL1        0.0330
      2  C         19.4710  -22.5160  -10.3910 C.2     1  UNL1        0.0170
      3  C         18.1100  -22.2190  -10.5070 C.2     1  UNL1        0.0090
      4  C         17.1660  -22.7420   -9.6030 C.2     1  UNL1       -0.0390
      5  C         15.7220  -22.3750   -9.8040 C.3     1  UNL1        0.0500
      6  C         17.6290  -23.5750   -8.5660 C.2     1  UNL1        0.0860
      7  C         18.9980  -23.8780   -8.4550 C.2     1  UNL1        0.0420
      8  S         16.5610  -24.3270   -7.3450 S.O2    1  UNL1        0.2630
      9  O         17.4160  -25.0860   -6.4540 O.2     1  UNL1       -0.2000
     10  O         15.4310  -24.9640   -7.9800 O.2     1  UNL1       -0.2000
     11  N         16.0330  -22.9950   -6.4490 N.pl3   1  UNL1       -0.2800
     12  H         15.5170  -22.3380   -7.0310 H       1  UNL1        0.1790
     13  C         16.9000  -22.4620   -5.4530 C.2     1  UNL1        0.0490
     14  C         17.9590  -21.6460   -5.8630 C.2     1  UNL1        0.0370
     15  C         18.8060  -21.0470   -4.9240 C.2     1  UNL1       -0.0600
     16  C         19.9580  -20.1990   -5.3700 C.3     1  UNL1        0.0480
     17  C         18.5920  -21.2990   -3.5660 C.2     1  UNL1        0.0070
     18  C         17.5380  -22.1170   -3.1540 C.2     1  UNL1        0.0090
     19  C         16.6780  -22.7110   -4.0910 C.2     1  UNL1       -0.0350
     20  C         15.5450  -23.5710   -3.6100 C.3     1  UNL1        0.0500
     21  C         21.3550  -23.6970   -9.2020 C.2     1  UNL1        0.2510
     22  N         22.2520  -22.6870   -9.4660 N.am    1  UNL1       -0.3530
     23  H         21.9270  -21.8690   -9.9640 H       1  UNL1        0.1630
     24  O         21.6770  -24.8340   -8.8730 O.2     1  UNL1       -0.2680
     25  C         23.6760  -22.9420   -9.5200 C.3     1  UNL1        0.1610
     26  C         24.2710  -22.3680  -10.7790 C.2     1  UNL1       -0.0400
     27  C         23.9320  -22.8870  -12.0350 C.2     1  UNL1        0.0090
     28  C         24.5040  -22.3600  -13.1940 C.2     1  UNL1        0.0010
     29  C         25.4270  -21.3180  -13.1080 C.2     1  UNL1        0.0070
     30  C         25.7960  -20.7990  -11.8610 C.2     1  UNL1       -0.0610
     31  C         26.7700  -19.6630  -11.7650 C.3     1  UNL1        0.0480
     32  C         25.2040  -21.3210  -10.7050 C.2     1  UNL1        0.0150
@<TRIPOS>BOND
     1    28    29    2
     2    28    27    1
     3    29    30    1
     4    27    26    2
     5    30    31    1
     6    30    32    2
     7    26    32    1
     8    26    25    1
     9     3     2    1
    10     3     4    2
    11     2     1    2
    12    23    22    1
    13     5     4    1
    14     4     6    1
    15    25    22    1
    16    22    21   am
    17     1    21    1
    18     1     7    1
    19    21    24    2
    20     6     7    2
    21     6     8    1
    22    10     8    2
    23     8     9    2
    24     8    11    1
    25    12    11    1
    26    11    13    1
    27    14    13    2
    28    14    15    1
    29    13    19    1
    30    16    15    1
    31    15    17    2
    32    19    20    1
    33    19    18    2
    34    17    18    1
