@<TRIPOS>MOLECULE
67590_out_ligand_01.pdbqt
 32 35 0 0 0
SMALL
GASTEIGER

@<TRIPOS>ATOM
      1  C         21.1740  -22.2320  -10.0110 C.2     1  UNL1        0.0860
      2  C         20.4860  -22.7440   -8.8970 C.2     1  UNL1        0.0420
      3  C         19.0940  -22.6700   -8.8430 C.2     1  UNL1        0.0340
      4  C         18.3770  -22.1380   -9.9160 C.2     1  UNL1        0.0170
      5  C         19.0610  -21.6340  -11.0240 C.2     1  UNL1        0.0090
      6  C         20.4670  -21.6630  -11.0890 C.2     1  UNL1       -0.0390
      7  C         21.1240  -21.1030  -12.3200 C.3     1  UNL1        0.0500
      8  S         22.9560  -22.3760   -9.9630 S.O2    1  UNL1        0.2630
      9  O         23.3830  -23.1040   -8.7900 O.2     1  UNL1       -0.2000
     10  O         23.5010  -21.0630  -10.2450 O.2     1  UNL1       -0.2000
     11  N         23.2750  -23.3050  -11.3430 N.pl3   1  UNL1       -0.2810
     12  H         22.4060  -23.6800  -11.7240 H       1  UNL1        0.1790
     13  C         24.2310  -22.8120  -12.2710 C.2     1  UNL1        0.0430
     14  C         25.5910  -22.9560  -12.0220 C.2     1  UNL1        0.0300
     15  C         26.5160  -22.5030  -12.9620 C.2     1  UNL1        0.0090
     16  C         26.0910  -21.9060  -14.1610 C.2     1  UNL1       -0.0560
     17  C         27.1200  -21.4250  -15.1470 C.3     1  UNL1        0.0490
     18  C         24.7100  -21.7590  -14.4090 C.2     1  UNL1       -0.0540
     19  C         23.7900  -22.2270  -13.4570 C.2     1  UNL1        0.0370
     20  C         24.2000  -21.1320  -15.6780 C.3     1  UNL1        0.0490
     21  C         18.3810  -23.2400   -7.6730 C.2     1  UNL1        0.2580
     22  O         17.9320  -24.3730   -7.8320 O.2     1  UNL1       -0.2670
     23  N         18.2770  -22.4490   -6.5110 N.am    1  UNL1       -0.3130
     24  C         19.3960  -21.5660   -6.1440 C.3     1  UNL1        0.1330
     25  C         17.3170  -22.7500   -5.4710 C.2     1  UNL1        0.0430
     26  C         19.0160  -20.4930   -5.1430 C.3     1  UNL1        0.0250
     27  C         18.5140  -21.1580   -3.8790 C.3     1  UNL1        0.0420
     28  C         17.4150  -22.1340   -4.2030 C.2     1  UNL1       -0.0310
     29  C         16.4900  -22.4440   -3.1880 C.2     1  UNL1        0.0090
     30  C         15.4390  -23.3240   -3.4280 C.2     1  UNL1        0.0010
     31  C         15.3010  -23.8960   -4.6850 C.2     1  UNL1        0.0020
     32  C         16.2260  -23.6060   -5.6940 C.2     1  UNL1        0.0300
@<TRIPOS>BOND
     1    20    18    1
     2    17    16    1
     3    18    16    2
     4    18    19    1
     5    16    15    1
     6    19    13    2
     7    15    14    2
     8     7     6    1
     9    13    14    1
    10    13    11    1
    11    12    11    1
    12    11     8    1
    13     6     5    1
    14     6     1    2
    15     5     4    2
    16    10     8    2
    17     1     8    1
    18     1     2    1
    19     8     9    2
    20     4     3    1
    21     2     3    2
    22     3    21    1
    23    22    21    2
    24    21    23   am
    25    23    24    1
    26    23    25    1
    27    24    26    1
    28    32    25    2
    29    32    31    1
    30    25    28    1
    31    26    27    1
    32    31    30    2
    33    28    27    1
    34    28    29    2
    35    30    29    1
