@<TRIPOS>MOLECULE
67606_out_ligand_01.pdbqt
 33 35 0 0 0
SMALL
GASTEIGER

@<TRIPOS>ATOM
      1  C         20.0180  -23.3420   -9.4620 C.2     1  UNL1        0.0330
      2  C         19.5220  -22.5620  -10.5100 C.2     1  UNL1        0.0170
      3  C         18.1510  -22.3040  -10.6070 C.2     1  UNL1        0.0090
      4  C         17.2450  -22.8190   -9.6640 C.2     1  UNL1       -0.0390
      5  C         15.7870  -22.4890   -9.8250 C.3     1  UNL1        0.0500
      6  C         17.7570  -23.5780   -8.5940 C.2     1  UNL1        0.0810
      7  C         19.1340  -23.8330   -8.4940 C.2     1  UNL1        0.0420
      8  C         21.4690  -23.6510   -9.3160 C.2     1  UNL1        0.2510
      9  N         22.3530  -22.7160   -9.8140 N.am    1  UNL1       -0.3570
     10  H         22.0160  -21.9540  -10.3850 H       1  UNL1        0.1620
     11  O         21.8230  -24.7040   -8.8000 O.2     1  UNL1       -0.2680
     12  C         23.7860  -22.9300   -9.7830 C.3     1  UNL1        0.1230
     13  C         24.5490  -22.0850  -10.8050 C.3     1  UNL1        0.0240
     14  C         23.7990  -21.8500  -12.1210 C.3     1  UNL1        0.0400
     15  C         24.3910  -22.5650  -13.3110 C.2     1  UNL1       -0.0580
     16  C         24.9870  -23.8240  -13.1640 C.2     1  UNL1        0.0070
     17  C         25.5230  -24.4850  -14.2690 C.2     1  UNL1        0.0010
     18  C         25.4790  -23.8910  -15.5290 C.2     1  UNL1        0.0070
     19  C         24.9100  -22.6230  -15.6950 C.2     1  UNL1       -0.0610
     20  C         24.8430  -21.9940  -17.0540 C.3     1  UNL1        0.0480
     21  C         24.3590  -21.9730  -14.5820 C.2     1  UNL1        0.0130
     22  S         16.6970  -24.2340   -7.3090 S.O2    1  UNL1        0.2460
     23  O         15.5600  -24.8610   -7.9500 O.2     1  UNL1       -0.2060
     24  O         17.5290  -24.9560   -6.3720 O.2     1  UNL1       -0.2060
     25  N         16.1280  -22.7820   -6.6130 N.pl3   1  UNL1       -0.1810
     26  H         15.1540  -22.9250   -6.3470 H       1  UNL1        0.1460
     27  C         16.9160  -22.3010   -5.5100 C.2     1  UNL1        0.0280
     28  C         18.0490  -21.5300   -5.7940 C.2     1  UNL1        0.0250
     29  C         18.8620  -21.0640   -4.7620 C.2     1  UNL1        0.0020
     30  C         18.5510  -21.3730   -3.4410 C.2     1  UNL1        0.0010
     31  C         17.4270  -22.1470   -3.1530 C.2     1  UNL1        0.0080
     32  C         16.5940  -22.6230   -4.1810 C.2     1  UNL1       -0.0400
     33  C         15.4040  -23.4650   -3.8190 C.3     1  UNL1        0.0500
@<TRIPOS>BOND
     1    20    19    1
     2    19    18    2
     3    19    21    1
     4    18    17    1
     5    21    15    2
     6    17    16    2
     7    15    16    1
     8    15    14    1
     9    14    13    1
    10    13    12    1
    11     3     2    1
    12     3     4    2
    13     2     1    2
    14    10     9    1
    15     5     4    1
    16     9    12    1
    17     9     8   am
    18     4     6    1
    19     1     8    1
    20     1     7    1
    21     8    11    2
    22     6     7    2
    23     6    22    1
    24    23    22    2
    25    22    25    1
    26    22    24    2
    27    25    26    1
    28    25    27    1
    29    28    27    2
    30    28    29    1
    31    27    32    1
    32    29    30    2
    33    32    33    1
    34    32    31    2
    35    30    31    1
