@<TRIPOS>MOLECULE
67608_out_ligand_01.pdbqt
 34 36 0 0 0
SMALL
GASTEIGER

@<TRIPOS>ATOM
      1  C         19.7880  -22.9540   -9.4540 C.2     1  UNL1        0.0330
      2  C         19.1750  -22.2660  -10.5040 C.2     1  UNL1        0.0170
      3  C         17.7810  -22.2030  -10.5790 C.2     1  UNL1        0.0090
      4  C         16.9730  -22.8360   -9.6190 C.2     1  UNL1       -0.0390
      5  C         15.4800  -22.7220   -9.7580 C.3     1  UNL1        0.0500
      6  C         17.6040  -23.5290   -8.5660 C.2     1  UNL1        0.0810
      7  C         19.0030  -23.5900   -8.4880 C.2     1  UNL1        0.0420
      8  C         21.2670  -23.0670   -9.3540 C.2     1  UNL1        0.2510
      9  N         21.9780  -21.8960   -9.4930 N.am    1  UNL1       -0.3570
     10  H         21.4860  -21.0150   -9.4620 H       1  UNL1        0.1620
     11  O         21.7800  -24.1590   -9.1470 O.2     1  UNL1       -0.2680
     12  C         23.4190  -21.8500   -9.3410 C.3     1  UNL1        0.1230
     13  C         24.1720  -21.7060  -10.6650 C.3     1  UNL1        0.0240
     14  C         24.5840  -23.0350  -11.3090 C.3     1  UNL1        0.0400
     15  C         24.6540  -23.0070  -12.8170 C.2     1  UNL1       -0.0580
     16  C         25.2810  -24.0390  -13.5260 C.2     1  UNL1        0.0070
     17  C         25.3370  -24.0080  -14.9210 C.2     1  UNL1        0.0070
     18  C         24.7730  -22.9440  -15.6320 C.2     1  UNL1       -0.0620
     19  C         24.8040  -22.9370  -17.1320 C.3     1  UNL1        0.0480
     20  C         24.1310  -21.9220  -14.9280 C.2     1  UNL1        0.0070
     21  C         24.0740  -21.9520  -13.5320 C.2     1  UNL1        0.0070
     22  S         16.6670  -24.3510   -7.2800 S.O2    1  UNL1        0.2460
     23  O         15.5640  -25.0390   -7.9140 O.2     1  UNL1       -0.2060
     24  O         17.6020  -25.0500   -6.4290 O.2     1  UNL1       -0.2060
     25  N         16.0160  -22.9980   -6.4700 N.pl3   1  UNL1       -0.1810
     26  H         15.0960  -23.2490   -6.1090 H       1  UNL1        0.1460
     27  C         16.8670  -22.4410   -5.4550 C.2     1  UNL1        0.0290
     28  C         17.9300  -21.6210   -5.8520 C.2     1  UNL1        0.0310
     29  C         18.7960  -21.0600   -4.9070 C.2     1  UNL1       -0.0600
     30  C         19.9580  -20.2180   -5.3440 C.3     1  UNL1        0.0480
     31  C         18.5990  -21.3470   -3.5550 C.2     1  UNL1        0.0070
     32  C         17.5440  -22.1700   -3.1530 C.2     1  UNL1        0.0090
     33  C         16.6660  -22.7290   -4.0940 C.2     1  UNL1       -0.0400
     34  C         15.5540  -23.6170   -3.6140 C.3     1  UNL1        0.0500
@<TRIPOS>BOND
     1    19    18    1
     2    18    20    2
     3    18    17    1
     4    20    21    1
     5    17    16    2
     6    21    15    2
     7    16    15    1
     8    15    14    1
     9    14    13    1
    10    13    12    1
    11     3     2    1
    12     3     4    2
    13     2     1    2
    14     5     4    1
    15     4     6    1
    16     9    10    1
    17     9     8   am
    18     9    12    1
    19     1     8    1
    20     1     7    1
    21     8    11    2
    22     6     7    2
    23     6    22    1
    24    23    22    2
    25    22    25    1
    26    22    24    2
    27    25    26    1
    28    25    27    1
    29    28    27    2
    30    28    29    1
    31    27    33    1
    32    30    29    1
    33    29    31    2
    34    33    34    1
    35    33    32    2
    36    31    32    1
