@<TRIPOS>MOLECULE
67603_out_ligand_01.pdbqt
 35 38 0 0 0
SMALL
GASTEIGER

@<TRIPOS>ATOM
      1  C         15.8160  -22.4690   -9.8030 C.3     1  UNL1        0.0500
      2  C         17.2730  -22.7990   -9.6250 C.2     1  UNL1       -0.0390
      3  C         18.1890  -22.3010  -10.5670 C.2     1  UNL1        0.0090
      4  C         19.5570  -22.5550  -10.4430 C.2     1  UNL1        0.0170
      5  C         20.0440  -23.2980   -9.3640 C.2     1  UNL1        0.0330
      6  C         19.1490  -23.8130   -8.4220 C.2     1  UNL1        0.0420
      7  C         17.7710  -23.5650   -8.5520 C.2     1  UNL1        0.0810
      8  C         21.5100  -23.5370   -9.2730 C.2     1  UNL1        0.2510
      9  O         21.9270  -24.6160   -8.8680 O.2     1  UNL1       -0.2680
     10  N         22.3220  -22.5060   -9.6920 N.am    1  UNL1       -0.3530
     11  H         21.9190  -21.7520  -10.2320 H       1  UNL1        0.1630
     12  C         23.7540  -22.6760   -9.8050 C.3     1  UNL1        0.1610
     13  C         24.2600  -22.1120  -11.1060 C.2     1  UNL1       -0.0400
     14  C         25.4850  -21.4430  -11.1730 C.2     1  UNL1        0.0100
     15  C         25.9320  -20.9060  -12.3870 C.2     1  UNL1        0.0240
     16  C         25.1800  -21.0130  -13.5690 C.2     1  UNL1        0.0100
     17  C         23.9430  -21.6630  -13.4760 C.2     1  UNL1        0.0240
     18  C         23.4900  -22.2090  -12.2690 C.2     1  UNL1        0.0100
     19  N         25.6770  -20.4480  -14.7560 N.pl3   1  UNL1       -0.2790
     20  C         25.9920  -19.0020  -14.7540 C.3     1  UNL1        0.1220
     21  C         26.7050  -18.6230  -16.0620 C.3     1  UNL1        0.1820
     22  O         25.9050  -18.9580  -17.2080 O.3     1  UNL1       -0.3890
     23  C         25.6480  -20.3710  -17.2300 C.3     1  UNL1        0.1820
     24  C         24.9090  -20.8380  -15.9640 C.3     1  UNL1        0.1220
     25  S         16.6880  -24.2540   -7.3050 S.O2    1  UNL1        0.2460
     26  O         17.5020  -25.0200   -6.3890 O.2     1  UNL1       -0.2060
     27  O         15.5550  -24.8440   -7.9890 O.2     1  UNL1       -0.2060
     28  N         16.1100  -22.8340   -6.5580 N.pl3   1  UNL1       -0.1810
     29  H         15.1690  -23.0260   -6.2080 H       1  UNL1        0.1460
     30  C         16.9550  -22.3430   -5.5090 C.2     1  UNL1        0.0220
     31  C         16.6270  -22.6030   -4.1790 C.2     1  UNL1        0.0240
     32  C         17.4270  -22.0960   -3.1530 C.2     1  UNL1        0.0020
     33  C         18.5450  -21.3200   -3.4590 C.2     1  UNL1        0.0000
     34  C         18.8600  -21.0440   -4.7900 C.2     1  UNL1        0.0020
     35  C         18.0620  -21.5510   -5.8170 C.2     1  UNL1        0.0240
@<TRIPOS>BOND
     1    23    22    1
     2    23    24    1
     3    22    21    1
     4    21    20    1
     5    24    19    1
     6    19    20    1
     7    19    16    1
     8    16    17    2
     9    16    15    1
    10    17    18    1
    11    15    14    2
    12    18    13    2
    13    14    13    1
    14    13    12    1
    15     3     4    1
    16     3     2    2
    17     4     5    2
    18    11    10    1
    19    12    10    1
    20     1     2    1
    21    10     8   am
    22     2     7    1
    23     5     8    1
    24     5     6    1
    25     8     9    2
    26     7     6    2
    27     7    25    1
    28    27    25    2
    29    25    28    1
    30    25    26    2
    31    28    29    1
    32    28    30    1
    33    35    30    2
    34    35    34    1
    35    30    31    1
    36    34    33    2
    37    31    32    2
    38    33    32    1
