@<TRIPOS>MOLECULE
67600_out_ligand_01.pdbqt
 34 36 0 0 0
SMALL
GASTEIGER

@<TRIPOS>ATOM
      1  C         19.8350  -23.1710   -9.4690 C.2     1  UNL1        0.0330
      2  C         19.2700  -22.4020  -10.4880 C.2     1  UNL1        0.0170
      3  C         17.8870  -22.2060  -10.5350 C.2     1  UNL1        0.0090
      4  C         17.0360  -22.7830   -9.5760 C.2     1  UNL1       -0.0390
      5  C         15.5570  -22.5420   -9.6970 C.3     1  UNL1        0.0500
      6  C         17.6120  -23.5710   -8.5610 C.2     1  UNL1        0.0810
      7  C         19.0020  -23.7610   -8.5110 C.2     1  UNL1        0.0420
      8  C         21.3040  -23.4100   -9.3760 C.2     1  UNL1        0.2510
      9  N         22.1210  -22.3290   -9.6250 N.am    1  UNL1       -0.3570
     10  H         21.7180  -21.4030   -9.6960 H       1  UNL1        0.1620
     11  O         21.7230  -24.5230   -9.0730 O.2     1  UNL1       -0.2680
     12  C         23.5600  -22.4010   -9.4720 C.3     1  UNL1        0.1230
     13  C         24.3360  -21.8360  -10.6640 C.3     1  UNL1        0.0240
     14  C         23.5500  -21.8210  -11.9800 C.3     1  UNL1        0.0400
     15  C         24.2510  -22.4880  -13.1370 C.2     1  UNL1       -0.0580
     16  C         24.9270  -23.7030  -12.9460 C.2     1  UNL1        0.0070
     17  C         25.5730  -24.3290  -14.0120 C.2     1  UNL1        0.0010
     18  C         25.5590  -23.7450  -15.2790 C.2     1  UNL1        0.0070
     19  C         24.9030  -22.5240  -15.4890 C.2     1  UNL1       -0.0610
     20  C         24.8640  -21.9190  -16.8610 C.3     1  UNL1        0.0480
     21  C         24.2510  -21.9040  -14.4130 C.2     1  UNL1        0.0130
     22  S         16.6260  -24.3480   -7.2830 S.O2    1  UNL1        0.2460
     23  O         17.5220  -25.0800   -6.4150 O.2     1  UNL1       -0.2060
     24  O         15.5100  -25.0020   -7.9350 O.2     1  UNL1       -0.2060
     25  N         15.9980  -22.9800   -6.4710 N.pl3   1  UNL1       -0.1810
     26  H         15.0980  -23.2440   -6.0620 H       1  UNL1        0.1460
     27  C         16.8770  -22.4530   -5.4590 C.2     1  UNL1        0.0290
     28  C         17.9550  -21.6510   -5.8590 C.2     1  UNL1        0.0310
     29  C         18.8010  -21.0620   -4.9100 C.2     1  UNL1       -0.0600
     30  C         19.9480  -20.2020   -5.3430 C.3     1  UNL1        0.0480
     31  C         18.5700  -21.3080   -3.5540 C.2     1  UNL1        0.0070
     32  C         17.4940  -22.1040   -3.1530 C.2     1  UNL1        0.0090
     33  C         16.6380  -22.6910   -4.0990 C.2     1  UNL1       -0.0400
     34  C         15.4820  -23.5210   -3.6190 C.3     1  UNL1        0.0500
@<TRIPOS>BOND
     1    20    19    1
     2    19    18    2
     3    19    21    1
     4    18    17    1
     5    21    15    2
     6    17    16    2
     7    15    16    1
     8    15    14    1
     9    14    13    1
    10    13    12    1
    11     3     2    1
    12     3     4    2
    13     2     1    2
    14     5     4    1
    15    10     9    1
    16     9    12    1
    17     9     8   am
    18     4     6    1
    19     1     8    1
    20     1     7    1
    21     8    11    2
    22     6     7    2
    23     6    22    1
    24    24    22    2
    25    22    25    1
    26    22    23    2
    27    25    26    1
    28    25    27    1
    29    28    27    2
    30    28    29    1
    31    27    33    1
    32    30    29    1
    33    29    31    2
    34    33    34    1
    35    33    32    2
    36    31    32    1
