@<TRIPOS>MOLECULE
67616_out_ligand_01.pdbqt
 32 34 0 0 0
SMALL
GASTEIGER

@<TRIPOS>ATOM
      1  C         20.6230  -22.7460  -10.0910 C.2     1  UNL1        0.0330
      2  C         20.4580  -21.7970  -11.1010 C.2     1  UNL1        0.0170
      3  C         19.1830  -21.3000  -11.3920 C.2     1  UNL1        0.0090
      4  C         18.0470  -21.7380  -10.6860 C.2     1  UNL1       -0.0390
      5  C         16.7140  -21.1560  -11.0660 C.3     1  UNL1        0.0500
      6  C         18.2270  -22.6900   -9.6640 C.2     1  UNL1        0.0860
      7  C         19.5110  -23.1750   -9.3610 C.2     1  UNL1        0.0420
      8  S         16.8910  -23.3580   -8.6800 S.O2    1  UNL1        0.2630
      9  O         17.3640  -24.4170   -7.8180 O.2     1  UNL1       -0.2000
     10  O         15.7830  -23.5930   -9.5820 O.2     1  UNL1       -0.2000
     11  N         16.4430  -22.0270   -7.7380 N.pl3   1  UNL1       -0.2800
     12  H         15.7200  -21.4710   -8.1920 H       1  UNL1        0.1790
     13  C         16.3820  -22.1820   -6.3250 C.2     1  UNL1        0.0490
     14  C         15.1590  -22.5750   -5.7740 C.2     1  UNL1        0.0310
     15  C         15.0270  -22.7240   -4.3990 C.2     1  UNL1        0.0030
     16  C         16.1140  -22.4660   -3.5670 C.2     1  UNL1        0.0070
     17  C         17.3460  -22.0560   -4.0990 C.2     1  UNL1       -0.0540
     18  C         18.4870  -21.7830   -3.1530 C.3     1  UNL1        0.0490
     19  C         17.4970  -21.9290   -5.5000 C.2     1  UNL1       -0.0290
     20  C         18.8120  -21.4690   -6.0790 C.3     1  UNL1        0.0510
     21  C         21.9550  -23.3110   -9.7450 C.2     1  UNL1        0.2510
     22  N         23.0500  -22.6170  -10.2050 N.am    1  UNL1       -0.3530
     23  H         22.9360  -21.8170  -10.8100 H       1  UNL1        0.1630
     24  O         22.0320  -24.3610   -9.1190 O.2     1  UNL1       -0.2680
     25  C         24.3960  -23.0910   -9.9750 C.3     1  UNL1        0.1610
     26  C         25.3380  -22.5130  -10.9990 C.2     1  UNL1       -0.0400
     27  C         25.9430  -23.3300  -11.9620 C.2     1  UNL1        0.0090
     28  C         26.8250  -22.7830  -12.8980 C.2     1  UNL1        0.0010
     29  C         27.1200  -21.4170  -12.8660 C.2     1  UNL1        0.0070
     30  C         26.5370  -20.5850  -11.9020 C.2     1  UNL1       -0.0610
     31  C         26.8390  -19.1130  -11.8630 C.3     1  UNL1        0.0480
     32  C         25.6440  -21.1410  -10.9760 C.2     1  UNL1        0.0150
@<TRIPOS>BOND
     1    28    29    2
     2    28    27    1
     3    29    30    1
     4    27    26    2
     5    30    31    1
     6    30    32    2
     7     3     2    1
     8     3     4    2
     9     2     1    2
    10     5     4    1
    11    26    32    1
    12    26    25    1
    13    23    22    1
    14     4     6    1
    15    22    25    1
    16    22    21   am
    17     1    21    1
    18     1     7    1
    19    21    24    2
    20     6     7    2
    21     6     8    1
    22    10     8    2
    23     8     9    2
    24     8    11    1
    25    12    11    1
    26    11    13    1
    27    13    14    2
    28    13    19    1
    29    20    19    1
    30    14    15    1
    31    19    17    2
    32    15    16    2
    33    17    16    1
    34    17    18    1
