@<TRIPOS>MOLECULE
6762_out_ligand_01.pdbqt
 33 36 0 0 0
SMALL
GASTEIGER

@<TRIPOS>ATOM
      1  C         21.7800  -21.7900  -11.5170 C.2     1  UNL1        0.0360
      2  C         21.4030  -22.7800  -10.6070 C.2     1  UNL1        0.0300
      3  C         20.0670  -22.9040  -10.2060 C.2     1  UNL1        0.0190
      4  C         19.0890  -22.0490  -10.7230 C.2     1  UNL1        0.0320
      5  C         19.4600  -21.0490  -11.6280 C.2     1  UNL1        0.0190
      6  C         20.7980  -20.9280  -12.0240 C.2     1  UNL1        0.0300
      7  N         23.0970  -21.6060  -11.9810 N.am    1  UNL1       -0.3090
      8  C         24.2460  -21.4460  -11.2330 C.2     1  UNL1        0.3270
      9  N         25.4280  -21.3570  -11.9860 N.am    1  UNL1       -0.2960
     10  O         24.2620  -21.3070  -10.0110 O.2     1  UNL1       -0.2460
     11  C         26.5290  -20.5810  -11.4160 C.3     1  UNL1        0.1440
     12  C         25.5670  -21.7000  -13.3660 C.2     1  UNL1        0.0800
     13  C         26.5510  -19.1860  -12.0160 C.3     1  UNL1        0.1010
     14  S         26.9130  -19.2410  -13.7980 S.3     1  UNL1       -0.1060
     15  C         26.2020  -20.8160  -14.2620 C.2     1  UNL1        0.1210
     16  N         26.3170  -21.0700  -15.5890 N.2     1  UNL1       -0.2440
     17  C         25.8270  -22.2300  -16.0690 C.2     1  UNL1        0.0320
     18  C         25.9720  -22.4820  -17.5400 C.3     1  UNL1        0.0700
     19  C         25.2390  -23.1820  -15.2490 C.2     1  UNL1        0.0350
     20  C         25.1280  -22.9410  -13.8720 C.2     1  UNL1       -0.0300
     21  C         24.5980  -24.0620  -13.0170 C.3     1  UNL1        0.0500
     22  H         23.1970  -21.4360  -12.9710 H       1  UNL1        0.1700
     23  C         17.6810  -22.2200  -10.2660 C.2     1  UNL1        0.2510
     24  O         16.7960  -21.5000  -10.7110 O.2     1  UNL1       -0.2680
     25  N         17.4610  -23.1880   -9.3080 N.am    1  UNL1       -0.3570
     26  H         18.2480  -23.6000   -8.8270 H       1  UNL1        0.1620
     27  C         16.1400  -23.3910   -8.7370 C.3     1  UNL1        0.1280
     28  C         16.1620  -24.3360   -7.5320 C.3     1  UNL1        0.0660
     29  C         16.0030  -23.5870   -6.2420 C.2     1  UNL1       -0.0160
     30  C         14.8490  -23.3880   -5.5120 C.2     1  UNL1        0.0150
     31  C         15.0800  -22.6250   -4.3310 C.2     1  UNL1        0.0080
     32  C         16.4030  -22.2660   -4.2010 C.2     1  UNL1        0.0500
     33  S         17.3570  -22.8470   -5.4970 S.3     1  UNL1       -0.1060
@<TRIPOS>BOND
     1    18    17    1
     2    17    16    2
     3    17    19    1
     4    16    15    1
     5    19    20    2
     6    15    14    1
     7    15    12    2
     8    20    12    1
     9    20    21    1
    10    14    13    1
    11    12     9    1
    12    22     7    1
    13     6     5    1
    14     6     1    2
    15    13    11    1
    16     9    11    1
    17     9     8   am
    18     7     1    1
    19     7     8   am
    20     5     4    2
    21     1     2    1
    22     8    10    2
    23     4    23    1
    24     4     3    1
    25    24    23    2
    26     2     3    2
    27    23    25   am
    28    25    26    1
    29    25    27    1
    30    27    28    1
    31    28    29    1
    32    29    30    2
    33    29    33    1
    34    30    31    1
    35    33    32    1
    36    31    32    2
