@<TRIPOS>MOLECULE
67625_out_ligand_01.pdbqt
 30 32 0 0 0
SMALL
GASTEIGER

@<TRIPOS>ATOM
      1  C         20.0900  -23.3600   -9.4770 C.2     1  UNL1        0.0330
      2  C         19.7020  -22.4410  -10.4530 C.2     1  UNL1        0.0170
      3  C         18.3620  -22.0620  -10.5670 C.2     1  UNL1        0.0090
      4  C         17.3800  -22.5720   -9.6970 C.2     1  UNL1       -0.0390
      5  C         15.9600  -22.1340   -9.9110 C.3     1  UNL1        0.0500
      6  C         17.7890  -23.4680   -8.6900 C.2     1  UNL1        0.0860
      7  C         19.1360  -23.8670   -8.5920 C.2     1  UNL1        0.0420
      8  C         21.5220  -23.7500   -9.3920 C.2     1  UNL1        0.2510
      9  N         22.4150  -22.9030  -10.0110 N.am    1  UNL1       -0.3530
     10  H         22.1050  -21.9760  -10.2650 H       1  UNL1        0.1630
     11  O         21.8430  -24.7610   -8.7780 O.2     1  UNL1       -0.2680
     12  C         23.8430  -23.0780   -9.8560 C.3     1  UNL1        0.1610
     13  C         24.5840  -22.4580  -11.0120 C.2     1  UNL1       -0.0400
     14  C         24.5620  -23.0530  -12.2810 C.2     1  UNL1        0.0090
     15  C         25.2380  -22.4610  -13.3480 C.2     1  UNL1        0.0010
     16  C         25.9300  -21.2650  -13.1630 C.2     1  UNL1        0.0070
     17  C         25.9440  -20.6400  -11.9110 C.2     1  UNL1       -0.0610
     18  C         26.7090  -19.3690  -11.7010 C.3     1  UNL1        0.0480
     19  C         25.2760  -21.2490  -10.8400 C.2     1  UNL1        0.0150
     20  S         16.6780  -24.1930   -7.4840 S.O2    1  UNL1        0.2630
     21  O         17.5050  -24.9680   -6.5800 O.2     1  UNL1       -0.2000
     22  O         15.5470  -24.7980   -8.1470 O.2     1  UNL1       -0.2000
     23  N         16.1580  -22.8530   -6.5970 N.pl3   1  UNL1       -0.2810
     24  H         15.1460  -22.8210   -6.4910 H       1  UNL1        0.1790
     25  C         16.9540  -22.3760   -5.5220 C.2     1  UNL1        0.0420
     26  C         18.0720  -21.5880   -5.7980 C.2     1  UNL1        0.0300
     27  C         18.8420  -21.0820   -4.7490 C.2     1  UNL1        0.0020
     28  C         18.4960  -21.3690   -3.4280 C.2     1  UNL1        0.0000
     29  C         17.3800  -22.1590   -3.1550 C.2     1  UNL1        0.0020
     30  C         16.6080  -22.6620   -4.2030 C.2     1  UNL1        0.0300
@<TRIPOS>BOND
     1    15    16    2
     2    15    14    1
     3    16    17    1
     4    14    13    2
     5    17    18    1
     6    17    19    2
     7    13    19    1
     8    13    12    1
     9     3     2    1
    10     3     4    2
    11     2     1    2
    12    10     9    1
    13     9    12    1
    14     9     8   am
    15     5     4    1
    16     4     6    1
    17     1     8    1
    18     1     7    1
    19     8    11    2
    20     6     7    2
    21     6    20    1
    22    22    20    2
    23    20    23    1
    24    20    21    2
    25    23    24    1
    26    23    25    1
    27    26    25    2
    28    26    27    1
    29    25    30    1
    30    27    28    2
    31    30    29    2
    32    28    29    1
