@<TRIPOS>MOLECULE
67628_out_ligand_01.pdbqt
 31 33 0 0 0
SMALL
GASTEIGER

@<TRIPOS>ATOM
      1  C         19.9260  -23.3480   -9.4580 C.2     1  UNL1        0.0330
      2  C         19.4620  -22.5240  -10.4850 C.2     1  UNL1        0.0170
      3  C         18.1030  -22.2020  -10.5600 C.2     1  UNL1        0.0090
      4  C         17.1770  -22.7040   -9.6270 C.2     1  UNL1       -0.0390
      5  C         15.7360  -22.3060   -9.7830 C.3     1  UNL1        0.0500
      6  C         17.6530  -23.5530   -8.6100 C.2     1  UNL1        0.0860
      7  C         19.0230  -23.8580   -8.5230 C.2     1  UNL1        0.0420
      8  C         21.3540  -23.7470   -9.3490 C.2     1  UNL1        0.2510
      9  N         22.2730  -22.8770   -9.8920 N.am    1  UNL1       -0.3530
     10  H         21.9750  -21.9410  -10.1290 H       1  UNL1        0.1630
     11  O         21.6460  -24.7920   -8.7790 O.2     1  UNL1       -0.2680
     12  C         23.6940  -23.0710   -9.7070 C.3     1  UNL1        0.1610
     13  C         24.4680  -22.4680  -10.8510 C.2     1  UNL1       -0.0400
     14  C         24.4210  -23.0370  -12.1300 C.2     1  UNL1        0.0090
     15  C         25.1290  -22.4590  -13.1840 C.2     1  UNL1        0.0010
     16  C         25.8800  -21.3020  -12.9750 C.2     1  UNL1        0.0070
     17  C         25.9200  -20.7040  -11.7110 C.2     1  UNL1       -0.0610
     18  C         26.7460  -19.4740  -11.4740 C.3     1  UNL1        0.0480
     19  C         25.2200  -21.2990  -10.6530 C.2     1  UNL1        0.0150
     20  S         16.6120  -24.3120   -7.3660 S.O2    1  UNL1        0.2630
     21  O         15.4520  -24.8360   -8.0590 O.2     1  UNL1       -0.2000
     22  O         17.4010  -25.1620   -6.5040 O.2     1  UNL1       -0.2000
     23  N         16.0640  -22.9860   -6.4700 N.pl3   1  UNL1       -0.2810
     24  H         15.4690  -22.3720   -7.0240 H       1  UNL1        0.1790
     25  C         16.9320  -22.3840   -5.5160 C.2     1  UNL1        0.0430
     26  C         16.6360  -22.5170   -4.1590 C.2     1  UNL1        0.0300
     27  C         17.4560  -21.9120   -3.2060 C.2     1  UNL1        0.0030
     28  C         18.5700  -21.1760   -3.6090 C.2     1  UNL1        0.0070
     29  C         18.8700  -21.0310   -4.9700 C.2     1  UNL1       -0.0600
     30  C         20.0880  -20.2690   -5.4030 C.3     1  UNL1        0.0480
     31  C         18.0490  -21.6540   -5.9190 C.2     1  UNL1        0.0370
@<TRIPOS>BOND
     1    15    16    2
     2    15    14    1
     3    16    17    1
     4    14    13    2
     5    17    18    1
     6    17    19    2
     7    13    19    1
     8    13    12    1
     9     3     2    1
    10     3     4    2
    11     2     1    2
    12    10     9    1
    13     9    12    1
    14     9     8   am
    15     5     4    1
    16     4     6    1
    17     1     8    1
    18     1     7    1
    19     8    11    2
    20     6     7    2
    21     6    20    1
    22    21    20    2
    23    20    22    2
    24    20    23    1
    25    24    23    1
    26    23    25    1
    27    31    25    2
    28    31    29    1
    29    25    26    1
    30    30    29    1
    31    29    28    2
    32    26    27    2
    33    28    27    1
