@<TRIPOS>MOLECULE
67629_out_ligand_01.pdbqt
 36 39 0 0 0
SMALL
GASTEIGER

@<TRIPOS>ATOM
      1  C         17.6910  -23.5940   -8.6020 C.2     1  UNL1        0.0860
      2  C         19.0610  -23.9040   -8.5640 C.2     1  UNL1        0.0420
      3  C         19.9360  -23.3510   -9.5020 C.2     1  UNL1        0.0330
      4  C         19.4370  -22.5310  -10.5150 C.2     1  UNL1        0.0170
      5  C         18.0700  -22.2440  -10.5700 C.2     1  UNL1        0.0090
      6  C         17.1770  -22.7540   -9.6090 C.2     1  UNL1       -0.0390
      7  C         15.7220  -22.4090   -9.7610 C.3     1  UNL1        0.0500
      8  C         21.3830  -23.6760   -9.3920 C.2     1  UNL1        0.2510
      9  O         21.7410  -24.6600   -8.7580 O.2     1  UNL1       -0.2680
     10  N         22.2460  -22.7920   -9.9930 N.am    1  UNL1       -0.3530
     11  H         21.8990  -21.9410  -10.4110 H       1  UNL1        0.1630
     12  C         23.6820  -22.9470   -9.8910 C.3     1  UNL1        0.1610
     13  C         24.3890  -22.3910  -11.1020 C.2     1  UNL1       -0.0400
     14  C         23.6720  -21.9950  -12.2360 C.2     1  UNL1        0.0100
     15  C         24.3310  -21.4420  -13.3390 C.2     1  UNL1        0.0240
     16  C         25.7160  -21.2440  -13.3350 C.2     1  UNL1        0.0100
     17  C         26.4280  -21.6310  -12.1940 C.2     1  UNL1        0.0240
     18  C         25.7760  -22.2000  -11.0910 C.2     1  UNL1        0.0100
     19  N         26.3110  -20.6650  -14.4680 N.pl3   1  UNL1       -0.2830
     20  C         26.1380  -21.3840  -15.7380 C.3     1  UNL1        0.0950
     21  C         27.1200  -20.8100  -16.7620 C.3     1  UNL1        0.0150
     22  C         26.9180  -19.3040  -16.9310 C.3     1  UNL1        0.0020
     23  C         26.9830  -18.5910  -15.5800 C.3     1  UNL1        0.0150
     24  C         26.0320  -19.2220  -14.5640 C.3     1  UNL1        0.0950
     25  S         16.6630  -24.3110   -7.3220 S.O2    1  UNL1        0.2630
     26  O         17.4950  -25.1530   -6.4860 O.2     1  UNL1       -0.2000
     27  O         15.4720  -24.8460   -7.9450 O.2     1  UNL1       -0.2000
     28  N         16.1840  -22.9600   -6.4290 N.pl3   1  UNL1       -0.2800
     29  H         15.5560  -22.3550   -6.9500 H       1  UNL1        0.1790
     30  C         17.0560  -22.3750   -5.4590 C.2     1  UNL1        0.0480
     31  C         18.1090  -21.5460   -5.8630 C.2     1  UNL1        0.0300
     32  C         18.9420  -20.9390   -4.9220 C.2     1  UNL1        0.0020
     33  C         18.7480  -21.1800   -3.5660 C.2     1  UNL1        0.0010
     34  C         17.7210  -22.0300   -3.1530 C.2     1  UNL1        0.0090
     35  C         16.8720  -22.6460   -4.0900 C.2     1  UNL1       -0.0350
     36  C         15.7750  -23.5410   -3.5800 C.3     1  UNL1        0.0500
@<TRIPOS>BOND
     1    22    21    1
     2    22    23    1
     3    21    20    1
     4    20    19    1
     5    23    24    1
     6    24    19    1
     7    19    16    1
     8    15    16    2
     9    15    14    1
    10    16    17    1
    11    14    13    2
    12    17    18    2
    13    13    18    1
    14    13    12    1
    15     5     4    2
    16     5     6    1
    17     4     3    1
    18    11    10    1
    19    10    12    1
    20    10     8   am
    21     7     6    1
    22     6     1    2
    23     3     8    1
    24     3     2    2
    25     8     9    2
    26     1     2    1
    27     1    25    1
    28    27    25    2
    29    25    26    2
    30    25    28    1
    31    29    28    1
    32    28    30    1
    33    31    30    2
    34    31    32    1
    35    30    35    1
    36    32    33    2
    37    35    36    1
    38    35    34    2
    39    33    34    1
