@<TRIPOS>MOLECULE
67636_out_ligand_01.pdbqt
 33 35 0 0 0
SMALL
GASTEIGER

@<TRIPOS>ATOM
      1  C         19.9200  -23.2300   -9.5930 C.2     1  UNL1        0.0330
      2  C         19.3460  -22.4640  -10.6110 C.2     1  UNL1        0.0170
      3  C         17.9700  -22.2240  -10.6200 C.2     1  UNL1        0.0090
      4  C         17.1290  -22.7550   -9.6250 C.2     1  UNL1       -0.0390
      5  C         15.6620  -22.4370   -9.7000 C.3     1  UNL1        0.0500
      6  C         17.7150  -23.5480   -8.6180 C.2     1  UNL1        0.0860
      7  C         19.1030  -23.7800   -8.6040 C.2     1  UNL1        0.0420
      8  C         21.3900  -23.4560   -9.6170 C.2     1  UNL1        0.2510
      9  N         22.1110  -22.6780  -10.4970 N.am    1  UNL1       -0.3530
     10  H         21.6160  -22.1780  -11.2230 H       1  UNL1        0.1630
     11  O         21.8870  -24.3150   -8.8980 O.2     1  UNL1       -0.2680
     12  C         23.5210  -22.9070  -10.7220 C.3     1  UNL1        0.1610
     13  C         23.8880  -22.6120  -12.1530 C.2     1  UNL1       -0.0400
     14  C         23.1110  -21.7300  -12.9160 C.2     1  UNL1        0.0110
     15  C         23.4560  -21.4300  -14.2380 C.2     1  UNL1        0.0370
     16  C         24.5880  -22.0010  -14.8150 C.2     1  UNL1        0.0680
     17  C         25.3670  -22.8790  -14.0560 C.2     1  UNL1        0.0370
     18  C         25.0270  -23.1800  -12.7350 C.2     1  UNL1        0.0110
     19  O         25.0390  -21.8030  -16.0890 O.2     1  UNL1       -0.3520
     20  C         25.3100  -22.9380  -16.9080 C.3     1  UNL1        0.1710
     21  C         24.0790  -23.3400  -17.7010 C.3     1  UNL1        0.0340
     22  S         16.7860  -24.2890   -7.2810 S.O2    1  UNL1        0.2630
     23  O         15.6250  -24.9150   -7.8860 O.2     1  UNL1       -0.2000
     24  O         17.6530  -25.0540   -6.4160 O.2     1  UNL1       -0.2000
     25  N         16.1900  -22.9410   -6.4540 N.pl3   1  UNL1       -0.2800
     26  H         15.1970  -23.0430   -6.2510 H       1  UNL1        0.1790
     27  C         17.0060  -22.3400   -5.4540 C.2     1  UNL1        0.0480
     28  C         18.0820  -21.5510   -5.8710 C.2     1  UNL1        0.0300
     29  C         18.9370  -20.9740   -4.9320 C.2     1  UNL1        0.0020
     30  C         18.7190  -21.1910   -3.5740 C.2     1  UNL1        0.0010
     31  C         17.6460  -21.9770   -3.1550 C.2     1  UNL1        0.0090
     32  C         16.7670  -22.5520   -4.0880 C.2     1  UNL1       -0.0350
     33  C         15.6420  -23.4160   -3.5900 C.3     1  UNL1        0.0500
@<TRIPOS>BOND
     1    21    20    1
     2    20    19    1
     3    19    16    1
     4    16    15    2
     5    16    17    1
     6    15    14    1
     7    17    18    2
     8    14    13    2
     9    18    13    1
    10    13    12    1
    11    10     9    1
    12    12     9    1
    13     3     2    1
    14     3     4    2
    15     2     1    2
    16     9     8   am
    17     5     4    1
    18     4     6    1
    19     8     1    1
    20     8    11    2
    21     1     7    1
    22     6     7    2
    23     6    22    1
    24    23    22    2
    25    22    25    1
    26    22    24    2
    27    25    26    1
    28    25    27    1
    29    28    27    2
    30    28    29    1
    31    27    32    1
    32    29    30    2
    33    32    33    1
    34    32    31    2
    35    30    31    1
