@<TRIPOS>MOLECULE
67630_out_ligand_01.pdbqt
 35 38 0 0 0
SMALL
GASTEIGER

@<TRIPOS>ATOM
      1  C         15.5670  -22.5250   -9.7310 C.3     1  UNL1        0.0500
      2  C         17.0430  -22.7850   -9.6210 C.2     1  UNL1       -0.0390
      3  C         17.8920  -22.1950  -10.5750 C.2     1  UNL1        0.0090
      4  C         19.2770  -22.3830  -10.5270 C.2     1  UNL1        0.0170
      5  C         19.8440  -23.1530   -9.5090 C.2     1  UNL1        0.0330
      6  C         19.0190  -23.7470   -8.5510 C.2     1  UNL1        0.0420
      7  C         17.6260  -23.5680   -8.6040 C.2     1  UNL1        0.0860
      8  C         21.3120  -23.3890   -9.4260 C.2     1  UNL1        0.2510
      9  O         21.7390  -24.3940   -8.8710 O.2     1  UNL1       -0.2680
     10  N         22.1140  -22.4100   -9.9730 N.am    1  UNL1       -0.3530
     11  H         21.7050  -21.5110  -10.1820 H       1  UNL1        0.1630
     12  C         23.5500  -22.4380   -9.8040 C.3     1  UNL1        0.1610
     13  C         24.2380  -21.8770  -11.0200 C.2     1  UNL1       -0.0400
     14  C         23.6720  -22.0310  -12.2880 C.2     1  UNL1        0.0110
     15  C         24.3240  -21.5320  -13.4210 C.2     1  UNL1        0.0300
     16  C         25.5620  -20.8750  -13.3350 C.2     1  UNL1        0.0300
     17  C         26.1140  -20.7240  -12.0550 C.2     1  UNL1        0.0300
     18  C         25.4690  -21.2210  -10.9140 C.2     1  UNL1        0.0110
     19  N         26.1690  -20.3910  -14.5080 N.pl3   1  UNL1       -0.3810
     20  C         25.9530  -18.9460  -14.7190 C.3     1  UNL1        0.1230
     21  C         26.9300  -18.4220  -15.7720 C.3     1  UNL1        0.0200
     22  C         26.8380  -19.2240  -17.0660 C.3     1  UNL1        0.0030
     23  C         27.0190  -20.7130  -16.7880 C.3     1  UNL1        0.0200
     24  C         26.0310  -21.2000  -15.7270 C.3     1  UNL1        0.1230
     25  S         16.6510  -24.3540   -7.3230 S.O2    1  UNL1        0.2630
     26  O         17.5490  -25.0890   -6.4580 O.2     1  UNL1       -0.2000
     27  O         15.5320  -25.0250   -7.9520 O.2     1  UNL1       -0.2000
     28  N         16.0750  -23.0510   -6.4190 N.pl3   1  UNL1       -0.2810
     29  H         15.0850  -23.1370   -6.1990 H       1  UNL1        0.1790
     30  C         16.9230  -22.4160   -5.4700 C.2     1  UNL1        0.0420
     31  C         17.9870  -21.6080   -5.8680 C.2     1  UNL1        0.0300
     32  C         18.8220  -21.0300   -4.9100 C.2     1  UNL1        0.0020
     33  C         18.5880  -21.2520   -3.5540 C.2     1  UNL1        0.0000
     34  C         17.5140  -22.0460   -3.1530 C.2     1  UNL1        0.0020
     35  C         16.6810  -22.6270   -4.1110 C.2     1  UNL1        0.0300
@<TRIPOS>BOND
     1    22    23    1
     2    22    21    1
     3    23    24    1
     4    21    20    1
     5    24    19    1
     6    20    19    1
     7    19    16    1
     8    15    16    2
     9    15    14    1
    10    16    17    1
    11    14    13    2
    12    17    18    2
    13    13    18    1
    14    13    12    1
    15     3     4    1
    16     3     2    2
    17     4     5    2
    18    11    10    1
    19    10    12    1
    20    10     8   am
    21     1     2    1
    22     2     7    1
    23     5     8    1
    24     5     6    1
    25     8     9    2
    26     7     6    2
    27     7    25    1
    28    27    25    2
    29    25    26    2
    30    25    28    1
    31    28    29    1
    32    28    30    1
    33    31    30    2
    34    31    32    1
    35    30    35    1
    36    32    33    2
    37    35    34    2
    38    33    34    1
