@<TRIPOS>MOLECULE
67639_out_ligand_01.pdbqt
 37 40 0 0 0
SMALL
GASTEIGER

@<TRIPOS>ATOM
      1  C         17.5950  -23.5980   -8.5910 C.2     1  UNL1        0.0860
      2  C         18.9660  -23.8990   -8.5010 C.2     1  UNL1        0.0420
      3  C         19.8730  -23.3640   -9.4180 C.2     1  UNL1        0.0330
      4  C         19.4140  -22.5270  -10.4340 C.2     1  UNL1        0.0170
      5  C         18.0510  -22.2420  -10.5380 C.2     1  UNL1        0.0090
      6  C         17.1180  -22.7730   -9.6260 C.2     1  UNL1       -0.0390
      7  C         15.6700  -22.4230   -9.8230 C.3     1  UNL1        0.0500
      8  C         21.3160  -23.6780   -9.2470 C.2     1  UNL1        0.2510
      9  O         21.6530  -24.8080   -8.9150 O.2     1  UNL1       -0.2680
     10  N         22.1940  -22.6510   -9.4990 N.am    1  UNL1       -0.3530
     11  H         21.8540  -21.7940   -9.9150 H       1  UNL1        0.1630
     12  C         23.6270  -22.8450   -9.4920 C.3     1  UNL1        0.1610
     13  C         24.2290  -22.3080  -10.7610 C.2     1  UNL1       -0.0400
     14  C         23.7440  -22.7210  -12.0040 C.2     1  UNL1        0.0110
     15  C         24.2800  -22.1970  -13.1890 C.2     1  UNL1        0.0300
     16  C         25.3100  -21.2450  -13.1860 C.2     1  UNL1        0.0300
     17  C         25.7790  -20.8430  -11.9240 C.2     1  UNL1        0.0300
     18  C         25.2510  -21.3580  -10.7320 C.2     1  UNL1        0.0110
     19  N         25.8320  -20.7260  -14.3570 N.pl3   1  UNL1       -0.3770
     20  C         25.8820  -19.2790  -14.6190 C.3     1  UNL1        0.1490
     21  C         27.0270  -18.9600  -15.5970 C.3     1  UNL1        0.1870
     22  O         26.9230  -19.6260  -16.8630 O.3     1  UNL1       -0.3880
     23  C         26.2200  -20.8750  -16.7900 C.3     1  UNL1        0.1870
     24  C         26.3490  -21.5870  -15.4330 C.3     1  UNL1        0.1490
     25  S         16.5540  -24.3630   -7.3520 S.O2    1  UNL1        0.2630
     26  O         15.4130  -24.9910   -7.9820 O.2     1  UNL1       -0.2000
     27  O         17.4310  -25.1360   -6.4950 O.2     1  UNL1       -0.2000
     28  N         16.0320  -23.0580   -6.4220 N.pl3   1  UNL1       -0.2800
     29  H         15.0290  -23.0680   -6.2590 H       1  UNL1        0.1790
     30  C         16.8840  -22.4640   -5.4480 C.2     1  UNL1        0.0490
     31  C         16.6560  -22.6700   -4.0770 C.2     1  UNL1       -0.0350
     32  C         17.5470  -22.1000   -3.1530 C.2     1  UNL1        0.0090
     33  C         15.5310  -23.5180   -3.5500 C.3     1  UNL1        0.0500
     34  C         18.6150  -21.3080   -3.5780 C.2     1  UNL1        0.0070
     35  C         18.8100  -21.0590   -4.9370 C.2     1  UNL1       -0.0600
     36  C         19.9540  -20.2130   -5.4080 C.3     1  UNL1        0.0480
     37  C         17.9440  -21.6510   -5.8640 C.2     1  UNL1        0.0370
@<TRIPOS>BOND
     1    22    23    1
     2    22    21    1
     3    23    24    1
     4    21    20    1
     5    24    19    1
     6    20    19    1
     7    19    16    1
     8    15    16    2
     9    15    14    1
    10    16    17    1
    11    14    13    2
    12    17    18    2
    13    13    18    1
    14    13    12    1
    15     5     4    2
    16     5     6    1
    17     4     3    1
    18    11    10    1
    19     7     6    1
    20     6     1    2
    21    10    12    1
    22    10     8   am
    23     3     8    1
    24     3     2    2
    25     8     9    2
    26     1     2    1
    27     1    25    1
    28    26    25    2
    29    25    27    2
    30    25    28    1
    31    28    29    1
    32    28    30    1
    33    37    30    2
    34    37    35    1
    35    30    31    1
    36    36    35    1
    37    35    34    2
    38    31    33    1
    39    31    32    2
    40    34    32    1
