@<TRIPOS>MOLECULE
67632_out_ligand_01.pdbqt
 36 39 0 0 0
SMALL
GASTEIGER

@<TRIPOS>ATOM
      1  C         17.5210  -23.5210   -8.6250 C.2     1  UNL1        0.1020
      2  C         18.9230  -23.6480   -8.5320 C.2     1  UNL1        0.0440
      3  C         19.7580  -23.0150   -9.4580 C.2     1  UNL1        0.0330
      4  C         19.1930  -22.2370  -10.4700 C.2     1  UNL1        0.0190
      5  C         17.8040  -22.1230  -10.5700 C.2     1  UNL1        0.0260
      6  C         16.9560  -22.7690   -9.6580 C.2     1  UNL1        0.0570
      7 CL         15.2700  -22.5320   -9.9160 Cl      1  UNL1       -0.0830
      8  C         21.2400  -23.1180   -9.3820 C.2     1  UNL1        0.2510
      9  O         21.7580  -24.1940   -9.1080 O.2     1  UNL1       -0.2680
     10  N         21.9410  -21.9580   -9.6200 N.am    1  UNL1       -0.3530
     11  H         21.4530  -21.0760   -9.6870 H       1  UNL1        0.1630
     12  C         23.3790  -21.8940   -9.4620 C.3     1  UNL1        0.1610
     13  C         24.1360  -21.7980  -10.7640 C.2     1  UNL1       -0.0400
     14  C         23.5000  -22.1790  -11.9520 C.2     1  UNL1        0.0110
     15  C         24.1430  -22.0570  -13.1920 C.2     1  UNL1        0.0300
     16  C         25.4440  -21.5510  -13.2980 C.2     1  UNL1        0.0300
     17  C         26.0690  -21.1640  -12.1010 C.2     1  UNL1        0.0300
     18  C         25.4300  -21.2760  -10.8580 C.2     1  UNL1        0.0110
     19  N         26.1240  -21.4130  -14.5140 N.pl3   1  UNL1       -0.3810
     20  C         25.7510  -20.3460  -15.4520 C.3     1  UNL1        0.1230
     21  C         24.9580  -20.9180  -16.6230 C.3     1  UNL1        0.0200
     22  C         25.7660  -21.9680  -17.3920 C.3     1  UNL1        0.0030
     23  C         26.9290  -22.5340  -16.5790 C.3     1  UNL1        0.0200
     24  C         26.5610  -22.6950  -15.1050 C.3     1  UNL1        0.1230
     25  S         16.5770  -24.3950   -7.3970 S.O2    1  UNL1        0.2640
     26  O         17.5420  -25.0930   -6.5670 O.2     1  UNL1       -0.2000
     27  O         15.4890  -25.1230   -8.0020 O.2     1  UNL1       -0.2000
     28  N         15.9710  -23.1590   -6.4250 N.pl3   1  UNL1       -0.2810
     29  H         14.9790  -23.2570   -6.2170 H       1  UNL1        0.1790
     30  C         16.8070  -22.5270   -5.4670 C.2     1  UNL1        0.0430
     31  C         16.5530  -22.7360   -4.1110 C.2     1  UNL1        0.0300
     32  C         17.3790  -22.1500   -3.1530 C.2     1  UNL1        0.0030
     33  C         18.4590  -21.3590   -3.5490 C.2     1  UNL1        0.0070
     34  C         18.7240  -21.1510   -4.9080 C.2     1  UNL1       -0.0600
     35  C         19.8650  -20.2780   -5.3390 C.3     1  UNL1        0.0480
     36  C         17.8790  -21.7300   -5.8650 C.2     1  UNL1        0.0370
@<TRIPOS>BOND
     1    22    21    1
     2    22    23    1
     3    21    20    1
     4    23    24    1
     5    20    19    1
     6    24    19    1
     7    19    16    1
     8    16    15    2
     9    16    17    1
    10    15    14    1
    11    17    18    2
    12    14    13    2
    13    18    13    1
    14    13    12    1
    15     5     4    2
    16     5     6    1
    17     4     3    1
    18     7     6    1
    19    11    10    1
    20     6     1    2
    21    10    12    1
    22    10     8   am
    23     3     8    1
    24     3     2    2
    25     8     9    2
    26     1     2    1
    27     1    25    1
    28    27    25    2
    29    25    26    2
    30    25    28    1
    31    28    29    1
    32    28    30    1
    33    36    30    2
    34    36    34    1
    35    30    31    1
    36    35    34    1
    37    34    33    2
    38    31    32    2
    39    33    32    1
