@<TRIPOS>MOLECULE
67642_out_ligand_01.pdbqt
 36 39 0 0 0
SMALL
GASTEIGER

@<TRIPOS>ATOM
      1  C         17.5450  -23.6540   -8.5170 C.2     1  UNL1        0.0810
      2  C         18.9240  -23.9110   -8.4600 C.2     1  UNL1        0.0420
      3  C         19.7850  -23.3150   -9.3860 C.2     1  UNL1        0.0330
      4  C         19.2670  -22.5010  -10.3950 C.2     1  UNL1        0.0170
      5  C         17.8910  -22.2610  -10.4620 C.2     1  UNL1        0.0090
      6  C         17.0100  -22.8190   -9.5190 C.2     1  UNL1       -0.0390
      7  C         15.5410  -22.5280   -9.6600 C.3     1  UNL1        0.0500
      8  C         21.2440  -23.5760   -9.2690 C.2     1  UNL1        0.2510
      9  O         21.6450  -24.6450   -8.8280 O.2     1  UNL1       -0.2680
     10  N         22.0690  -22.5380   -9.6340 N.am    1  UNL1       -0.3530
     11  H         21.6840  -21.6450   -9.9080 H       1  UNL1        0.1630
     12  C         23.5060  -22.6340   -9.5130 C.3     1  UNL1        0.1610
     13  C         24.1680  -22.0870  -10.7490 C.2     1  UNL1       -0.0400
     14  C         25.3870  -21.4100  -10.6530 C.2     1  UNL1        0.0110
     15  C         25.9930  -20.8620  -11.7920 C.2     1  UNL1        0.0300
     16  C         25.4200  -20.9790  -13.0670 C.2     1  UNL1        0.0300
     17  C         24.1930  -21.6600  -13.1390 C.2     1  UNL1        0.0300
     18  C         23.5720  -22.2020  -12.0050 C.2     1  UNL1        0.0110
     19  N         26.0130  -20.4370  -14.1940 N.pl3   1  UNL1       -0.3770
     20  C         26.6930  -19.1290  -14.1360 C.3     1  UNL1        0.1490
     21  C         26.4420  -18.3330  -15.4300 C.3     1  UNL1        0.1870
     22  O         26.8750  -19.0050  -16.6210 O.3     1  UNL1       -0.3880
     23  C         26.7840  -20.4340  -16.5310 C.3     1  UNL1        0.1870
     24  C         25.7140  -20.9330  -15.5460 C.3     1  UNL1        0.1490
     25  S         16.5080  -24.4190   -7.2750 S.O2    1  UNL1        0.2460
     26  O         17.3690  -25.0630   -6.3070 O.2     1  UNL1       -0.2060
     27  O         15.4560  -25.1400   -7.9550 O.2     1  UNL1       -0.2060
     28  N         15.8830  -23.0280   -6.5040 N.pl3   1  UNL1       -0.1810
     29  H         15.6690  -22.3490   -7.2350 H       1  UNL1        0.1460
     30  C         16.7620  -22.4590   -5.5230 C.2     1  UNL1        0.0230
     31  C         16.5380  -22.7030   -4.1690 C.2     1  UNL1        0.0240
     32  C         17.4010  -22.1650   -3.2170 C.2     1  UNL1        0.0020
     33  C         18.4950  -21.3950   -3.6190 C.2     1  UNL1        0.0070
     34  C         18.7480  -21.1770   -4.9790 C.2     1  UNL1       -0.0600
     35  C         19.9260  -20.3490   -5.4030 C.3     1  UNL1        0.0480
     36  C         17.8700  -21.7100   -5.9310 C.2     1  UNL1        0.0310
@<TRIPOS>BOND
     1    22    23    1
     2    22    21    1
     3    23    24    1
     4    24    19    1
     5    21    20    1
     6    19    20    1
     7    19    16    1
     8    17    16    2
     9    17    18    1
    10    16    15    1
    11    18    13    2
    12    15    14    2
    13    13    14    1
    14    13    12    1
    15     5     4    2
    16     5     6    1
    17     4     3    1
    18    11    10    1
    19     7     6    1
    20    10    12    1
    21    10     8   am
    22     6     1    2
    23     3     8    1
    24     3     2    2
    25     8     9    2
    26     1     2    1
    27     1    25    1
    28    27    25    2
    29    25    28    1
    30    25    26    2
    31    29    28    1
    32    28    30    1
    33    36    30    2
    34    36    34    1
    35    30    31    1
    36    35    34    1
    37    34    33    2
    38    31    32    2
    39    33    32    1
