@<TRIPOS>MOLECULE
67672_out_ligand_01.pdbqt
 28 30 0 0 0
SMALL
GASTEIGER

@<TRIPOS>ATOM
      1  C         19.8290  -22.7260   -7.6590 C.2     1  UNL1        0.0320
      2  C         19.2430  -23.9740   -7.8970 C.2     1  UNL1        0.0170
      3  C         18.0680  -24.3270   -7.2320 C.2     1  UNL1        0.0100
      4  C         17.4860  -23.4530   -6.3000 C.2     1  UNL1       -0.0400
      5  C         18.0960  -22.2140   -6.0510 C.2     1  UNL1        0.0100
      6  C         19.2690  -21.8550   -6.7200 C.2     1  UNL1        0.0170
      7  C         21.0840  -22.3290   -8.3490 C.2     1  UNL1        0.2580
      8  N         21.0620  -22.1880   -9.7490 N.am    1  UNL1       -0.3130
      9  C         19.8000  -21.9130  -10.4510 C.3     1  UNL1        0.1330
     10  C         22.2570  -22.2570  -10.5530 C.2     1  UNL1        0.0440
     11  C         19.9670  -20.9130  -11.5800 C.3     1  UNL1        0.0250
     12  C         20.9450  -21.4680  -12.5940 C.3     1  UNL1        0.0420
     13  C         22.2160  -21.9240  -11.9250 C.2     1  UNL1       -0.0280
     14  C         23.3710  -22.0430  -12.7280 C.2     1  UNL1        0.0460
     15  C         24.5790  -22.4690  -12.1850 C.2     1  UNL1        0.0680
     16  C         24.6270  -22.7890  -10.8330 C.2     1  UNL1        0.0390
     17  C         23.4830  -22.6920  -10.0310 C.2     1  UNL1        0.0330
     18  O         22.0540  -22.1350   -7.6180 O.2     1  UNL1       -0.2670
     19  O         25.7610  -22.6160  -12.8540 O.2     1  UNL1       -0.3560
     20  C         26.4570  -23.8430  -12.6710 C.3     1  UNL1        0.2100
     21  C         16.2030  -23.8330   -5.6030 C.3     1  UNL1        0.1620
     22  N         15.1560  -22.8740   -5.8800 N.am    1  UNL1       -0.3440
     23  C         14.6220  -22.1170   -4.8800 C.2     1  UNL1        0.2920
     24  N         13.5760  -21.3670   -5.3120 N.am    1  UNL1       -0.2540
     25  O         15.0030  -22.0780   -3.7200 O.2     1  UNL1       -0.2540
     26  H         13.2530  -20.7080   -4.6110 H       1  UNL1        0.1280
     27  H         13.6720  -20.9690   -6.2340 H       1  UNL1        0.1280
     28  H         14.5070  -23.1190   -6.6120 H       1  UNL1        0.1640
@<TRIPOS>BOND
     1    19    20    1
     2    19    15    1
     3    14    15    2
     4    14    13    1
     5    12    13    1
     6    12    11    1
     7    15    16    1
     8    13    10    2
     9    11     9    1
    10    16    17    2
    11    10    17    1
    12    10     8    1
    13     9     8    1
    14     8     7   am
    15     7     1    1
    16     7    18    2
    17     2     1    2
    18     2     3    1
    19     1     6    1
    20     3     4    2
    21     6     5    2
    22    28    22    1
    23     4     5    1
    24     4    21    1
    25    27    24    1
    26    22    21    1
    27    22    23   am
    28    24    23   am
    29    24    26    1
    30    23    25    2
