@<TRIPOS>MOLECULE
67676_out_ligand_01.pdbqt
 34 37 0 0 0
SMALL
GASTEIGER

@<TRIPOS>ATOM
      1  C         18.5080  -22.6280   -6.5610 C.2     1  UNL1        0.0800
      2  C         18.8140  -21.5290   -5.7550 C.2     1  UNL1        0.0250
      3  C         20.0500  -20.8960   -5.8970 C.2     1  UNL1        0.0030
      4  C         20.9750  -21.3670   -6.8330 C.2     1  UNL1        0.0170
      5  C         20.6690  -22.4840   -7.6240 C.2     1  UNL1        0.0330
      6  C         19.4280  -23.1140   -7.4940 C.2     1  UNL1        0.0420
      7  C         21.6200  -23.0000   -8.6470 C.2     1  UNL1        0.2560
      8  O         21.7560  -24.2130   -8.7400 O.2     1  UNL1       -0.2670
      9  N         22.2750  -22.0250   -9.3750 N.am    1  UNL1       -0.3230
     10  H         22.1310  -21.0640   -9.0920 H       1  UNL1        0.1690
     11  C         23.1940  -22.2170  -10.4290 C.2     1  UNL1        0.0370
     12  C         24.4590  -22.7840  -10.2710 C.2     1  UNL1        0.0320
     13  C         25.3000  -22.9570  -11.3740 C.2     1  UNL1        0.0420
     14  C         24.8860  -22.5750  -12.6510 C.2     1  UNL1        0.1020
     15  C         23.6390  -21.9600  -12.8110 C.2     1  UNL1        0.1040
     16  O         25.7790  -22.8440  -13.6560 O.2     1  UNL1       -0.3480
     17  C         22.7920  -21.8100  -11.7070 C.2     1  UNL1        0.0690
     18  O         23.1340  -21.4770  -13.9940 O.2     1  UNL1       -0.3480
     19  C         24.1300  -20.9150  -14.8510 C.3     1  UNL1        0.1780
     20  C         24.7880  -21.9850  -15.7040 C.3     1  UNL1        0.0530
     21  C         25.1540  -23.2130  -14.8860 C.3     1  UNL1        0.1780
     22  S         16.9310  -23.4280   -6.4160 S.O2    1  UNL1        0.2590
     23  O         16.2300  -22.8610   -5.2860 O.2     1  UNL1       -0.2010
     24  O         17.1600  -24.8470   -6.5460 O.2     1  UNL1       -0.2010
     25  N         16.1610  -22.9300   -7.8080 N.3     1  UNL1       -0.3070
     26  H         15.8090  -21.9740   -7.7970 H       1  UNL1        0.1730
     27  C         16.4400  -23.5850   -9.0840 C.3     1  UNL1        0.1230
     28  C         15.1100  -24.0760   -9.6650 C.3     1  UNL1        0.0380
     29  C         17.1900  -22.6550  -10.0090 C.2     1  UNL1       -0.0180
     30  C         18.4690  -22.9270  -10.5070 C.2     1  UNL1        0.0120
     31  C         19.0880  -22.0250  -11.3690 C.2     1  UNL1        0.0200
     32  C         18.4040  -20.8740  -11.7170 C.2     1  UNL1        0.1160
     33  N         17.1660  -20.5780  -11.2730 N.2     1  UNL1       -0.2730
     34  C         16.5850  -21.4760  -10.4440 C.2     1  UNL1        0.1250
@<TRIPOS>BOND
     1    20    21    1
     2    20    19    1
     3    21    16    1
     4    19    18    1
     5    18    15    1
     6    16    14    1
     7    15    14    2
     8    15    17    1
     9    14    13    1
    10    32    31    2
    11    32    33    1
    12    17    11    2
    13    13    12    2
    14    31    30    1
    15    33    34    2
    16    30    29    2
    17    34    29    1
    18    11    12    1
    19    11     9    1
    20    29    27    1
    21    28    27    1
    22     9    10    1
    23     9     7   am
    24    27    25    1
    25     8     7    2
    26     7     5    1
    27    25    26    1
    28    25    22    1
    29     5     6    1
    30     5     4    2
    31     6     1    2
    32     4     3    1
    33     1    22    1
    34     1     2    1
    35    24    22    2
    36    22    23    2
    37     3     2    2
