@<TRIPOS>MOLECULE
67682_out_ligand_01.pdbqt
 31 34 0 0 0
SMALL
GASTEIGER

@<TRIPOS>ATOM
      1  C         20.7240  -22.8010   -7.9350 C.2     1  UNL1        0.0330
      2  C         21.0720  -21.6780   -7.1710 C.2     1  UNL1        0.0170
      3  C         20.1570  -21.1370   -6.2630 C.2     1  UNL1        0.0030
      4  C         18.9010  -21.7200   -6.1050 C.2     1  UNL1        0.0250
      5  C         18.5680  -22.8550   -6.8500 C.2     1  UNL1        0.0800
      6  C         19.4660  -23.3940   -7.7740 C.2     1  UNL1        0.0420
      7  C         21.6710  -23.4190   -8.8980 C.2     1  UNL1        0.2520
      8  O         21.7000  -24.6380   -9.0250 O.2     1  UNL1       -0.2680
      9  N         22.4610  -22.5560   -9.6200 N.am    1  UNL1       -0.3480
     10  H         22.3790  -21.5560   -9.4990 H       1  UNL1        0.1630
     11  C         23.4720  -23.0370  -10.5610 C.3     1  UNL1        0.1200
     12  C         24.8210  -23.0890   -9.8330 C.3     1  UNL1        0.0400
     13  C         25.9520  -23.4510  -10.7720 C.3     1  UNL1        0.0820
     14  S         26.2700  -22.0720  -11.8980 S.3     1  UNL1       -0.1290
     15  C         24.6120  -21.7430  -12.4730 C.2     1  UNL1        0.0080
     16  C         24.5030  -20.9770  -13.6460 C.2     1  UNL1        0.0190
     17  C         23.4500  -22.2040  -11.8320 C.2     1  UNL1       -0.0190
     18  C         23.2590  -20.6920  -14.2060 C.2     1  UNL1        0.0010
     19  C         22.1060  -21.1790  -13.6050 C.2     1  UNL1        0.0010
     20  C         22.2020  -21.9330  -12.4360 C.2     1  UNL1        0.0100
     21  S         16.9600  -23.5870   -6.6550 S.O2    1  UNL1        0.2590
     22  O         16.0630  -22.5660   -6.1650 O.2     1  UNL1       -0.2010
     23  O         17.1370  -24.8440   -5.9610 O.2     1  UNL1       -0.2010
     24  N         16.5300  -23.9570   -8.2220 N.3     1  UNL1       -0.3090
     25  H         17.1630  -24.5870   -8.7110 H       1  UNL1        0.1720
     26  C         15.8350  -22.9570   -9.0230 C.3     1  UNL1        0.1970
     27  C         16.8020  -22.4340  -10.0210 C.2     1  UNL1        0.0700
     28  C         17.9370  -22.9530  -10.6100 C.2     1  UNL1        0.0360
     29  C         18.4290  -21.9510  -11.4800 C.2     1  UNL1        0.0270
     30  C         17.5690  -20.8840  -11.3640 C.2     1  UNL1        0.1420
     31  O         16.5790  -21.1650  -10.4770 O.2     1  UNL1       -0.3250
@<TRIPOS>BOND
     1    18    16    1
     2    18    19    2
     3    16    15    2
     4    19    20    1
     5    15    14    1
     6    15    17    1
     7    20    17    2
     8    14    13    1
     9    17    11    1
    10    29    30    2
    11    29    28    1
    12    30    31    1
    13    13    12    1
    14    28    27    2
    15    11    12    1
    16    11     9    1
    17    31    27    1
    18    27    26    1
    19     9    10    1
    20     9     7   am
    21     8     7    2
    22    26    24    1
    23     7     1    1
    24    25    24    1
    25    24    21    1
    26     1     6    2
    27     1     2    1
    28     6     5    1
    29     2     3    2
    30     5    21    1
    31     5     4    2
    32    21    22    2
    33    21    23    2
    34     3     4    1
