@<TRIPOS>MOLECULE
67726_out_ligand_01.pdbqt
 27 30 0 0 0
SMALL
GASTEIGER

@<TRIPOS>ATOM
      1  C         22.9080  -22.1830  -10.5900 C.2     1  UNL1        0.0320
      2  C         21.9800  -22.1240  -11.6390 C.2     1  UNL1        0.0180
      3  C         20.6110  -22.2310  -11.3710 C.2     1  UNL1        0.0190
      4  C         20.1620  -22.3950  -10.0550 C.2     1  UNL1        0.0450
      5  C         21.0840  -22.4600   -9.0020 C.2     1  UNL1       -0.0380
      6  C         22.4560  -22.3680   -9.2760 C.2     1  UNL1        0.0250
      7  C         20.5780  -22.6800   -7.6070 C.3     1  UNL1        0.0770
      8  C         19.2110  -22.0070   -7.4890 C.3     1  UNL1        0.1690
      9  O         18.3100  -22.5150   -8.4960 O.3     1  UNL1       -0.3070
     10  C         18.7040  -22.5460   -9.7940 C.2     1  UNL1        0.2940
     11  O         17.9120  -22.7130  -10.7110 O.2     1  UNL1       -0.2590
     12  C         24.3770  -22.0880  -10.8240 C.2     1  UNL1        0.2510
     13  O         24.9760  -21.0520  -10.5560 O.2     1  UNL1       -0.2680
     14  N         24.9880  -23.1940  -11.3740 N.am    1  UNL1       -0.3540
     15  H         24.4160  -23.8810  -11.8530 H       1  UNL1        0.1620
     16  C         26.3730  -23.1430  -11.8060 C.3     1  UNL1        0.1550
     17  C         26.4860  -23.4240  -13.3040 C.3     1  UNL1        0.1390
     18  C         25.5210  -22.6100  -14.1460 C.3     1  UNL1        0.0350
     19  C         25.3690  -23.4850  -15.3640 C.3     1  UNL1        0.0290
     20  C         25.3700  -24.8720  -14.7570 C.3     1  UNL1        0.1680
     21  O         26.1790  -24.8120  -13.5720 O.3     1  UNL1       -0.3840
     22  C         18.6160  -22.2380   -6.1130 C.2     1  UNL1       -0.0290
     23  C         18.7660  -21.2630   -5.1140 C.2     1  UNL1        0.0100
     24  C         18.2510  -21.4710   -3.8330 C.2     1  UNL1        0.0010
     25  C         17.5830  -22.6550   -3.5340 C.2     1  UNL1        0.0000
     26  C         17.4300  -23.6350   -4.5130 C.2     1  UNL1        0.0010
     27  C         17.9450  -23.4290   -5.7940 C.2     1  UNL1        0.0100
@<TRIPOS>BOND
     1    19    20    1
     2    19    18    1
     3    20    21    1
     4    18    17    1
     5    21    17    1
     6    17    16    1
     7    15    14    1
     8    16    14    1
     9     2     3    1
    10     2     1    2
    11    14    12   am
    12     3     4    2
    13    12     1    1
    14    12    13    2
    15    11    10    2
    16     1     6    1
    17     4    10    1
    18     4     5    1
    19    10     9    1
    20     6     5    2
    21     5     7    1
    22     9     8    1
    23     7     8    1
    24     8    22    1
    25    22    27    2
    26    22    23    1
    27    27    26    1
    28    23    24    2
    29    26    25    2
    30    24    25    1
