@<TRIPOS>MOLECULE
67754_out_ligand_01.pdbqt
 35 38 0 0 0
SMALL
GASTEIGER

@<TRIPOS>ATOM
      1  C         17.3570  -22.8980   -9.7630 C.2     1  UNL1        0.0750
      2  C         16.9750  -21.8310  -10.5790 C.2     1  UNL1        0.0250
      3  C         17.9410  -21.1570  -11.3320 C.2     1  UNL1        0.0090
      4  C         19.2930  -21.5430  -11.2840 C.2     1  UNL1       -0.0460
      5  C         20.2830  -20.8150  -12.1510 C.3     1  UNL1        0.0490
      6  C         19.6610  -22.6020  -10.4290 C.2     1  UNL1        0.0390
      7  C         18.6920  -23.2960   -9.6910 C.2     1  UNL1        0.0420
      8  C         21.0620  -23.0600  -10.2650 C.2     1  UNL1        0.2520
      9  O         21.3070  -24.0750   -9.6250 O.2     1  UNL1       -0.2680
     10  N         22.0240  -22.2490  -10.8250 N.am    1  UNL1       -0.3500
     11  H         21.7430  -21.4760  -11.4110 H       1  UNL1        0.1630
     12  C         23.4230  -22.6350  -10.8070 C.3     1  UNL1        0.1140
     13  C         24.3340  -21.4880  -10.3710 C.3     1  UNL1        0.0570
     14  C         25.5750  -21.6700  -11.2270 C.3     1  UNL1        0.2750
     15  N         24.9970  -22.0630  -12.5160 N.3     1  UNL1        0.0940
     16  C         23.9630  -23.0600  -12.1860 C.3     1  UNL1        0.2970
     17  C         25.9860  -22.6010  -13.4560 C.3     1  UNL1        0.3110
     18  C         25.5820  -22.4330  -14.9070 C.2     1  UNL1       -0.0300
     19  C         25.6130  -21.1680  -15.5140 C.2     1  UNL1        0.0090
     20  C         25.2380  -21.0140  -16.8520 C.2     1  UNL1        0.0010
     21  C         24.8360  -22.1220  -17.5960 C.2     1  UNL1        0.0000
     22  C         24.8050  -23.3850  -17.0050 C.2     1  UNL1        0.0010
     23  C         25.1730  -23.5410  -15.6660 C.2     1  UNL1        0.0090
     24  S         16.1170  -23.7700   -8.8340 S.O2    1  UNL1        0.2450
     25  O         16.7970  -24.6900   -7.9450 O.2     1  UNL1       -0.2060
     26  O         15.1030  -24.2040   -9.7690 O.2     1  UNL1       -0.2060
     27  N         15.5140  -22.4980   -7.8690 N.pl3   1  UNL1       -0.1810
     28  H         15.4460  -21.6620   -8.4500 H       1  UNL1        0.1460
     29  C         16.2850  -22.2480   -6.6860 C.2     1  UNL1        0.0220
     30  C         15.7450  -22.5150   -5.4310 C.2     1  UNL1        0.0250
     31  C         16.5110  -22.3040   -4.2830 C.2     1  UNL1        0.0080
     32  C         17.8200  -21.8170   -4.3820 C.2     1  UNL1       -0.0620
     33  C         18.6590  -21.6270   -3.1530 C.3     1  UNL1        0.0480
     34  C         18.3630  -21.5760   -5.6510 C.2     1  UNL1        0.0080
     35  C         17.5990  -21.7930   -6.8000 C.2     1  UNL1        0.0250
@<TRIPOS>BOND
     1    21    22    2
     2    21    20    1
     3    22    23    1
     4    20    19    2
     5    23    18    2
     6    19    18    1
     7    18    17    1
     8    17    15    1
     9    15    16    1
    10    15    14    1
    11    16    12    1
    12     5     4    1
    13    11    10    1
    14     3     4    2
    15     3     2    1
    16     4     6    1
    17    14    13    1
    18    10    12    1
    19    10     8   am
    20    12    13    1
    21     2     1    2
    22     6     8    1
    23     6     7    2
    24     8     9    2
    25    26    24    2
    26     1     7    1
    27     1    24    1
    28    24    25    2
    29    24    27    1
    30    28    27    1
    31    27    29    1
    32    35    29    2
    33    35    34    1
    34    29    30    1
    35    34    32    2
    36    30    31    2
    37    32    31    1
    38    32    33    1
