@<TRIPOS>MOLECULE
67768_out_ligand_01.pdbqt
 29 31 0 0 0
SMALL
GASTEIGER

@<TRIPOS>ATOM
      1  C         19.5570  -22.0030   -6.5970 C.2     1  UNL1        0.2560
      2  O         19.6110  -20.9210   -6.0180 O.2     1  UNL1       -0.2670
      3  N         18.5720  -22.9580   -6.4500 N.am    1  UNL1       -0.3220
      4  H         18.7190  -23.8620   -6.8990 H       1  UNL1        0.1690
      5  C         17.3560  -22.8700   -5.7280 C.2     1  UNL1        0.0500
      6  C         17.3230  -22.6730   -4.3400 C.2     1  UNL1        0.0300
      7  C         16.1090  -22.5470   -3.6590 C.2     1  UNL1        0.0020
      8  C         14.9060  -22.6000   -4.3540 C.2     1  UNL1        0.0010
      9  C         14.9140  -22.7990   -5.7340 C.2     1  UNL1        0.0190
     10  C         16.1290  -22.9550   -6.4270 C.2     1  UNL1        0.0580
     11  C         16.1110  -23.1950   -7.9070 C.2     1  UNL1        0.2540
     12  O         15.6260  -24.2290   -8.3600 O.2     1  UNL1       -0.2680
     13  N         16.6120  -22.1820   -8.7050 N.am    1  UNL1       -0.3520
     14  H         16.7760  -21.2690   -8.3010 H       1  UNL1        0.1630
     15  C         16.6130  -22.2740  -10.1340 C.3     1  UNL1        0.0840
     16  C         17.8980  -22.5280  -10.8810 C.3     1  UNL1        0.0270
     17  C         17.2320  -21.1830  -10.9700 C.3     1  UNL1        0.0270
     18  C         20.6730  -22.3640   -7.5270 C.2     1  UNL1        0.0320
     19  C         20.6350  -23.4980   -8.3500 C.2     1  UNL1        0.0170
     20  C         21.7100  -23.7930   -9.1960 C.2     1  UNL1        0.0100
     21  C         22.8300  -22.9520   -9.2470 C.2     1  UNL1       -0.0400
     22  C         22.8550  -21.8050   -8.4430 C.2     1  UNL1        0.0100
     23  C         21.7850  -21.5130   -7.5920 C.2     1  UNL1        0.0170
     24  C         23.9990  -23.2820  -10.1390 C.3     1  UNL1        0.1610
     25  N         24.9520  -22.1950  -10.1560 N.am    1  UNL1       -0.3570
     26  C         25.1750  -21.4770  -11.3040 C.2     1  UNL1        0.2130
     27  C         26.2220  -20.4000  -11.1760 C.3     1  UNL1        0.1170
     28  O         24.5640  -21.6660  -12.3510 O.2     1  UNL1       -0.2740
     29  H         25.5860  -22.0970   -9.3760 H       1  UNL1        0.1620
@<TRIPOS>BOND
     1    28    26    2
     2    26    27    1
     3    26    25   am
     4    17    16    1
     5    17    15    1
     6    16    15    1
     7    25    24    1
     8    25    29    1
     9    24    21    1
    10    15    13    1
    11    21    20    2
    12    21    22    1
    13    20    19    1
    14    13    14    1
    15    13    11   am
    16    22    23    2
    17    12    11    2
    18    19    18    2
    19    11    10    1
    20    23    18    1
    21    18     1    1
    22     4     3    1
    23     1     3   am
    24     1     2    2
    25     3     5    1
    26    10     9    1
    27    10     5    2
    28     9     8    2
    29     5     6    1
    30     8     7    1
    31     6     7    2
