@<TRIPOS>MOLECULE
67767_out_ligand_01.pdbqt
 31 34 0 0 0
SMALL
GASTEIGER

@<TRIPOS>ATOM
      1  C         19.5990  -22.4510   -7.7500 C.2     1  UNL1        0.2590
      2  O         20.2860  -21.8270   -6.9460 O.2     1  UNL1       -0.2670
      3  N         20.0470  -23.0260   -8.9200 N.am    1  UNL1       -0.3230
      4  H         19.3350  -23.4640   -9.4960 H       1  UNL1        0.1690
      5  C         18.1370  -22.6160   -7.4390 C.2     1  UNL1        0.0670
      6  C         17.7960  -22.6350   -6.0730 C.2     1  UNL1        0.0440
      7  C         16.4610  -22.7470   -5.6810 C.2     1  UNL1        0.0750
      8  C         15.4520  -22.8610   -6.6330 C.2     1  UNL1        0.0270
      9  C         15.7810  -22.8520   -7.9910 C.2     1  UNL1        0.0390
     10  C         17.1150  -22.7240   -8.4100 C.2     1  UNL1        0.0840
     11  S         16.0660  -22.7640   -3.9530 S.O2    1  UNL1        0.2390
     12  O         16.2760  -24.1040   -3.4630 O.2     1  UNL1       -0.2060
     13  O         14.8240  -22.0490   -3.7650 O.2     1  UNL1       -0.2060
     14  N         17.2530  -21.7640   -3.3060 N.3     1  UNL1       -0.2250
     15  H         18.2050  -22.1070   -3.4300 H       1  UNL1        0.1360
     16  H         17.1310  -20.8170   -3.6660 H       1  UNL1        0.1360
     17  O         17.4870  -22.7060   -9.7310 O.2     1  UNL1       -0.3550
     18  C         16.9970  -21.6470  -10.5480 C.3     1  UNL1        0.2100
     19  C         21.3580  -23.0430   -9.4420 C.2     1  UNL1        0.0350
     20  C         22.4550  -23.6210   -8.7790 C.2     1  UNL1        0.0300
     21  C         23.7360  -23.6100   -9.3450 C.2     1  UNL1        0.0100
     22  C         23.8980  -23.0130  -10.5810 C.2     1  UNL1       -0.0430
     23  C         22.8100  -22.4310  -11.2610 C.2     1  UNL1       -0.0170
     24  C         25.1670  -22.8730  -11.3970 C.2     1  UNL1        0.0780
     25  C         21.5420  -22.4430  -10.6990 C.2     1  UNL1        0.0420
     26  C         23.2820  -21.8920  -12.5200 C.2     1  UNL1       -0.0190
     27  C         22.6090  -21.2300  -13.5330 C.3     1  UNL1        0.0130
     28  C         24.6700  -22.1390  -12.6250 C.2     1  UNL1       -0.0430
     29  C         23.3360  -20.8160  -14.6540 C.2     1  UNL1        0.0010
     30  C         24.7150  -21.0650  -14.7520 C.2     1  UNL1        0.0010
     31  C         25.3960  -21.7320  -13.7320 C.2     1  UNL1        0.0080
@<TRIPOS>BOND
     1    30    29    2
     2    30    31    1
     3    29    27    1
     4    31    28    2
     5    27    26    1
     6    28    26    1
     7    28    24    1
     8    26    23    2
     9    24    22    2
    10    23    25    1
    11    23    22    1
    12    25    19    2
    13    22    21    1
    14    18    17    1
    15    17    10    1
    16     4     3    1
    17    19     3    1
    18    19    20    1
    19    21    20    2
    20     3     1   am
    21    10     9    1
    22    10     5    2
    23     9     8    2
    24     1     5    1
    25     1     2    2
    26     5     6    1
    27     8     7    1
    28     6     7    2
    29     7    11    1
    30    11    13    2
    31    11    12    2
    32    11    14    1
    33    16    14    1
    34    15    14    1
