@<TRIPOS>MOLECULE
67797_out_ligand_01.pdbqt
 26 30 0 0 0
SMALL
GASTEIGER

@<TRIPOS>ATOM
      1  N         18.3990  -23.5320   -8.7910 N.pl3   1  UNL1       -0.3390
      2  H         18.8920  -24.4020   -8.9090 H       1  UNL1        0.1670
      3  C         17.5590  -23.5160   -7.6510 C.2     1  UNL1        0.0440
      4  C         17.8880  -22.6870   -6.5280 C.2     1  UNL1        0.0040
      5  C         19.0350  -21.8510   -6.4980 C.2     1  UNL1        0.0150
      6  C         17.0390  -22.6810   -5.3860 C.2     1  UNL1        0.0090
      7  C         19.3620  -21.0710   -5.3870 C.2     1  UNL1        0.0040
      8  C         18.5380  -21.0840   -4.2740 C.2     1  UNL1        0.0370
      9  C         17.3840  -21.8610   -4.2850 C.2     1  UNL1        0.0760
     10  C         15.8890  -23.4990   -5.3910 C.2     1  UNL1        0.0150
     11  C         15.5550  -24.2710   -6.4990 C.2     1  UNL1        0.0030
     12  C         16.3760  -24.2660   -7.6190 C.2     1  UNL1        0.0300
     13  O         16.6060  -21.7530   -3.1600 O.2     1  UNL1       -0.3600
     14  H         15.6980  -21.9970   -3.3990 H       1  UNL1        0.2170
     15  C         18.4720  -22.6970   -9.9150 C.2     1  UNL1        0.1430
     16  N         17.3460  -22.2010  -10.4880 N.2     1  UNL1       -0.2230
     17  C         17.4460  -21.3700  -11.5360 C.2     1  UNL1        0.2360
     18  N         18.5580  -20.9360  -12.1290 N.2     1  UNL1       -0.2340
     19  C         19.6640  -21.4300  -11.5490 C.ar    1  UNL1        0.1140
     20  S         21.2180  -20.9890  -12.1460 S.2     1  UNL1       -0.0730
     21  C         19.7150  -22.3000  -10.4580 C.ar    1  UNL1        0.0530
     22  C         21.9520  -21.9370  -10.9820 C.ar    1  UNL1       -0.0080
     23  C         21.0780  -22.5850  -10.1520 C.ar    1  UNL1       -0.0280
     24  C         23.3800  -22.1970  -10.6950 C.3     1  UNL1        0.0470
     25  C         21.8160  -23.4060   -9.1570 C.3     1  UNL1        0.0410
     26  C         23.2660  -23.4190   -9.7350 C.3     1  UNL1        0.0100
@<TRIPOS>BOND
     1    20    19   ar
     2    20    22   ar
     3    18    19    1
     4    18    17    2
     5    19    21   ar
     6    17    16    1
     7    22    24    1
     8    22    23   ar
     9    24    26    1
    10    16    15    2
    11    21    23   ar
    12    21    15    1
    13    23    25    1
    14    15     1    1
    15    26    25    1
    16     2     1    1
    17     1     3    1
    18     3    12    2
    19     3     4    1
    20    12    11    1
    21     4     5    2
    22     4     6    1
    23    11    10    2
    24     5     7    1
    25    10     6    1
    26     7     8    2
    27     6     9    2
    28     9     8    1
    29     9    13    1
    30    14    13    1
