@<TRIPOS>MOLECULE
67801_out_ligand_01.pdbqt
 27 30 0 0 0
SMALL
GASTEIGER

@<TRIPOS>ATOM
      1  C         22.0830  -23.0380   -8.7890 C.2     1  UNL1       -0.0410
      2  C         21.6220  -24.3120   -9.1440 C.2     1  UNL1        0.0090
      3  C         20.3620  -24.7530   -8.7370 C.2     1  UNL1        0.0090
      4  C         19.5340  -23.9230   -7.9700 C.2     1  UNL1       -0.0450
      5  C         19.9890  -22.6420   -7.6290 C.2     1  UNL1        0.0090
      6  C         21.2500  -22.2010   -8.0360 C.2     1  UNL1        0.0090
      7  C         23.4250  -22.5580   -9.2690 C.3     1  UNL1        0.1610
      8  N         23.5070  -22.6420  -10.7070 N.am    1  UNL1       -0.3530
      9  C         24.3110  -21.7800  -11.4210 C.2     1  UNL1        0.2540
     10  O         25.0490  -20.9610  -10.8790 O.2     1  UNL1       -0.2680
     11  H         22.8250  -23.2150  -11.1820 H       1  UNL1        0.1630
     12  C         24.2310  -21.9070  -12.8670 C.2     1  UNL1        0.0680
     13  C         24.9300  -22.8300  -13.6280 C.2     1  UNL1        0.1300
     14  N         24.5710  -22.6220  -14.9250 N.pl3   1  UNL1       -0.2850
     15  C         25.0380  -23.3500  -16.0810 C.3     1  UNL1        0.1790
     16  N         23.6860  -21.6170  -15.0790 N.2     1  UNL1       -0.1850
     17  C         23.4770  -21.1900  -13.8300 C.2     1  UNL1        0.1570
     18  C         18.1560  -24.3830   -7.5340 C.3     1  UNL1        0.1340
     19  N         17.3480  -23.2560   -7.0730 N.pl3   1  UNL1       -0.2780
     20  C         16.0810  -22.9660   -7.7760 C.3     1  UNL1        0.1010
     21  C         15.1880  -22.1690   -6.8130 C.3     1  UNL1        0.0550
     22  C         15.7300  -22.6340   -5.5070 C.2     1  UNL1       -0.0360
     23  C         15.1780  -22.4870   -4.2440 C.2     1  UNL1        0.0090
     24  C         16.9710  -23.2500   -5.7110 C.2     1  UNL1        0.0170
     25  C         15.8910  -22.9810   -3.1530 C.2     1  UNL1        0.0010
     26  C         17.1380  -23.5940   -3.3410 C.2     1  UNL1        0.0020
     27  C         17.6870  -23.7230   -4.6230 C.2     1  UNL1        0.0240
@<TRIPOS>BOND
     1    15    14    1
     2    16    14    1
     3    16    17    2
     4    14    13    1
     5    17    12    1
     6    13    12    2
     7    12     9    1
     8     9    10    2
     9     9     8   am
    10    11     8    1
    11     8     7    1
    12     7     1    1
    13     2     1    2
    14     2     3    1
    15     1     6    1
    16     3     4    2
    17     6     5    2
    18     4     5    1
    19     4    18    1
    20    20    19    1
    21    20    21    1
    22    18    19    1
    23    19    24    1
    24    21    22    1
    25    24    22    2
    26    24    27    1
    27    22    23    1
    28    27    26    2
    29    23    25    2
    30    26    25    1
