@<TRIPOS>MOLECULE
67824_out_ligand_01.pdbqt
 29 31 0 0 0
SMALL
GASTEIGER

@<TRIPOS>ATOM
      1  C         22.9660  -23.1980  -10.3600 C.2     1  UNL1        0.2510
      2  O         23.7090  -23.2730   -9.3880 O.2     1  UNL1       -0.2680
      3  N         21.6270  -23.5240  -10.3220 N.am    1  UNL1       -0.3560
      4  H         21.1780  -23.7490  -11.2030 H       1  UNL1        0.1620
      5  C         21.0340  -24.1110   -9.1310 C.3     1  UNL1        0.1370
      6  C         19.9220  -23.2170   -8.4910 C.3     1  UNL1        0.0030
      7  C         20.6170  -22.2410   -7.4910 C.3     1  UNL1        0.0160
      8  C         19.7270  -21.7090   -6.3580 C.3     1  UNL1        0.0010
      9  C         18.2350  -21.9230   -6.5670 C.3     1  UNL1        0.0000
     10  C         17.8830  -23.3660   -6.9130 C.3     1  UNL1        0.0010
     11  C         18.9990  -24.1270   -7.6360 C.3     1  UNL1        0.0160
     12  C         19.1230  -22.5460   -9.6360 C.2     1  UNL1       -0.0480
     13  C         19.6790  -21.4550  -10.3360 C.2     1  UNL1        0.0080
     14  C         18.9760  -20.8030  -11.3530 C.2     1  UNL1        0.0010
     15  C         17.6960  -21.2230  -11.6950 C.2     1  UNL1        0.0000
     16  C         17.1220  -22.2930  -11.0190 C.2     1  UNL1        0.0010
     17  C         17.8250  -22.9450  -10.0000 C.2     1  UNL1        0.0080
     18  C         23.5030  -22.7700  -11.6830 C.2     1  UNL1        0.0320
     19  C         24.7160  -23.2560  -12.1860 C.2     1  UNL1        0.0170
     20  C         25.1760  -22.8310  -13.4350 C.2     1  UNL1        0.0100
     21  C         24.4320  -21.9190  -14.2000 C.2     1  UNL1       -0.0400
     22  C         23.2080  -21.4540  -13.7010 C.2     1  UNL1        0.0100
     23  C         22.7470  -21.8770  -12.4520 C.2     1  UNL1        0.0170
     24  C         24.9250  -21.4900  -15.5580 C.3     1  UNL1        0.1610
     25  N         24.0840  -22.0300  -16.6030 N.am    1  UNL1       -0.3570
     26  C         24.3070  -23.2770  -17.1370 C.2     1  UNL1        0.2130
     27  C         23.2500  -23.7170  -18.1130 C.3     1  UNL1        0.1170
     28  O         25.2610  -23.9890  -16.8430 O.2     1  UNL1       -0.2740
     29  H         23.1810  -21.5980  -16.7400 H       1  UNL1        0.1620
@<TRIPOS>BOND
     1    27    26    1
     2    26    28    2
     3    26    25   am
     4    29    25    1
     5    25    24    1
     6    24    21    1
     7    21    22    2
     8    21    20    1
     9    22    23    1
    10    20    19    2
    11    23    18    2
    12    19    18    1
    13    15    14    2
    14    15    16    1
    15    18     1    1
    16    14    13    1
    17     4     3    1
    18    16    17    2
    19     1     3   am
    20     1     2    2
    21    13    12    2
    22     3     5    1
    23    17    12    1
    24    12     6    1
    25     5     6    1
    26     6    11    1
    27     6     7    1
    28    11    10    1
    29     7     8    1
    30    10     9    1
    31     9     8    1
