@<TRIPOS>MOLECULE
67827_out_ligand_01.pdbqt
 31 33 0 0 0
SMALL
GASTEIGER

@<TRIPOS>ATOM
      1  C         21.1070  -23.1500   -9.1530 C.2     1  UNL1        0.2510
      2  O         21.6610  -22.8610   -8.0980 O.2     1  UNL1       -0.2680
      3  N         19.9570  -23.9050   -9.2210 N.am    1  UNL1       -0.3560
      4  H         19.5050  -24.0580  -10.1110 H       1  UNL1        0.1620
      5  C         21.6900  -22.7020  -10.4490 C.2     1  UNL1        0.0320
      6  C         23.0100  -23.0710  -10.7400 C.2     1  UNL1        0.0170
      7  C         23.6090  -22.6750  -11.9390 C.2     1  UNL1        0.0100
      8  C         22.8970  -21.9020  -12.8640 C.2     1  UNL1       -0.0400
      9  C         21.5840  -21.5150  -12.5600 C.2     1  UNL1        0.0100
     10  C         20.9830  -21.9090  -11.3600 C.2     1  UNL1        0.0170
     11  C         23.5440  -21.4480  -14.1490 C.3     1  UNL1        0.1620
     12  N         24.5650  -22.3770  -14.5770 N.am    1  UNL1       -0.3440
     13  C         24.5800  -22.8620  -15.8500 C.2     1  UNL1        0.2920
     14  N         25.6730  -23.6300  -16.0910 N.am    1  UNL1       -0.2540
     15  O         23.7320  -22.6660  -16.7060 O.2     1  UNL1       -0.2540
     16  H         25.6300  -24.0950  -16.9890 H       1  UNL1        0.1280
     17  H         25.9700  -24.2250  -15.3310 H       1  UNL1        0.1280
     18  H         25.4770  -22.2640  -14.1590 H       1  UNL1        0.1640
     19  C         19.2110  -24.2640   -8.0240 C.3     1  UNL1        0.1370
     20  C         17.9800  -23.3340   -7.7640 C.3     1  UNL1        0.0030
     21  C         17.7880  -22.4730   -9.0590 C.3     1  UNL1        0.0160
     22  C         16.3360  -22.0550   -9.2740 C.3     1  UNL1        0.0010
     23  C         15.4340  -23.2710   -9.4930 C.3     1  UNL1        0.0000
     24  C         15.9590  -24.5390   -8.8190 C.3     1  UNL1        0.0010
     25  C         16.7120  -24.2180   -7.5310 C.3     1  UNL1        0.0160
     26  C         18.2180  -22.5170   -6.4680 C.2     1  UNL1       -0.0480
     27  C         19.1310  -21.4520   -6.3880 C.2     1  UNL1        0.0080
     28  C         19.3280  -20.7520   -5.1930 C.2     1  UNL1        0.0010
     29  C         18.6120  -21.0940   -4.0520 C.2     1  UNL1        0.0000
     30  C         17.6920  -22.1340   -4.1050 C.2     1  UNL1        0.0010
     31  C         17.4950  -22.8330   -5.2990 C.2     1  UNL1        0.0080
@<TRIPOS>BOND
     1    16    14    1
     2    15    13    2
     3    14    13   am
     4    14    17    1
     5    13    12   am
     6    12    18    1
     7    12    11    1
     8    11     8    1
     9     8     9    2
    10     8     7    1
    11     9    10    1
    12     7     6    2
    13    10     5    2
    14     6     5    1
    15     5     1    1
    16     4     3    1
    17    23    22    1
    18    23    24    1
    19    22    21    1
    20     3     1   am
    21     3    19    1
    22     1     2    2
    23    21    20    1
    24    24    25    1
    25    19    20    1
    26    20    25    1
    27    20    26    1
    28    26    27    2
    29    26    31    1
    30    27    28    1
    31    31    30    2
    32    28    29    2
    33    30    29    1
