@<TRIPOS>MOLECULE
67832_out_ligand_01.pdbqt
 26 28 0 0 0
SMALL
GASTEIGER

@<TRIPOS>ATOM
      1  C         19.9750  -22.6830   -8.9770 C.2     1  UNL1        0.1840
      2  N         18.7860  -22.2280   -9.4190 N.2     1  UNL1       -0.1990
      3  C         18.7510  -21.7290  -10.6710 C.2     1  UNL1        0.2370
      4  N         19.8350  -21.6880  -11.4850 N.pl3   1  UNL1       -0.2240
      5  C         21.0020  -22.1520  -11.0200 C.2     1  UNL1        0.0730
      6  C         22.1210  -22.1140  -11.8440 C.2     1  UNL1        0.0320
      7  C         23.3680  -22.5850  -11.4210 C.2     1  UNL1        0.0020
      8  C         23.5120  -23.1080  -10.1420 C.2     1  UNL1        0.0010
      9  C         22.4060  -23.1580   -9.2970 C.2     1  UNL1        0.0180
     10  C         21.1460  -22.6800   -9.7360 C.2     1  UNL1        0.0460
     11  O         20.0630  -23.2190   -7.6910 O.2     1  UNL1       -0.2910
     12  C         18.9350  -23.1570   -6.9100 C.2     1  UNL1        0.0780
     13  C         18.0470  -24.2290   -6.9430 C.2     1  UNL1        0.0380
     14  C         16.9180  -24.2160   -6.1210 C.2     1  UNL1        0.0200
     15  C         16.6910  -23.1410   -5.2490 C.2     1  UNL1        0.0320
     16  C         17.5940  -22.0700   -5.2190 C.2     1  UNL1        0.0200
     17  C         18.7240  -22.0840   -6.0410 C.2     1  UNL1        0.0380
     18  C         15.4740  -23.1800   -4.3920 C.2     1  UNL1        0.2490
     19  N         14.5510  -24.1570   -4.6450 N.am    1  UNL1       -0.3660
     20  H         14.5290  -24.6630   -5.5180 H       1  UNL1        0.1590
     21  H         13.6800  -24.0770   -4.1350 H       1  UNL1        0.1590
     22  O         15.2760  -22.3480   -3.5150 O.2     1  UNL1       -0.2680
     23  C         17.4100  -21.2240  -11.2190 C.3     1  UNL1        0.4530
     24  F         16.3220  -21.7670  -10.5900 F       1  UNL1       -0.1630
     25  F         17.2410  -21.4970  -12.5470 F       1  UNL1       -0.1630
     26  F         17.2490  -19.8700  -11.1010 F       1  UNL1       -0.1630
@<TRIPOS>BOND
     1    25    23    1
     2     6     7    1
     3     6     5    2
     4     4     5    1
     5     4     3    1
     6     7     8    2
     7    23    26    1
     8    23     3    1
     9    23    24    1
    10     5    10    1
    11     3     2    2
    12     8     9    1
    13    10     9    2
    14    10     1    1
    15     2     1    2
    16     1    11    1
    17    11    12    1
    18    13    12    2
    19    13    14    1
    20    12    17    1
    21    14    15    2
    22    17    16    2
    23    20    19    1
    24    15    16    1
    25    15    18    1
    26    19    18   am
    27    19    21    1
    28    18    22    2
