@<TRIPOS>MOLECULE
67835_out_ligand_01.pdbqt
 30 33 0 0 0
SMALL
GASTEIGER

@<TRIPOS>ATOM
      1  C         22.3860  -23.8010   -9.3640 C.3     1  UNL1        0.1580
      2  N         22.0980  -22.9170  -10.4750 N.pl3   1  UNL1       -0.3310
      3  C         20.9080  -22.2130  -10.6610 C.2     1  UNL1        0.1050
      4  C         21.0660  -21.4990  -11.8460 C.2     1  UNL1        0.0560
      5  C         22.3440  -21.7920  -12.3710 C.2     1  UNL1        0.0810
      6  C         23.0460  -21.3520  -13.5540 C.2     1  UNL1        0.2670
      7  O         22.5300  -20.5730  -14.3540 O.2     1  UNL1       -0.2670
      8  N         24.3350  -21.9050  -13.6760 N.am    1  UNL1       -0.2730
      9  C         25.1080  -21.5520  -14.7780 C.3     1  UNL1        0.1020
     10  C         26.3410  -22.0360  -14.9660 C.2     1  UNL1        0.0180
     11  C         26.9090  -22.9500  -14.0130 C.2     1  UNL1        0.0050
     12  C         26.2130  -23.3260  -12.9340 C.2     1  UNL1        0.0510
     13  C         24.8370  -22.7990  -12.7050 C.2     1  UNL1        0.1390
     14  N         24.1950  -23.1930  -11.6390 N.pl3   1  UNL1       -0.2120
     15  C         22.9580  -22.6640  -11.5140 C.2     1  UNL1        0.1480
     16  C         19.7770  -22.2510   -9.7320 C.2     1  UNL1        0.2730
     17  O         18.6270  -22.0600  -10.1090 O.2     1  UNL1       -0.2660
     18  N         20.1400  -22.5010   -8.4200 N.am    1  UNL1       -0.3220
     19  H         21.1300  -22.5620   -8.2340 H       1  UNL1        0.1690
     20  C         19.3000  -22.6250   -7.2940 C.2     1  UNL1        0.0350
     21  C         18.5930  -23.8300   -7.1600 C.2     1  UNL1        0.0300
     22  C         17.7300  -24.0420   -6.0770 C.2     1  UNL1        0.0190
     23  C         17.5590  -23.0430   -5.1150 C.2     1  UNL1        0.0320
     24  C         18.2710  -21.8460   -5.2370 C.2     1  UNL1        0.0190
     25  C         19.1310  -21.6370   -6.3240 C.2     1  UNL1        0.0300
     26  C         16.6590  -23.2160   -3.9440 C.2     1  UNL1        0.2490
     27  N         16.3100  -22.0920   -3.2450 N.am    1  UNL1       -0.3660
     28  H         15.8130  -22.2580   -2.3790 H       1  UNL1        0.1590
     29  H         16.8410  -21.2370   -3.3140 H       1  UNL1        0.1590
     30  O         16.2680  -24.3200   -3.5890 O.2     1  UNL1       -0.2680
@<TRIPOS>BOND
     1    10     9    1
     2    10    11    2
     3     9     8    1
     4     7     6    2
     5    11    12    1
     6     8     6   am
     7     8    13    1
     8     6     5    1
     9    12    13    2
    10    13    14    1
    11     5     4    1
    12     5    15    2
    13     4     3    2
    14    14    15    1
    15    15     2    1
    16     3     2    1
    17     3    16    1
    18     2     1    1
    19    17    16    2
    20    16    18   am
    21    18    19    1
    22    18    20    1
    23    20    21    2
    24    20    25    1
    25    21    22    1
    26    25    24    2
    27    22    23    2
    28    24    23    1
    29    23    26    1
    30    26    30    2
    31    26    27   am
    32    29    27    1
    33    27    28    1
