@<TRIPOS>MOLECULE
6784_out_ligand_01.pdbqt
 28 30 0 0 0
SMALL
GASTEIGER

@<TRIPOS>ATOM
      1  C         21.6630  -21.6660  -12.2820 C.2     1  UNL1        0.0320
      2  C         20.3640  -21.1720  -12.1840 C.2     1  UNL1        0.0190
      3  C         19.5170  -21.6140  -11.1560 C.2     1  UNL1        0.0310
      4  C         19.9300  -22.5700  -10.2140 C.2     1  UNL1        0.0430
      5  C         21.2420  -23.0790  -10.3350 C.2     1  UNL1       -0.0300
      6  C         22.0930  -22.6220  -11.3590 C.2     1  UNL1        0.0260
      7  C         21.7980  -24.0920   -9.3700 C.3     1  UNL1        0.0420
      8  C         20.6840  -24.8470   -8.6750 C.3     1  UNL1        0.0250
      9  C         19.6950  -23.8510   -8.1010 C.3     1  UNL1        0.1330
     10  N         19.0740  -23.0090   -9.1350 N.am    1  UNL1       -0.3130
     11  C         17.7130  -22.6560   -9.0550 C.2     1  UNL1        0.2610
     12  O         17.0090  -22.2520   -9.9790 O.2     1  UNL1       -0.2670
     13  C         22.6090  -21.2270  -13.3440 C.2     1  UNL1        0.2510
     14  N         23.8100  -21.9020  -13.4140 N.am    1  UNL1       -0.3570
     15  H         23.9510  -22.7280  -12.8480 H       1  UNL1        0.1620
     16  O         22.2890  -20.3310  -14.1180 O.2     1  UNL1       -0.2680
     17  C         24.7970  -21.6130  -14.4340 C.3     1  UNL1        0.1230
     18  C         26.1390  -21.1740  -13.8460 C.3     1  UNL1        0.0200
     19  C         26.1360  -19.7190  -13.3640 C.3     1  UNL1        0.0010
     20  C         26.5770  -19.5650  -11.9060 C.3     1  UNL1       -0.0040
     21  C         26.1230  -20.7040  -11.0070 C.3     1  UNL1        0.0050
     22  C         17.0080  -22.8160   -7.7660 C.2     1  UNL1        0.0710
     23  C         17.3990  -22.0310   -6.6750 C.2     1  UNL1        0.0200
     24  C         16.7640  -22.1920   -5.4420 C.2     1  UNL1        0.0010
     25  C         15.7530  -23.1460   -5.2940 C.2     1  UNL1        0.0030
     26  C         15.3830  -23.9450   -6.3760 C.2     1  UNL1        0.0430
     27  C         16.0170  -23.7820   -7.6050 C.2     1  UNL1        0.1320
     28  F         15.6530  -24.5730   -8.6260 F       1  UNL1       -0.2050
@<TRIPOS>BOND
     1    17    18    1
     2    17    14    1
     3    16    13    2
     4    18    19    1
     5    14    13   am
     6    14    15    1
     7    19    20    1
     8    13     1    1
     9     1     2    2
    10     1     6    1
    11     2     3    1
    12    20    21    1
    13     6     5    2
    14     3     4    2
    15     5     4    1
    16     5     7    1
    17     4    10    1
    18    12    11    2
    19     7     8    1
    20    10    11   am
    21    10     9    1
    22    11    22    1
    23     8     9    1
    24    28    27    1
    25    22    27    2
    26    22    23    1
    27    27    26    1
    28    23    24    2
    29    26    25    2
    30    24    25    1
