@<TRIPOS>MOLECULE
67848_out_ligand_01.pdbqt
 37 41 0 0 0
SMALL
GASTEIGER

@<TRIPOS>ATOM
      1  O         21.2080  -21.1390  -12.8190 O.2     1  UNL1       -0.2670
      2  C         21.1120  -21.7760  -11.7760 C.2     1  UNL1        0.2560
      3  N         22.1340  -22.3930  -11.0790 N.am    1  UNL1       -0.3230
      4  H         21.8970  -22.8320  -10.1980 H       1  UNL1        0.1690
      5  C         19.7620  -21.8970  -11.1560 C.2     1  UNL1        0.0320
      6  C         18.6010  -21.4990  -11.8310 C.2     1  UNL1        0.0180
      7  C         17.3560  -21.6340  -11.2110 C.2     1  UNL1        0.0190
      8  C         17.2670  -22.1470   -9.9100 C.2     1  UNL1        0.0450
      9  C         18.4280  -22.5220   -9.2220 C.2     1  UNL1       -0.0380
     10  C         15.9300  -22.3210   -9.2830 C.2     1  UNL1        0.2940
     11  C         19.6750  -22.4000   -9.8500 C.2     1  UNL1        0.0250
     12  C         18.3010  -23.0870   -7.8370 C.3     1  UNL1        0.0770
     13  C         17.0940  -22.4320   -7.1600 C.3     1  UNL1        0.1690
     14  O         15.9140  -22.6500   -7.9670 O.3     1  UNL1       -0.3070
     15  O         14.9040  -22.1980   -9.9380 O.2     1  UNL1       -0.2590
     16  C         16.7770  -22.9090   -5.7520 C.2     1  UNL1       -0.0290
     17  C         15.5110  -23.4710   -5.5040 C.2     1  UNL1        0.0100
     18  C         15.1520  -23.9130   -4.2300 C.2     1  UNL1        0.0010
     19  C         16.0540  -23.8010   -3.1770 C.2     1  UNL1        0.0000
     20  C         17.3120  -23.2490   -3.3990 C.2     1  UNL1        0.0010
     21  C         17.6720  -22.8060   -4.6760 C.2     1  UNL1        0.0100
     22  C         23.5000  -22.4410  -11.4290 C.2     1  UNL1        0.0360
     23  C         24.3620  -21.5600  -10.7590 C.2     1  UNL1        0.0290
     24  C         25.7340  -21.5500  -11.0300 C.2     1  UNL1        0.0040
     25  C         26.2610  -22.4200  -11.9780 C.2     1  UNL1        0.0250
     26  C         25.4050  -23.2920  -12.6520 C.2     1  UNL1        0.0820
     27  C         24.0290  -23.3030  -12.3880 C.2     1  UNL1        0.0540
     28  S         26.0510  -24.3980  -13.8750 S.O2    1  UNL1        0.2640
     29  O         24.9620  -25.0820  -14.5340 O.2     1  UNL1       -0.2000
     30  O         27.1210  -25.1480  -13.2470 O.2     1  UNL1       -0.2000
     31  N         26.7950  -23.3850  -14.9670 N.3     1  UNL1       -0.2680
     32  H         27.7630  -23.1990  -14.7220 H       1  UNL1        0.1800
     33  C         26.1930  -22.7570  -16.0510 C.3     1  UNL1        0.1080
     34  N         26.4580  -23.0250  -17.2850 N.3     1  UNL1       -0.2760
     35  C         25.5650  -22.1500  -18.0680 C.3     1  UNL1        0.1510
     36  C         25.1420  -21.0380  -17.1220 C.3     1  UNL1        0.0290
     37  C         25.1430  -21.7300  -15.7810 C.3     1  UNL1        0.0800
@<TRIPOS>BOND
     1    35    34    1
     2    35    36    1
     3    34    33    1
     4    36    37    1
     5    33    37    1
     6    33    31    1
     7    31    32    1
     8    31    28    1
     9    29    28    2
    10    28    30    2
    11    28    26    1
    12     1     2    2
    13    26    27    1
    14    26    25    2
    15    27    22    2
    16    25    24    1
    17     6     7    1
    18     6     5    2
    19     2     5    1
    20     2     3   am
    21    22     3    1
    22    22    23    1
    23     7     8    2
    24     5    11    1
    25     3     4    1
    26    24    23    2
    27    15    10    2
    28     8    10    1
    29     8     9    1
    30    11     9    2
    31    10    14    1
    32     9    12    1
    33    14    13    1
    34    12    13    1
    35    13    16    1
    36    16    17    2
    37    16    21    1
    38    17    18    1
    39    21    20    2
    40    18    19    2
    41    20    19    1
