@<TRIPOS>MOLECULE
67859_out_ligand_01.pdbqt
 36 40 0 0 0
SMALL
GASTEIGER

@<TRIPOS>ATOM
      1  C         21.3270  -22.3100  -10.3730 C.2     1  UNL1        0.0330
      2  C         20.4550  -21.8460  -11.3700 C.2     1  UNL1        0.0170
      3  C         20.9620  -21.4050  -12.5940 C.2     1  UNL1        0.0030
      4  C         22.3390  -21.4130  -12.8210 C.2     1  UNL1        0.0250
      5  C         23.2060  -21.8470  -11.8120 C.2     1  UNL1        0.0800
      6  C         22.7080  -22.3030  -10.5880 C.2     1  UNL1        0.0420
      7  C         20.8090  -22.7810   -9.0600 C.2     1  UNL1        0.2560
      8  O         21.4080  -23.6870   -8.4970 O.2     1  UNL1       -0.2670
      9  N         19.6530  -22.1490   -8.6410 N.am    1  UNL1       -0.3230
     10  H         19.1910  -21.5440   -9.3110 H       1  UNL1        0.1690
     11  C         18.9850  -22.3190   -7.4100 C.2     1  UNL1        0.0370
     12  C         19.3530  -21.4650   -6.3630 C.2     1  UNL1        0.0320
     13  C         18.7610  -21.5860   -5.1040 C.2     1  UNL1        0.0420
     14  C         17.7790  -22.5480   -4.8860 C.2     1  UNL1        0.1020
     15  C         17.4110  -23.4080   -5.9200 C.2     1  UNL1        0.1040
     16  O         17.3000  -22.6520   -3.6090 O.2     1  UNL1       -0.3480
     17  C         18.0200  -23.3010   -7.1760 C.2     1  UNL1        0.0690
     18  O         16.5500  -24.4580   -5.7460 O.2     1  UNL1       -0.3480
     19  C         15.2350  -24.0310   -5.3880 C.3     1  UNL1        0.1780
     20  C         15.1230  -23.7250   -3.9020 C.3     1  UNL1        0.0530
     21  C         15.8870  -22.4610   -3.5440 C.3     1  UNL1        0.1780
     22  S         24.9580  -21.8540  -12.0950 S.O2    1  UNL1        0.2590
     23  O         25.5640  -21.0120  -11.0880 O.2     1  UNL1       -0.2010
     24  O         25.3780  -23.2240  -12.2910 O.2     1  UNL1       -0.2010
     25  N         25.0980  -21.0550  -13.5450 N.3     1  UNL1       -0.3060
     26  H         24.4330  -20.3090  -13.7430 H       1  UNL1        0.1730
     27  C         26.1020  -21.4330  -14.5380 C.3     1  UNL1        0.1310
     28  C         27.0200  -20.2510  -14.8410 C.3     1  UNL1        0.0570
     29  C         26.3590  -19.3250  -15.8430 C.3     1  UNL1        0.1780
     30  O         26.1280  -19.9810  -17.0920 O.2     1  UNL1       -0.3500
     31  C         25.4950  -21.1900  -16.9830 C.2     1  UNL1        0.0770
     32  C         24.9160  -21.6820  -18.1530 C.2     1  UNL1        0.0370
     33  C         25.4410  -21.9330  -15.7970 C.2     1  UNL1       -0.0020
     34  C         24.2450  -22.9050  -18.1430 C.2     1  UNL1        0.0030
     35  C         24.1580  -23.6400  -16.9630 C.2     1  UNL1        0.0010
     36  C         24.7560  -23.1600  -15.7970 C.2     1  UNL1        0.0120
@<TRIPOS>BOND
     1    32    34    1
     2    32    31    2
     3    34    35    2
     4    30    31    1
     5    30    29    1
     6    31    33    1
     7    35    36    1
     8    29    28    1
     9    33    36    2
    10    33    27    1
    11    28    27    1
    12    27    25    1
    13    26    25    1
    14    25    22    1
    15     4     3    2
    16     4     5    1
    17     3     2    1
    18    24    22    2
    19    22     5    1
    20    22    23    2
    21     5     6    2
    22     2     1    2
    23     6     1    1
    24     1     7    1
    25    10     9    1
    26     7     9   am
    27     7     8    2
    28     9    11    1
    29    11    17    2
    30    11    12    1
    31    17    15    1
    32    12    13    2
    33    15    18    1
    34    15    14    2
    35    18    19    1
    36    19    20    1
    37    13    14    1
    38    14    16    1
    39    20    21    1
    40    16    21    1
