@<TRIPOS>MOLECULE
67922_out_ligand_01.pdbqt
 30 32 0 0 0
SMALL
GASTEIGER

@<TRIPOS>ATOM
      1  O         20.9340  -22.8030   -8.3280 O.3     1  UNL1       -0.2970
      2  C         20.2290  -23.9310   -8.0840 C.2     1  UNL1        0.2940
      3  O         20.5090  -25.0500   -8.4860 O.2     1  UNL1       -0.2590
      4  C         19.0150  -23.6230   -7.2790 C.2     1  UNL1        0.0390
      5  C         17.9910  -24.5810   -7.2330 C.2     1  UNL1        0.0190
      6  C         16.8310  -24.3400   -6.4920 C.2     1  UNL1        0.0260
      7  C         16.6960  -23.1330   -5.8000 C.2     1  UNL1        0.0740
      8  C         17.7150  -22.1770   -5.8230 C.2     1  UNL1        0.0260
      9  C         18.8740  -22.4220   -6.5660 C.2     1  UNL1        0.0190
     10  S         15.2260  -22.8340   -4.8530 S.O2    1  UNL1        0.2390
     11  O         14.7040  -24.1030   -4.4020 O.2     1  UNL1       -0.2060
     12  O         14.4200  -21.8640   -5.5530 O.2     1  UNL1       -0.2060
     13  N         15.8580  -22.0920   -3.4800 N.3     1  UNL1       -0.2250
     14  H         16.0530  -22.8070   -2.7780 H       1  UNL1        0.1360
     15  H         16.6710  -21.5090   -3.6710 H       1  UNL1        0.1360
     16  C         21.4360  -22.7030   -9.6690 C.3     1  UNL1        0.2570
     17  C         22.7370  -21.8510   -9.7120 C.2     1  UNL1        0.2540
     18  O         22.9110  -20.9380   -8.8940 O.2     1  UNL1       -0.2700
     19  N         23.6950  -22.1490  -10.6810 N.am    1  UNL1       -0.3500
     20  C         24.9620  -21.4170  -10.6610 C.3     1  UNL1        0.1260
     21  C         23.5430  -23.1960  -11.6910 C.3     1  UNL1        0.1260
     22  C         26.1310  -22.3220  -11.0360 C.3     1  UNL1        0.0200
     23  C         25.9560  -22.9510  -12.4180 C.3     1  UNL1        0.0030
     24  C         24.4970  -23.0110  -12.8670 C.3     1  UNL1        0.0200
     25  C         20.3120  -22.0870  -10.4880 C.2     1  UNL1       -0.0200
     26  C         18.9990  -22.5710  -10.3540 C.2     1  UNL1        0.0100
     27  C         17.9530  -22.0040  -11.0870 C.2     1  UNL1        0.0010
     28  C         18.2030  -20.9410  -11.9510 C.2     1  UNL1        0.0000
     29  C         19.4950  -20.4370  -12.0790 C.2     1  UNL1        0.0010
     30  C         20.5420  -21.0020  -11.3490 C.2     1  UNL1        0.0100
@<TRIPOS>BOND
     1    24    23    1
     2    24    21    1
     3    23    22    1
     4    29    28    2
     5    29    30    1
     6    28    27    1
     7    21    19    1
     8    30    25    2
     9    27    26    2
    10    22    20    1
    11    19    20    1
    12    19    17   am
    13    25    26    1
    14    25    16    1
    15    17    16    1
    16    17    18    2
    17    16     1    1
    18     3     2    2
    19     1     2    1
    20     2     4    1
    21     4     5    2
    22     4     9    1
    23     5     6    1
    24     9     8    2
    25     6     7    2
    26     8     7    1
    27     7    10    1
    28    12    10    2
    29    10    11    2
    30    10    13    1
    31    15    13    1
    32    13    14    1
