@<TRIPOS>MOLECULE
67924_out_ligand_01.pdbqt
 38 42 0 0 0
SMALL
GASTEIGER

@<TRIPOS>ATOM
      1  C         25.2580  -20.7610  -12.9480 C.2     1  UNL1        0.0170
      2  C         25.9470  -19.7440  -13.6250 C.2     1  UNL1        0.0190
      3  C         26.8790  -18.9440  -12.9580 C.2     1  UNL1        0.0010
      4  C         27.1210  -19.1300  -11.5990 C.2     1  UNL1        0.0010
      5  C         26.4340  -20.1240  -10.9040 C.2     1  UNL1        0.0190
      6  C         25.5060  -20.9360  -11.5760 C.2     1  UNL1        0.0560
      7  C         24.8490  -22.0040  -10.8080 C.2     1  UNL1        0.2950
      8  O         25.2510  -23.1540  -10.7570 O.2     1  UNL1       -0.2590
      9  O         23.7510  -21.4900  -10.2030 O.3     1  UNL1       -0.3100
     10  C         23.4410  -22.1000   -8.9510 C.3     1  UNL1        0.2630
     11  C         22.2400  -23.0300   -9.0670 C.2     1  UNL1        0.1830
     12  O         22.1950  -23.9080   -9.9310 O.2     1  UNL1       -0.2900
     13  C         21.0810  -22.8710   -8.1400 C.2     1  UNL1        0.0130
     14  C         20.9910  -21.7810   -7.2350 C.2     1  UNL1        0.0240
     15  C         19.8950  -21.6710   -6.3740 C.2     1  UNL1       -0.0300
     16  C         18.9440  -22.6700   -6.4500 C.2     1  UNL1        0.0500
     17  C         19.7190  -20.5880   -5.3460 C.3     1  UNL1        0.0420
     18  C         18.9960  -23.7370   -7.3330 C.2     1  UNL1       -0.0210
     19  N         17.8050  -22.7460   -5.6620 N.am    1  UNL1       -0.3170
     20  C         20.0630  -23.8490   -8.2010 C.2     1  UNL1        0.0250
     21  C         17.7910  -24.6050   -7.1150 C.3     1  UNL1        0.1440
     22  C         17.0690  -23.8910   -5.9510 C.2     1  UNL1        0.2280
     23  O         16.0490  -24.2740   -5.3990 O.2     1  UNL1       -0.2730
     24  C         17.5850  -21.7830   -4.6050 C.3     1  UNL1        0.1320
     25  C         18.2400  -20.4330   -4.9380 C.3     1  UNL1        0.0250
     26  S         24.0680  -21.7130  -13.8960 S.3     1  UNL1       -0.1200
     27  C         22.5440  -20.7290  -13.6420 C.3     1  UNL1        0.1820
     28  C         21.5240  -21.4890  -12.8090 C.2     1  UNL1        0.2310
     29  N         20.3260  -20.7980  -12.6720 N.am    1  UNL1       -0.3270
     30  H         20.2570  -19.9060  -13.1490 H       1  UNL1        0.1690
     31  O         21.8000  -22.5800  -12.3150 O.2     1  UNL1       -0.2720
     32  C         19.2180  -21.1530  -11.8740 C.2     1  UNL1        0.0340
     33  C         19.1480  -22.4810  -11.4340 C.2     1  UNL1        0.0300
     34  C         18.0720  -22.9190  -10.6570 C.2     1  UNL1        0.0090
     35  C         17.0520  -22.0360  -10.2950 C.2     1  UNL1       -0.0620
     36  C         15.8750  -22.5060   -9.4920 C.3     1  UNL1        0.0480
     37  C         17.1190  -20.7110  -10.7390 C.2     1  UNL1        0.0090
     38  C         18.1960  -20.2720  -11.5170 C.2     1  UNL1        0.0300
@<TRIPOS>BOND
     1    26    27    1
     2    26     1    1
     3    27    28    1
     4     2     3    1
     5     2     1    2
     6    30    29    1
     7     3     4    2
     8     1     6    1
     9    28    29   am
    10    28    31    2
    11    29    32    1
    12    32    38    2
    13    32    33    1
    14     4     5    1
    15     6     5    2
    16     6     7    1
    17    38    37    1
    18    33    34    2
    19     7     8    2
    20     7     9    1
    21    37    35    2
    22    34    35    1
    23    35    36    1
    24     9    10    1
    25    12    11    2
    26    11    10    1
    27    11    13    1
    28    20    13    2
    29    20    18    1
    30    13    14    1
    31    18    21    1
    32    18    16    2
    33    14    15    2
    34    21    22    1
    35    16    15    1
    36    16    19    1
    37    15    17    1
    38    22    19   am
    39    22    23    2
    40    19    24    1
    41    17    25    1
    42    25    24    1
