@<TRIPOS>MOLECULE
67923_out_ligand_01.pdbqt
 34 37 0 0 0
SMALL
GASTEIGER

@<TRIPOS>ATOM
      1  C         17.4580  -22.8920   -9.1470 C.2     1  UNL1        0.0820
      2  C         16.9900  -22.0260  -10.1330 C.2     1  UNL1        0.0260
      3  C         17.8890  -21.5050  -11.0590 C.2     1  UNL1        0.0100
      4  C         19.2550  -21.8430  -11.0090 C.2     1  UNL1       -0.0350
      5  C         20.1680  -21.2410  -12.0460 C.3     1  UNL1        0.0500
      6  C         19.7220  -22.7300  -10.0100 C.2     1  UNL1        0.0420
      7  C         18.8080  -23.2600   -9.0940 C.2     1  UNL1        0.0550
      8  N         21.1020  -23.0450   -9.9790 N.am    1  UNL1       -0.3250
      9  C         22.0210  -22.7920   -8.9700 C.2     1  UNL1        0.2430
     10  O         21.7890  -22.1920   -7.9230 O.2     1  UNL1       -0.2710
     11  H         21.4510  -23.5460  -10.7920 H       1  UNL1        0.1690
     12  C         23.4400  -23.2230   -9.2760 C.3     1  UNL1        0.2720
     13  N         23.9650  -22.5880  -10.4590 N.3     1  UNL1       -0.1820
     14  N         24.5740  -21.3880  -10.3900 N.pl3   1  UNL1        0.0250
     15  N         24.9160  -21.1160  -11.6410 N.2     1  UNL1       -0.1350
     16  C         24.5080  -22.1830  -12.4040 C.2     1  UNL1        0.2040
     17  N         23.9060  -23.1420  -11.6810 N.pl3   1  UNL1       -0.1350
     18  C         24.7210  -22.2730  -13.9480 C.2     1  UNL1        0.0550
     19  C         25.1840  -23.3950  -14.6020 C.2     1  UNL1        0.0230
     20  C         25.2770  -23.1910  -16.0100 C.2     1  UNL1        0.0090
     21  C         24.8820  -21.9230  -16.3750 C.2     1  UNL1        0.0500
     22  S         24.4020  -20.9880  -15.0230 S.3     1  UNL1       -0.0980
     23  S         16.3110  -23.5750   -7.9690 S.O2    1  UNL1        0.2630
     24  O         15.5660  -22.4690   -7.4020 O.2     1  UNL1       -0.2000
     25  O         15.6280  -24.6890   -8.5880 O.2     1  UNL1       -0.2000
     26  N         17.3140  -24.1310   -6.7300 N.pl3   1  UNL1       -0.2810
     27  H         17.1500  -25.1130   -6.5190 H       1  UNL1        0.1790
     28  C         17.6780  -23.2660   -5.6620 C.2     1  UNL1        0.0430
     29  C         17.2840  -23.6020   -4.3660 C.2     1  UNL1        0.0300
     30  C         17.5960  -22.7570   -3.3010 C.2     1  UNL1        0.0030
     31  C         18.3080  -21.5790   -3.5290 C.2     1  UNL1        0.0070
     32  C         18.7300  -21.2450   -4.8210 C.2     1  UNL1       -0.0600
     33  C         19.4600  -19.9610   -5.0770 C.3     1  UNL1        0.0480
     34  C         18.4070  -22.0960   -5.8870 C.2     1  UNL1        0.0370
@<TRIPOS>BOND
     1    21    20    2
     2    21    22    1
     3    20    19    1
     4    22    18    1
     5    19    18    2
     6    18    16    1
     7    16    17    1
     8    16    15    2
     9     5     4    1
    10    17    13    1
    11    15    14    1
    12     3     4    2
    13     3     2    1
    14     4     6    1
    15    11     8    1
    16    13    14    1
    17    13    12    1
    18     2     1    2
    19     6     8    1
    20     6     7    2
    21     8     9   am
    22    12     9    1
    23     1     7    1
    24     1    23    1
    25     9    10    2
    26    25    23    2
    27    23    24    2
    28    23    26    1
    29    26    27    1
    30    26    28    1
    31    34    28    2
    32    34    32    1
    33    28    29    1
    34    33    32    1
    35    32    31    2
    36    29    30    2
    37    31    30    1
