@<TRIPOS>MOLECULE
67939_out_ligand_01.pdbqt
 35 38 0 0 0
SMALL
GASTEIGER

@<TRIPOS>ATOM
      1  C         19.6080  -22.7540   -9.1390 C.2     1  UNL1        0.0320
      2  C         19.8120  -22.1650  -10.3940 C.2     1  UNL1        0.0190
      3  C         21.0350  -22.3300  -11.0510 C.2     1  UNL1        0.0310
      4  C         22.0540  -23.0700  -10.4490 C.2     1  UNL1        0.0420
      5  C         21.8620  -23.6470   -9.1950 C.2     1  UNL1        0.0310
      6  C         20.6430  -23.4800   -8.5350 C.2     1  UNL1        0.0190
      7  N         23.2760  -23.2840  -11.1410 N.pl3   1  UNL1       -0.2810
      8  H         23.6180  -24.2430  -11.2080 H       1  UNL1        0.1790
      9  S         24.5520  -22.2170  -10.8320 S.O2    1  UNL1        0.2630
     10  O         24.1090  -21.1860   -9.9180 O.2     1  UNL1       -0.2000
     11  O         25.7000  -23.0430  -10.5270 O.2     1  UNL1       -0.2000
     12  C         24.8370  -21.4880  -12.4270 C.2     1  UNL1        0.0820
     13  C         25.6990  -20.3690  -12.5360 C.2     1  UNL1        0.0280
     14  C         25.9480  -19.7810  -13.7810 C.2     1  UNL1        0.0330
     15  C         25.3260  -20.3500  -14.8670 C.ar    1  UNL1        0.0630
     16  N         25.3810  -19.9940  -16.2090 N.ar    1  UNL1       -0.3070
     17  C         24.4870  -21.4600  -14.7530 C.ar    1  UNL1        0.0640
     18  C         24.5810  -20.8800  -16.9460 C.ar    1  UNL1        0.3250
     19  H         25.9030  -19.2390  -16.6240 H       1  UNL1        0.1700
     20  O         24.3990  -20.8670  -18.1500 O.2     1  UNL1       -0.2470
     21  N         24.0310  -21.7840  -16.0260 N.ar    1  UNL1       -0.3060
     22  H         23.4170  -22.5380  -16.2850 H       1  UNL1        0.1700
     23  C         24.2210  -22.0610  -13.5480 C.2     1  UNL1        0.0570
     24  C         18.3190  -22.6080   -8.4050 C.2     1  UNL1        0.2560
     25  N         18.3760  -22.9420   -7.0650 N.am    1  UNL1       -0.3220
     26  H         19.2940  -23.1350   -6.6910 H       1  UNL1        0.1690
     27  O         17.3520  -22.1810   -9.0230 O.2     1  UNL1       -0.2670
     28  C         17.3120  -22.9490   -6.1290 C.2     1  UNL1        0.0430
     29  C         16.1520  -23.7070   -6.3210 C.2     1  UNL1        0.0720
     30  C         15.1350  -23.6880   -5.3710 C.2     1  UNL1        0.1180
     31  C         15.2430  -22.9260   -4.2180 C.2     1  UNL1        0.0430
     32  F         14.0310  -24.4210   -5.5710 F       1  UNL1       -0.2060
     33  C         16.3910  -22.1700   -4.0080 C.2     1  UNL1        0.0120
     34  C         17.4350  -22.1710   -4.9530 C.2     1  UNL1       -0.0350
     35  C         18.6510  -21.3290   -4.6650 C.3     1  UNL1        0.0500
@<TRIPOS>BOND
     1    20    18    2
     2    18    16   ar
     3    18    21   ar
     4    19    16    1
     5    22    21    1
     6    16    15   ar
     7    21    17   ar
     8    15    17   ar
     9    15    14    1
    10    17    23    1
    11    14    13    2
    12    23    12    2
    13    13    12    1
    14    12     9    1
    15     8     7    1
    16     7     9    1
    17     7     4    1
    18     3     4    2
    19     3     2    1
    20     9    11    2
    21     9    10    2
    22     4     5    1
    23     2     1    2
    24     5     6    2
    25     1     6    1
    26     1    24    1
    27    27    24    2
    28    24    25   am
    29    25    26    1
    30    25    28    1
    31    29    28    2
    32    29    30    1
    33    28    34    1
    34    32    30    1
    35    30    31    2
    36    34    35    1
    37    34    33    2
    38    31    33    1
