@<TRIPOS>MOLECULE
67949_out_ligand_01.pdbqt
 34 37 0 0 0
SMALL
GASTEIGER

@<TRIPOS>ATOM
      1  C         25.6400  -21.8880  -13.3920 C.2     1  UNL1        0.1090
      2  N         26.7850  -22.4670  -13.8340 N.2     1  UNL1       -0.2530
      3  C         26.8000  -23.0050  -15.0720 C.2     1  UNL1        0.1180
      4  C         25.7120  -22.9870  -15.9220 C.2     1  UNL1        0.0200
      5  C         24.5410  -22.3930  -15.4640 C.2     1  UNL1        0.0210
      6  C         24.4860  -21.8440  -14.1740 C.2     1  UNL1        0.0670
      7  S         25.8080  -21.1540  -11.7780 S.3     1  UNL1       -0.1000
      8  C         25.2340  -22.5520  -10.7680 C.3     1  UNL1        0.1840
      9  C         23.9610  -22.2100  -10.0060 C.2     1  UNL1        0.2310
     10  O         23.6440  -21.0430   -9.8000 O.2     1  UNL1       -0.2720
     11  N         23.2690  -23.3350   -9.5790 N.am    1  UNL1       -0.3260
     12  H         23.6320  -24.2330   -9.8720 H       1  UNL1        0.1690
     13  C         22.0460  -23.3780   -8.8760 C.2     1  UNL1        0.0370
     14  C         21.2810  -24.5610   -9.0090 C.2     1  UNL1        0.0320
     15  C         20.0500  -24.7060   -8.3610 C.2     1  UNL1        0.0420
     16  C         19.6100  -23.6560   -7.5890 C.2     1  UNL1        0.1050
     17  C         20.3470  -22.5050   -7.4510 C.2     1  UNL1        0.1070
     18  O         18.4450  -23.6170   -6.8890 O.2     1  UNL1       -0.3230
     19  C         21.5660  -22.3340   -8.0790 C.2     1  UNL1        0.0690
     20  O         19.7350  -21.5930   -6.6470 O.2     1  UNL1       -0.3230
     21  C         18.5280  -22.3010   -6.3000 C.3     1  UNL1        0.3520
     22  C         23.2060  -21.2200  -13.7700 C.2     1  UNL1        0.2540
     23  O         22.7840  -20.2580  -14.4040 O.2     1  UNL1       -0.2680
     24  N         22.5230  -21.7980  -12.7280 N.am    1  UNL1       -0.3560
     25  H         22.8780  -22.6490  -12.3030 H       1  UNL1        0.1620
     26  C         21.1920  -21.3640  -12.3430 C.3     1  UNL1        0.1270
     27  C         20.3990  -22.4530  -11.6100 C.3     1  UNL1        0.0580
     28  C         19.0090  -22.0050  -11.2220 C.2     1  UNL1       -0.0540
     29  C         18.5340  -20.7420  -11.6120 C.2     1  UNL1        0.0070
     30  C         17.2420  -20.3320  -11.2740 C.2     1  UNL1        0.0030
     31  C         16.4110  -21.1810  -10.5460 C.2     1  UNL1        0.0420
     32  C         16.8800  -22.4320  -10.1610 C.2     1  UNL1        0.1160
     33  F         16.0810  -23.2480   -9.4610 F       1  UNL1       -0.2060
     34  C         18.1650  -22.8510  -10.4930 C.2     1  UNL1        0.0490
@<TRIPOS>BOND
     1     4     5    2
     2     4     3    1
     3     5     6    1
     4     3     2    2
     5    23    22    2
     6     6    22    1
     7     6     1    2
     8     2     1    1
     9    22    24   am
    10     1     7    1
    11    24    26    1
    12    24    25    1
    13    26    27    1
    14     7     8    1
    15    29    30    1
    16    29    28    2
    17    27    28    1
    18    30    31    2
    19    28    34    1
    20     8     9    1
    21    31    32    1
    22    34    32    2
    23    32    33    1
    24     9    10    2
    25     9    11   am
    26    12    11    1
    27    11    13    1
    28    14    13    2
    29    14    15    1
    30    13    19    1
    31    15    16    2
    32    19    17    2
    33    16    17    1
    34    16    18    1
    35    17    20    1
    36    18    21    1
    37    20    21    1
