@<TRIPOS>MOLECULE
67942_out_ligand_01.pdbqt
 37 41 0 0 0
SMALL
GASTEIGER

@<TRIPOS>ATOM
      1  C         19.9520  -21.9840   -6.7910 C.2     1  UNL1        0.0330
      2  C         20.4270  -20.8150   -6.1810 C.2     1  UNL1        0.0170
      3  C         19.7590  -20.2790   -5.0760 C.2     1  UNL1        0.0030
      4  C         18.6250  -20.9150   -4.5700 C.2     1  UNL1        0.0250
      5  C         18.1670  -22.0920   -5.1720 C.2     1  UNL1        0.0800
      6  C         18.8170  -22.6270   -6.2860 C.2     1  UNL1        0.0420
      7  S         16.7430  -22.9330   -4.5220 S.O2    1  UNL1        0.2630
      8  O         16.3440  -22.2240   -3.3250 O.2     1  UNL1       -0.2000
      9  O         17.0290  -24.3500   -4.4970 O.2     1  UNL1       -0.2000
     10  N         15.5550  -22.6240   -5.6810 N.pl3   1  UNL1       -0.2810
     11  H         15.1070  -21.7210   -5.5330 H       1  UNL1        0.1790
     12  C         15.7190  -23.0810   -7.0180 C.2     1  UNL1        0.0440
     13  C         15.2470  -24.3540   -7.3440 C.2     1  UNL1        0.0300
     14  C         15.3830  -24.8400   -8.6440 C.2     1  UNL1        0.0050
     15  C         15.9950  -24.0580   -9.6260 C.2     1  UNL1        0.0310
     16  C         16.4780  -22.7830   -9.3040 C.2     1  UNL1        0.0570
     17  C         16.3410  -22.2970   -7.9920 C.2     1  UNL1        0.0610
     18  N         17.1080  -21.9780  -10.2830 N.pl3   1  UNL1       -0.2340
     19  C         18.2920  -22.1740  -10.9460 C.2     1  UNL1        0.2490
     20  N         18.4960  -21.1810  -11.7790 N.2     1  UNL1       -0.1560
     21  N         17.4190  -20.3490  -11.6340 N.2     1  UNL1        0.0170
     22  N         16.5700  -20.8210  -10.7320 N.2     1  UNL1        0.0020
     23  C         20.6570  -22.6060   -7.9420 C.2     1  UNL1        0.2560
     24  O         20.4360  -23.7880   -8.1740 O.2     1  UNL1       -0.2670
     25  N         21.4670  -21.7460   -8.6580 N.am    1  UNL1       -0.3230
     26  H         21.4070  -20.7620   -8.4300 H       1  UNL1        0.1690
     27  C         22.2880  -22.0700   -9.7600 C.2     1  UNL1        0.0370
     28  C         23.4690  -22.7750   -9.4900 C.2     1  UNL1        0.0320
     29  C         24.3300  -23.1450  -10.5260 C.2     1  UNL1        0.0420
     30  C         24.0290  -22.7960  -11.8400 C.2     1  UNL1        0.1020
     31  C         22.8490  -22.1070  -12.1190 C.2     1  UNL1        0.1040
     32  O         24.8840  -23.2460  -12.8060 O.2     1  UNL1       -0.3480
     33  C         21.9760  -21.7560  -11.0840 C.2     1  UNL1        0.0690
     34  O         22.4280  -21.8380  -13.3940 O.2     1  UNL1       -0.3480
     35  C         23.3170  -20.9580  -14.0800 C.3     1  UNL1        0.1780
     36  C         24.5130  -21.6960  -14.6630 C.3     1  UNL1        0.0530
     37  C         25.4490  -22.1780  -13.5650 C.3     1  UNL1        0.1780
@<TRIPOS>BOND
     1    36    35    1
     2    36    37    1
     3    35    34    1
     4    37    32    1
     5    34    31    1
     6    32    30    1
     7    31    30    2
     8    31    33    1
     9    30    29    1
    10    20    21    1
    11    20    19    2
    12    21    22    2
    13    33    27    2
    14    19    18    1
    15    22    18    1
    16    29    28    2
    17    18    16    1
    18    27    28    1
    19    27    25    1
    20    15    16    2
    21    15    14    1
    22    16    17    1
    23    25    26    1
    24    25    23   am
    25    14    13    2
    26    24    23    2
    27    17    12    2
    28    23     1    1
    29    13    12    1
    30    12    10    1
    31     1     6    2
    32     1     2    1
    33     6     5    1
    34     2     3    2
    35    10    11    1
    36    10     7    1
    37     5     4    2
    38     5     7    1
    39     3     4    1
    40     7     9    2
    41     7     8    2
