@<TRIPOS>MOLECULE
67946_out_ligand_01.pdbqt
 31 33 0 0 0
SMALL
GASTEIGER

@<TRIPOS>ATOM
      1  C         21.4720  -22.2600   -7.7370 C.2     1  UNL1        0.2510
      2  O         21.6300  -21.2830   -7.0110 O.2     1  UNL1       -0.2700
      3  N         20.3740  -23.1100   -7.7300 N.am    1  UNL1       -0.3250
      4  H         20.3780  -23.8240   -8.4510 H       1  UNL1        0.1690
      5  C         22.5450  -22.7130   -8.7460 C.3     1  UNL1        0.2200
      6  C         23.2980  -21.5190   -9.3180 C.3     1  UNL1        0.0500
      7  O         21.8850  -23.4290   -9.8040 O.3     1  UNL1       -0.3030
      8  C         21.9860  -22.8880  -11.0490 C.2     1  UNL1        0.2960
      9  O         22.8850  -23.1510  -11.8380 O.2     1  UNL1       -0.2590
     10  C         20.8790  -21.9920  -11.3630 C.2     1  UNL1        0.0670
     11  C         21.0190  -20.8380  -12.1170 C.2     1  UNL1        0.1070
     12  N         19.7950  -20.2430  -12.2430 N.pl3   1  UNL1       -0.3640
     13  C         18.8400  -20.9830  -11.5860 C.2     1  UNL1        0.0430
     14  H         19.6120  -19.3860  -12.7460 H       1  UNL1        0.1650
     15  C         17.4650  -20.7530  -11.4570 C.2     1  UNL1        0.0300
     16  C         19.4860  -22.0830  -11.0130 C.2     1  UNL1        0.0080
     17  C         16.7180  -21.6720  -10.7180 C.2     1  UNL1        0.0020
     18  C         17.3250  -22.7750  -10.1260 C.2     1  UNL1        0.0010
     19  C         18.7020  -22.9900  -10.2640 C.2     1  UNL1        0.0150
     20  C         19.2220  -23.0370   -6.9250 C.2     1  UNL1        0.0340
     21  C         18.8760  -21.9220   -6.1580 C.2     1  UNL1        0.0310
     22  C         17.7110  -21.9280   -5.3820 C.2     1  UNL1        0.0270
     23  C         16.8860  -23.0530   -5.3790 C.2     1  UNL1        0.0740
     24  C         17.2250  -24.1790   -6.1290 C.2     1  UNL1        0.0270
     25  C         18.3900  -24.1660   -6.9000 C.2     1  UNL1        0.0310
     26  S         15.4310  -23.0670   -4.3750 S.O2    1  UNL1        0.2390
     27  O         15.6880  -22.3380   -3.1550 O.2     1  UNL1       -0.2060
     28  O         14.8620  -24.3950   -4.3790 O.2     1  UNL1       -0.2060
     29  N         14.3790  -22.1160   -5.2730 N.3     1  UNL1       -0.2250
     30  H         14.8450  -21.2530   -5.5500 H       1  UNL1        0.1360
     31  H         14.0110  -22.6560   -6.0570 H       1  UNL1        0.1360
@<TRIPOS>BOND
     1    14    12    1
     2    12    11    1
     3    12    13    1
     4    11    10    2
     5     9     8    2
     6    13    15    2
     7    13    16    1
     8    15    17    1
     9    10     8    1
    10    10    16    1
    11     8     7    1
    12    16    19    2
    13    17    18    2
    14    19    18    1
    15     7     5    1
    16     6     5    1
    17     5     1    1
    18     4     3    1
    19     1     3   am
    20     1     2    2
    21     3    20    1
    22    20    25    2
    23    20    21    1
    24    25    24    1
    25    21    22    2
    26    24    23    2
    27    31    29    1
    28    30    29    1
    29    22    23    1
    30    23    26    1
    31    29    26    1
    32    28    26    2
    33    26    27    2
