@<TRIPOS>MOLECULE
67947_out_ligand_01.pdbqt
 34 37 0 0 0
SMALL
GASTEIGER

@<TRIPOS>ATOM
      1  C         18.7990  -22.2410  -10.3960 C.2     1  UNL1        0.0810
      2  C         20.0840  -22.7790  -10.2220 C.2     1  UNL1        0.0420
      3  C         21.1490  -22.3170  -11.0000 C.2     1  UNL1        0.0330
      4  C         20.9370  -21.3070  -11.9410 C.2     1  UNL1        0.0170
      5  C         19.6590  -20.7650  -12.1060 C.2     1  UNL1        0.0090
      6  C         18.5720  -21.2150  -11.3360 C.2     1  UNL1       -0.0390
      7  C         17.2200  -20.6020  -11.5810 C.3     1  UNL1        0.0500
      8  C         22.4910  -22.9140  -10.7890 C.2     1  UNL1        0.2520
      9  O         22.7150  -23.6000   -9.8000 O.2     1  UNL1       -0.2680
     10  N         23.4170  -22.6740  -11.7710 N.am    1  UNL1       -0.3500
     11  H         23.1500  -22.2430  -12.6490 H       1  UNL1        0.1630
     12  C         24.7240  -23.2840  -11.7260 C.3     1  UNL1        0.2030
     13  C         25.1730  -23.5770  -13.1140 C.ar    1  UNL1        0.1480
     14  N         25.2670  -24.7710  -13.6670 N.ar    1  UNL1       -0.1330
     15  N         25.7760  -24.6170  -14.9270 N.ar    1  UNL1       -0.1350
     16  C         25.9840  -23.3330  -15.1410 C.ar    1  UNL1        0.1300
     17  N         25.5810  -22.6380  -14.0280 N.ar    1  UNL1       -0.3190
     18  C         26.5420  -22.7740  -16.4050 C.3     1  UNL1        0.0800
     19  C         25.6390  -21.2100  -13.8430 C.3     1  UNL1        0.1320
     20  C         24.7760  -20.4260  -14.8290 C.3     1  UNL1        0.0200
     21  C         25.0210  -20.7140  -16.3150 C.3     1  UNL1        0.0020
     22  C         26.4090  -21.2660  -16.6300 C.3     1  UNL1        0.0080
     23  S         17.4760  -22.9440   -9.4230 S.O2    1  UNL1        0.2460
     24  O         16.8160  -23.9520  -10.2270 O.2     1  UNL1       -0.2060
     25  O         16.7310  -21.8600   -8.8230 O.2     1  UNL1       -0.2060
     26  N         18.3570  -23.7890   -8.2410 N.pl3   1  UNL1       -0.1810
     27  H         17.9090  -24.7010   -8.1270 H       1  UNL1        0.1460
     28  C         18.4720  -23.1500   -6.9590 C.2     1  UNL1        0.0220
     29  C         17.6570  -23.6310   -5.9350 C.2     1  UNL1        0.0250
     30  C         17.6370  -22.9930   -4.6940 C.2     1  UNL1        0.0080
     31  C         18.4150  -21.8510   -4.4720 C.2     1  UNL1       -0.0620
     32  C         18.3750  -21.1370   -3.1530 C.3     1  UNL1        0.0480
     33  C         19.1900  -21.3440   -5.5220 C.2     1  UNL1        0.0080
     34  C         19.2120  -21.9850   -6.7630 C.2     1  UNL1        0.0250
@<TRIPOS>BOND
     1    22    18    1
     2    22    21    1
     3    18    16    1
     4    21    20    1
     5    16    15   ar
     6    16    17   ar
     7    15    14   ar
     8    20    19    1
     9    17    19    1
    10    17    13   ar
    11    14    13   ar
    12    13    12    1
    13    11    10    1
    14     5     4    2
    15     5     6    1
    16     4     3    1
    17    10    12    1
    18    10     8   am
    19     7     6    1
    20     6     1    2
    21     3     8    1
    22     3     2    2
    23     8     9    2
    24     1     2    1
    25     1    23    1
    26    24    23    2
    27    23    25    2
    28    23    26    1
    29    26    27    1
    30    26    28    1
    31    28    34    2
    32    28    29    1
    33    34    33    1
    34    29    30    2
    35    33    31    2
    36    30    31    1
    37    31    32    1
