@<TRIPOS>MOLECULE
67955_out_ligand_01.pdbqt
 36 40 0 0 0
SMALL
GASTEIGER

@<TRIPOS>ATOM
      1  C         24.1280  -21.7500  -10.8980 C.2     1  UNL1        0.0790
      2  C         23.2580  -22.0810  -11.9420 C.2     1  UNL1        0.0260
      3  C         21.9630  -22.5080  -11.6450 C.2     1  UNL1        0.0180
      4  C         21.5410  -22.5810  -10.3120 C.2     1  UNL1        0.0320
      5  C         22.4230  -22.2670   -9.2700 C.2     1  UNL1        0.0180
      6  C         23.7170  -21.8340   -9.5620 C.2     1  UNL1        0.0260
      7  C         20.1850  -23.0930  -10.0210 C.2     1  UNL1        0.2540
      8  O         20.0940  -24.2370   -9.5840 O.2     1  UNL1       -0.2670
      9  N         19.1020  -22.2670  -10.2570 N.am    1  UNL1       -0.3390
     10  C         19.0870  -21.0840  -11.1100 C.3     1  UNL1        0.1270
     11  C         17.7450  -22.7340   -9.9690 C.3     1  UNL1        0.1200
     12  C         17.6420  -20.6030  -11.0860 C.3     1  UNL1        0.0220
     13  C         16.8550  -21.8930  -10.8950 C.3     1  UNL1        0.0320
     14  C         17.3610  -22.5880   -8.5040 C.2     1  UNL1       -0.0330
     15  C         16.0370  -22.8510   -8.1160 C.2     1  UNL1        0.0120
     16  C         15.6480  -22.7550   -6.7770 C.2     1  UNL1        0.0400
     17  C         16.5790  -22.3900   -5.8070 C.2     1  UNL1        0.1020
     18  C         17.8880  -22.0770   -6.1830 C.2     1  UNL1        0.1020
     19  O         16.1410  -22.3600   -4.5070 O.2     1  UNL1       -0.3460
     20  C         18.2780  -22.1850   -7.5180 C.2     1  UNL1        0.0490
     21  O         18.8500  -21.6730   -5.2890 O.2     1  UNL1       -0.3460
     22  C         18.2670  -21.2860   -4.0390 C.3     1  UNL1        0.2020
     23  C         17.2400  -22.3110   -3.5900 C.3     1  UNL1        0.2020
     24  S         25.7890  -21.2320  -11.2550 S.O2    1  UNL1        0.2630
     25  O         26.0270  -19.9480  -10.6300 O.2     1  UNL1       -0.2000
     26  O         26.6440  -22.3720  -10.9860 O.2     1  UNL1       -0.2000
     27  N         25.7640  -21.0500  -12.9380 N.pl3   1  UNL1       -0.2800
     28  H         25.1470  -20.2860  -13.2110 H       1  UNL1        0.1790
     29  C         25.7440  -22.2280  -13.7440 C.2     1  UNL1        0.0490
     30  C         26.4400  -23.3540  -13.2930 C.2     1  UNL1        0.0310
     31  C         26.4210  -24.5300  -14.0370 C.2     1  UNL1        0.0030
     32  C         25.7270  -24.5760  -15.2440 C.2     1  UNL1        0.0070
     33  C         25.0350  -23.4510  -15.7240 C.2     1  UNL1       -0.0540
     34  C         24.3120  -23.5680  -17.0400 C.3     1  UNL1        0.0490
     35  C         25.0040  -22.2700  -14.9460 C.2     1  UNL1       -0.0290
     36  C         24.2300  -21.0600  -15.4050 C.3     1  UNL1        0.0510
@<TRIPOS>BOND
     1    34    33    1
     2    33    32    2
     3    33    35    1
     4    36    35    1
     5    32    31    1
     6    35    29    2
     7    31    30    2
     8    29    30    1
     9    29    27    1
    10    28    27    1
    11    27    24    1
    12     2     3    1
    13     2     1    2
    14     3     4    2
    15    24    26    2
    16    24     1    1
    17    24    25    2
    18    10    12    1
    19    10     9    1
    20    12    13    1
    21     1     6    1
    22    13    11    1
    23     4     7    1
    24     4     5    1
    25     9     7   am
    26     9    11    1
    27     7     8    2
    28    11    14    1
    29     6     5    2
    30    14    15    2
    31    14    20    1
    32    15    16    1
    33    20    18    2
    34    16    17    2
    35    18    17    1
    36    18    21    1
    37    17    19    1
    38    21    22    1
    39    19    23    1
    40    22    23    1
