@<TRIPOS>MOLECULE
67954_out_ligand_01.pdbqt
 35 38 0 0 0
SMALL
GASTEIGER

@<TRIPOS>ATOM
      1  C         20.4970  -22.0710   -7.1580 C.2     1  UNL1        0.0330
      2  C         20.4130  -21.0270   -6.2250 C.2     1  UNL1        0.0170
      3  C         19.2240  -20.7890   -5.5320 C.2     1  UNL1        0.0030
      4  C         18.1020  -21.5780   -5.7800 C.2     1  UNL1        0.0250
      5  C         18.1770  -22.5940   -6.7370 C.2     1  UNL1        0.0750
      6  C         19.3720  -22.8590   -7.4180 C.2     1  UNL1        0.0410
      7  C         21.7840  -22.2770   -7.8770 C.2     1  UNL1        0.2510
      8  O         22.6920  -21.4650   -7.7440 O.2     1  UNL1       -0.2680
      9  N         21.8750  -23.4140   -8.6470 N.am    1  UNL1       -0.3530
     10  H         21.1560  -24.1220   -8.5960 H       1  UNL1        0.1630
     11  C         23.0850  -23.7640   -9.3560 C.3     1  UNL1        0.1610
     12  C         23.1740  -22.9980  -10.6490 C.2     1  UNL1       -0.0410
     13  C         22.0360  -22.4130  -11.2200 C.2     1  UNL1        0.0090
     14  C         22.1240  -21.7210  -12.4300 C.2     1  UNL1        0.0090
     15  C         23.3530  -21.6050  -13.0960 C.2     1  UNL1       -0.0300
     16  C         24.4880  -22.2010  -12.5300 C.2     1  UNL1        0.0090
     17  C         24.3990  -22.8940  -11.3200 C.2     1  UNL1        0.0090
     18  C         23.4540  -20.8580  -14.4080 C.3     1  UNL1        0.3110
     19  N         24.8280  -20.7710  -14.9110 N.3     1  UNL1        0.0920
     20  C         25.4720  -19.4900  -14.6130 C.3     1  UNL1        0.2730
     21  C         26.6790  -19.4920  -15.5390 C.3     1  UNL1        0.0320
     22  C         26.2900  -20.4030  -16.6990 C.3     1  UNL1        0.0320
     23  C         24.8870  -20.8910  -16.3680 C.3     1  UNL1        0.2730
     24  S         16.7370  -23.5830   -7.0820 S.O2    1  UNL1        0.2460
     25  O         16.8230  -24.7790   -6.2710 O.2     1  UNL1       -0.2060
     26  O         15.5850  -22.7090   -7.0130 O.2     1  UNL1       -0.2060
     27  N         16.9330  -23.9960   -8.7110 N.pl3   1  UNL1       -0.1780
     28  H         16.2140  -24.6620   -9.0010 H       1  UNL1        0.1460
     29  C         17.1960  -22.9430   -9.6420 C.2     1  UNL1        0.0610
     30  C         16.2830  -21.9070   -9.8270 C.2     1  UNL1        0.0270
     31  C         16.5330  -20.9250  -10.7900 C.2     1  UNL1        0.0020
     32  C         17.6930  -20.9820  -11.5690 C.2     1  UNL1        0.0030
     33  C         18.6070  -22.0190  -11.3860 C.2     1  UNL1        0.0440
     34  C         18.3530  -22.9900  -10.4240 C.2     1  UNL1        0.1380
     35  F         19.2270  -23.9950  -10.2560 F       1  UNL1       -0.2040
@<TRIPOS>BOND
     1    22    23    1
     2    22    21    1
     3    23    19    1
     4    21    20    1
     5    19    20    1
     6    19    18    1
     7    18    15    1
     8    15    16    2
     9    15    14    1
    10    16    17    1
    11    14    13    2
    12    32    33    2
    13    32    31    1
    14    33    34    1
    15    17    12    2
    16    13    12    1
    17    31    30    2
    18    12    11    1
    19    34    35    1
    20    34    29    2
    21    30    29    1
    22    29    27    1
    23    11     9    1
    24    28    27    1
    25    27    24    1
    26     9    10    1
    27     9     7   am
    28     7     8    2
    29     7     1    1
    30     6     1    2
    31     6     5    1
    32     1     2    1
    33    24    26    2
    34    24     5    1
    35    24    25    2
    36     5     4    2
    37     2     3    2
    38     4     3    1
