@<TRIPOS>MOLECULE
67956_out_ligand_01.pdbqt
 32 35 0 0 0
SMALL
GASTEIGER

@<TRIPOS>ATOM
      1  C         20.2650  -22.3000  -10.3110 C.2     1  UNL1        0.0330
      2  C         19.8400  -21.4890  -11.3730 C.2     1  UNL1        0.0170
      3  C         18.4770  -21.2560  -11.5770 C.2     1  UNL1        0.0030
      4  C         17.5350  -21.8190  -10.7160 C.2     1  UNL1        0.0250
      5  C         17.9640  -22.6090   -9.6440 C.2     1  UNL1        0.0750
      6  C         19.3240  -22.8650   -9.4440 C.2     1  UNL1        0.0410
      7  C         21.7070  -22.5520  -10.0490 C.2     1  UNL1        0.2520
      8  O         22.0710  -23.6560   -9.6620 O.2     1  UNL1       -0.2680
      9  N         22.5590  -21.4990  -10.2870 N.am    1  UNL1       -0.3510
     10  H         22.2350  -20.7410  -10.8750 H       1  UNL1        0.1630
     11  C         23.9920  -21.6950  -10.3140 C.3     1  UNL1        0.1830
     12  C         24.3520  -22.2020  -11.6680 C.2     1  UNL1        0.0700
     13  C         25.0490  -23.3430  -12.0120 C.2     1  UNL1        0.1270
     14  N         25.0670  -23.3690  -13.3830 N.pl3   1  UNL1       -0.3160
     15  C         25.6350  -24.3040  -14.2450 C.2     1  UNL1        0.0980
     16  C         24.3820  -22.2380  -13.8160 C.2     1  UNL1        0.1340
     17  C         25.5270  -24.1210  -15.5710 C.2     1  UNL1        0.0180
     18  C         24.8200  -22.9490  -16.0650 C.2     1  UNL1        0.0050
     19  C         24.2720  -22.0480  -15.2230 C.2     1  UNL1        0.0510
     20  N         23.9390  -21.5250  -12.8020 N.2     1  UNL1       -0.2320
     21  S         16.7630  -23.3410   -8.5610 S.O2    1  UNL1        0.2460
     22  O         17.4140  -24.3630   -7.7710 O.2     1  UNL1       -0.2060
     23  O         15.5970  -23.6450   -9.3650 O.2     1  UNL1       -0.2060
     24  N         16.3220  -22.0300   -7.5770 N.pl3   1  UNL1       -0.1780
     25  H         15.4540  -21.6330   -7.9470 H       1  UNL1        0.1460
     26  C         16.3150  -22.2700   -6.1660 C.2     1  UNL1        0.0610
     27  C         15.1260  -22.5820   -5.5100 C.2     1  UNL1        0.0270
     28  C         15.1220  -22.7380   -4.1200 C.2     1  UNL1        0.0020
     29  C         16.3020  -22.5780   -3.3890 C.2     1  UNL1        0.0030
     30  C         17.4920  -22.2620   -4.0450 C.2     1  UNL1        0.0440
     31  C         17.4890  -22.1050   -5.4270 C.2     1  UNL1        0.1380
     32  F         18.6360  -21.8030   -6.0560 F       1  UNL1       -0.2040
@<TRIPOS>BOND
     1    18    17    1
     2    18    19    2
     3    17    15    2
     4    19    16    1
     5    15    14    1
     6    16    14    1
     7    16    20    2
     8    14    13    1
     9    20    12    1
    10    13    12    2
    11    12    11    1
    12     3     2    1
    13     3     4    2
    14     2     1    2
    15    10     9    1
    16     4     5    1
    17    11     9    1
    18     1     7    1
    19     1     6    1
    20     9     7   am
    21     7     8    2
    22     5     6    2
    23     5    21    1
    24    23    21    2
    25    21    22    2
    26    21    24    1
    27    25    24    1
    28    24    26    1
    29    26    27    2
    30    26    31    1
    31    32    31    1
    32    27    28    1
    33    31    30    2
    34    28    29    2
    35    30    29    1
