@<TRIPOS>MOLECULE
67963_out_ligand_01.pdbqt
 36 39 0 0 0
SMALL
GASTEIGER

@<TRIPOS>ATOM
      1  C         25.2940  -21.0080  -12.7560 C.2     1  UNL1        0.0160
      2  C         25.7240  -19.8200  -13.3680 C.2     1  UNL1        0.0190
      3  C         26.6290  -18.9700  -12.7270 C.2     1  UNL1        0.0010
      4  C         27.1210  -19.2930  -11.4660 C.2     1  UNL1        0.0010
      5  C         26.7160  -20.4740  -10.8480 C.2     1  UNL1        0.0180
      6  C         25.8110  -21.3350  -11.4920 C.2     1  UNL1        0.0480
      7  C         25.4290  -22.5820  -10.7840 C.2     1  UNL1        0.2530
      8  O         26.1540  -23.5670  -10.8080 O.2     1  UNL1       -0.2680
      9  N         24.2160  -22.5200  -10.1320 N.am    1  UNL1       -0.3530
     10  H         23.7830  -21.6140  -10.0110 H       1  UNL1        0.1630
     11  C         23.7670  -23.5880   -9.2680 C.3     1  UNL1        0.1610
     12  C         22.4190  -23.2600   -8.6790 C.2     1  UNL1       -0.0410
     13  C         22.1840  -22.0200   -8.0710 C.2     1  UNL1        0.0090
     14  C         20.9420  -21.7360   -7.5000 C.2     1  UNL1        0.0090
     15  C         19.9070  -22.6820   -7.5240 C.2     1  UNL1       -0.0300
     16  C         20.1480  -23.9250   -8.1260 C.2     1  UNL1        0.0090
     17  C         21.3900  -24.2120   -8.6970 C.2     1  UNL1        0.0090
     18  C         18.5660  -22.3780   -6.8910 C.3     1  UNL1        0.3110
     19  N         18.4910  -22.3860   -5.4330 N.3     1  UNL1        0.0920
     20  C         18.7460  -21.1150   -4.7680 C.3     1  UNL1        0.2730
     21  C         18.4510  -21.4580   -3.3150 C.3     1  UNL1        0.0320
     22  C         17.4250  -22.5880   -3.3740 C.3     1  UNL1        0.0320
     23  C         17.2550  -22.8970   -4.8570 C.3     1  UNL1        0.2730
     24  S         24.1700  -22.0530  -13.6780 S.3     1  UNL1       -0.1200
     25  C         22.6580  -21.0320  -13.5490 C.3     1  UNL1        0.1820
     26  C         21.6430  -21.6510  -12.5950 C.2     1  UNL1        0.2310
     27  N         20.4140  -21.0110  -12.6210 N.am    1  UNL1       -0.3270
     28  H         20.3690  -20.1770  -13.1980 H       1  UNL1        0.1690
     29  O         21.9290  -22.6430  -11.9290 O.2     1  UNL1       -0.2720
     30  C         19.2650  -21.3090  -11.8640 C.2     1  UNL1        0.0340
     31  C         19.1890  -22.5900  -11.3010 C.2     1  UNL1        0.0300
     32  C         18.0770  -22.9720  -10.5450 C.2     1  UNL1        0.0090
     33  C         17.0170  -22.0840  -10.3450 C.2     1  UNL1       -0.0620
     34  C         15.8400  -22.4760   -9.5030 C.3     1  UNL1        0.0480
     35  C         17.1010  -20.8000  -10.8920 C.2     1  UNL1        0.0090
     36  C         18.2150  -20.4180  -11.6500 C.2     1  UNL1        0.0300
@<TRIPOS>BOND
     1    24    25    1
     2    24     1    1
     3    25    26    1
     4     2     1    2
     5     2     3    1
     6    28    27    1
     7     1     6    1
     8     3     4    2
     9    27    26   am
    10    27    30    1
    11    26    29    2
    12    30    36    2
    13    30    31    1
    14    36    35    1
    15     6     5    2
    16     6     7    1
    17     4     5    1
    18    31    32    2
    19    35    33    2
    20     8     7    2
    21     7     9   am
    22    32    33    1
    23    33    34    1
    24     9    10    1
    25     9    11    1
    26    11    12    1
    27    17    12    2
    28    17    16    1
    29    12    13    1
    30    16    15    2
    31    13    14    2
    32    15    14    1
    33    15    18    1
    34    18    19    1
    35    19    23    1
    36    19    20    1
    37    23    22    1
    38    20    21    1
    39    22    21    1
