@<TRIPOS>MOLECULE
67974_out_ligand_01.pdbqt
 36 39 0 0 0
SMALL
GASTEIGER

@<TRIPOS>ATOM
      1  N         22.5200  -22.7090  -10.8430 N.am    1  UNL1       -0.3420
      2  C         23.8680  -22.3670  -10.9580 C.2     1  UNL1        0.2380
      3  O         24.7380  -22.9070  -10.2630 O.2     1  UNL1       -0.2720
      4  C         22.1710  -23.7580   -9.8760 C.3     1  UNL1        0.1640
      5  C         21.2030  -23.3070   -8.8000 C.2     1  UNL1       -0.0400
      6  C         19.9930  -23.9810   -8.5740 C.2     1  UNL1        0.0100
      7  C         19.1020  -23.5410   -7.5920 C.2     1  UNL1        0.0170
      8  C         19.3920  -22.4010   -6.8380 C.2     1  UNL1        0.0320
      9  C         20.5930  -21.7170   -7.0560 C.2     1  UNL1        0.0170
     10  C         21.4860  -22.1640   -8.0360 C.2     1  UNL1        0.0100
     11  C         18.4100  -21.9610   -5.8100 C.2     1  UNL1        0.2510
     12  O         18.6580  -21.0170   -5.0720 O.2     1  UNL1       -0.2680
     13  N         17.2480  -22.7000   -5.7200 N.am    1  UNL1       -0.3480
     14  H         17.2420  -23.6260   -6.1330 H       1  UNL1        0.1630
     15  C         16.2960  -22.4360   -4.6380 C.3     1  UNL1        0.2400
     16  C         14.8320  -22.4540   -5.0630 C.3     1  UNL1        0.4030
     17  F         14.0650  -21.7050   -4.2410 F       1  UNL1       -0.1690
     18  F         14.6940  -21.9530   -6.3140 F       1  UNL1       -0.1690
     19  F         14.3340  -23.7100   -5.0680 F       1  UNL1       -0.1690
     20  C         21.4910  -22.2290  -11.7390 C.3     1  UNL1        0.0870
     21  C         20.8260  -20.8960  -11.5010 C.3     1  UNL1        0.0270
     22  C         20.0230  -22.1530  -11.3930 C.3     1  UNL1        0.0270
     23  C         24.3090  -21.3440  -12.0180 C.3     1  UNL1        0.2360
     24  N         24.4370  -21.8160  -13.3980 N.ar    1  UNL1       -0.2900
     25  C         23.6260  -21.2260  -14.3550 C.ar    1  UNL1        0.3300
     26  O         22.8220  -20.3250  -14.1160 O.2     1  UNL1       -0.2460
     27  N         23.7550  -21.6740  -15.6370 N.ar    1  UNL1       -0.2750
     28  C         24.6550  -22.5960  -16.0970 C.ar    1  UNL1        0.2610
     29  H         23.1860  -21.2160  -16.3310 H       1  UNL1        0.1730
     30  O         24.7650  -22.8530  -17.2900 O.2     1  UNL1       -0.2670
     31  C         25.4740  -23.2610  -15.0730 C.ar    1  UNL1        0.0590
     32  C         26.3660  -24.2710  -15.4570 C.2     1  UNL1        0.0190
     33  C         25.3290  -22.8790  -13.7330 C.ar    1  UNL1        0.0550
     34  C         27.1210  -24.9290  -14.4930 C.2     1  UNL1        0.0010
     35  C         26.9730  -24.5860  -13.1530 C.2     1  UNL1        0.0020
     36  C         26.0810  -23.5740  -12.7740 C.2     1  UNL1        0.0310
@<TRIPOS>BOND
     1    30    28    2
     2    29    27    1
     3    28    27   ar
     4    28    31   ar
     5    27    25   ar
     6    32    31    2
     7    32    34    1
     8    31    33   ar
     9    34    35    2
    10    25    26    2
    11    25    24   ar
    12    33    24   ar
    13    33    36    2
    14    24    23    1
    15    35    36    1
    16    23     2    1
    17    20    21    1
    18    20    22    1
    19    20     1    1
    20    21    22    1
    21     2     1   am
    22     2     3    2
    23     1     4    1
    24     4     5    1
    25     5     6    2
    26     5    10    1
    27     6     7    1
    28    10     9    2
    29     7     8    2
    30     9     8    1
    31     8    11    1
    32    18    16    1
    33    14    13    1
    34    11    13   am
    35    11    12    2
    36    13    15    1
    37    19    16    1
    38    16    15    1
    39    16    17    1
