@<TRIPOS>MOLECULE
67972_out_ligand_01.pdbqt
 34 37 0 0 0
SMALL
GASTEIGER

@<TRIPOS>ATOM
      1  C         18.9960  -23.4160   -9.1850 C.2     1  UNL1        0.0320
      2  C         19.9170  -24.4150   -8.8520 C.2     1  UNL1        0.0180
      3  C         21.2800  -24.1920   -9.0540 C.2     1  UNL1        0.0260
      4  C         21.7040  -22.9670   -9.5850 C.2     1  UNL1        0.0740
      5  C         20.7850  -21.9510   -9.8730 C.2     1  UNL1        0.0260
      6  C         19.4230  -22.1780   -9.6740 C.2     1  UNL1        0.0180
      7  C         17.5600  -23.6750   -8.9700 C.2     1  UNL1        0.2540
      8  O         16.7910  -23.3280   -9.8620 O.2     1  UNL1       -0.2670
      9  N         17.1570  -24.2730   -7.7800 N.am    1  UNL1       -0.3380
     10  C         18.0350  -24.5200   -6.6330 C.3     1  UNL1        0.1650
     11  C         18.2500  -23.3290   -5.7190 C.2     1  UNL1       -0.0400
     12  C         17.9180  -23.4650   -4.3600 C.2     1  UNL1        0.0090
     13  C         18.0590  -22.3950   -3.4760 C.2     1  UNL1        0.0010
     14  C         18.5300  -21.1690   -3.9390 C.2     1  UNL1        0.0000
     15  C         18.8650  -21.0170   -5.2810 C.2     1  UNL1        0.0010
     16  C         18.7260  -22.0900   -6.1660 C.2     1  UNL1        0.0090
     17  C         15.7210  -24.4530   -7.5650 C.3     1  UNL1        0.1910
     18  C         15.2480  -23.4960   -6.5290 C.2     1  UNL1        0.0700
     19  C         15.1320  -22.1220   -6.4950 C.2     1  UNL1        0.0360
     20  C         14.6370  -21.7930   -5.2120 C.2     1  UNL1        0.0270
     21  C         14.4770  -22.9840   -4.5460 C.2     1  UNL1        0.1420
     22  O         14.8440  -24.0260   -5.3370 O.2     1  UNL1       -0.3250
     23  S         23.4400  -22.6870   -9.8630 S.O2    1  UNL1        0.2450
     24  O         24.1710  -23.5690   -8.9780 O.2     1  UNL1       -0.2060
     25  O         23.6690  -21.2590   -9.8560 O.2     1  UNL1       -0.2060
     26  N         23.6790  -23.2840  -11.4290 N.pl3   1  UNL1       -0.1780
     27  H         22.9620  -23.9700  -11.6680 H       1  UNL1        0.1460
     28  C         24.0090  -22.3520  -12.4620 C.2     1  UNL1        0.0610
     29  C         25.3340  -22.0370  -12.7540 C.2     1  UNL1        0.0270
     30  C         25.6210  -21.0780  -13.7290 C.2     1  UNL1        0.0020
     31  C         24.5850  -20.4330  -14.4110 C.2     1  UNL1        0.0030
     32  C         23.2580  -20.7500  -14.1240 C.2     1  UNL1        0.0440
     33  C         22.9780  -21.7040  -13.1530 C.2     1  UNL1        0.1380
     34  F         21.7000  -21.9920  -12.8630 F       1  UNL1       -0.2040
@<TRIPOS>BOND
     1    31    32    2
     2    31    30    1
     3    32    33    1
     4    30    29    2
     5    33    34    1
     6    33    28    2
     7    29    28    1
     8    28    26    1
     9    27    26    1
    10    26    23    1
    11     5     6    1
    12     5     4    2
    13    23    25    2
    14    23     4    1
    15    23    24    2
    16     8     7    2
    17     6     1    2
    18     4     3    1
    19     1     7    1
    20     1     2    1
    21     3     2    2
    22     7     9   am
    23     9    17    1
    24     9    10    1
    25    17    18    1
    26    10    11    1
    27    18    19    2
    28    18    22    1
    29    19    20    1
    30    16    11    2
    31    16    15    1
    32    11    12    1
    33    22    21    1
    34    15    14    2
    35    20    21    2
    36    12    13    2
    37    14    13    1
