@<TRIPOS>MOLECULE
67978_out_ligand_01.pdbqt
 33 36 0 0 0
SMALL
GASTEIGER

@<TRIPOS>ATOM
      1  C         20.2600  -21.9160  -10.5940 C.2     1  UNL1        0.0800
      2  C         20.0130  -21.0170  -11.6370 C.2     1  UNL1        0.0250
      3  C         18.6980  -20.7330  -12.0000 C.2     1  UNL1        0.0030
      4  C         17.6390  -21.3370  -11.3150 C.2     1  UNL1        0.0170
      5  C         17.8880  -22.2100  -10.2450 C.2     1  UNL1        0.0330
      6  C         19.2060  -22.5010   -9.8820 C.2     1  UNL1        0.0420
      7  C         16.7270  -22.8370   -9.5550 C.2     1  UNL1        0.2520
      8  O         15.5840  -22.5130   -9.8570 O.2     1  UNL1       -0.2680
      9  N         17.0260  -23.7530   -8.5720 N.am    1  UNL1       -0.3500
     10  H         17.9630  -23.7740   -8.1880 H       1  UNL1        0.1630
     11  C         15.9990  -24.3020   -7.7120 C.3     1  UNL1        0.2030
     12  C         16.0710  -23.6150   -6.3930 C.ar    1  UNL1        0.1480
     13  N         15.0450  -23.3500   -5.6060 N.ar    1  UNL1       -0.1330
     14  N         15.5110  -22.6920   -4.4980 N.ar    1  UNL1       -0.1350
     15  C         16.8120  -22.5570   -4.6220 C.ar    1  UNL1        0.1300
     16  N         17.2090  -23.1180   -5.8070 N.ar    1  UNL1       -0.3190
     17  C         17.7310  -21.8850   -3.6660 C.3     1  UNL1        0.0800
     18  C         18.5640  -23.1270   -6.3130 C.3     1  UNL1        0.1320
     19  C         19.1280  -21.7240   -6.5340 C.3     1  UNL1        0.0200
     20  C         19.5570  -21.0140   -5.2470 C.3     1  UNL1        0.0020
     21  C         18.4190  -20.6680   -4.2830 C.3     1  UNL1        0.0080
     22  S         21.9390  -22.3110  -10.1530 S.O2    1  UNL1        0.2630
     23  O         22.6320  -21.0600   -9.9190 O.2     1  UNL1       -0.2000
     24  O         21.9030  -23.3480   -9.1460 O.2     1  UNL1       -0.2000
     25  N         22.5730  -22.9370  -11.5900 N.pl3   1  UNL1       -0.2810
     26  H         22.8370  -23.9160  -11.4950 H       1  UNL1        0.1790
     27  C         23.3900  -22.1030  -12.4050 C.2     1  UNL1        0.0420
     28  C         22.8140  -21.4480  -13.4940 C.2     1  UNL1        0.0300
     29  C         23.6100  -20.6750  -14.3420 C.2     1  UNL1        0.0090
     30  C         24.9870  -20.5590  -14.1130 C.2     1  UNL1       -0.0620
     31  C         25.8360  -19.7070  -15.0110 C.3     1  UNL1        0.0480
     32  C         25.5500  -21.2050  -13.0060 C.2     1  UNL1        0.0090
     33  C         24.7550  -21.9790  -12.1580 C.2     1  UNL1        0.0300
@<TRIPOS>BOND
     1    31    30    1
     2    29    30    2
     3    29    28    1
     4    30    32    1
     5    28    27    2
     6    32    33    2
     7    27    33    1
     8    27    25    1
     9     3     2    1
    10     3     4    2
    11     2     1    2
    12    25    26    1
    13    25    22    1
    14     4     5    1
    15     1    22    1
    16     1     6    1
    17     5     6    2
    18     5     7    1
    19    22    23    2
    20    22    24    2
    21     8     7    2
    22     7     9   am
    23     9    10    1
    24     9    11    1
    25    11    12    1
    26    19    18    1
    27    19    20    1
    28    12    16   ar
    29    12    13   ar
    30    18    16    1
    31    16    15   ar
    32    13    14   ar
    33    20    21    1
    34    15    14   ar
    35    15    17    1
    36    21    17    1
