@<TRIPOS>MOLECULE
67988_out_ligand_01.pdbqt
 35 38 0 0 0
SMALL
GASTEIGER

@<TRIPOS>ATOM
      1  S         20.9830  -24.2440   -8.9620 S.3     1  UNL1       -0.1000
      2  C         21.8800  -22.7560   -8.3910 C.3     1  UNL1        0.1840
      3  C         22.6750  -22.1170   -9.5270 C.2     1  UNL1        0.2310
      4  N         22.6350  -22.8600  -10.6990 N.am    1  UNL1       -0.3270
      5  H         22.0950  -23.7180  -10.6510 H       1  UNL1        0.1690
      6  O         23.2180  -21.0250   -9.3880 O.2     1  UNL1       -0.2720
      7  C         23.3090  -22.6110  -11.9090 C.2     1  UNL1        0.0340
      8  C         24.4870  -23.2570  -12.2930 C.2     1  UNL1        0.0310
      9  C         25.0870  -22.9650  -13.5240 C.2     1  UNL1        0.0270
     10  C         24.5130  -22.0120  -14.3660 C.2     1  UNL1        0.0740
     11  C         23.3300  -21.3650  -14.0020 C.2     1  UNL1        0.0270
     12  C         22.7340  -21.6680  -12.7750 C.2     1  UNL1        0.0310
     13  S         25.2730  -21.6460  -15.9240 S.O2    1  UNL1        0.2390
     14  O         25.1400  -22.8010  -16.7820 O.2     1  UNL1       -0.2060
     15  O         26.5450  -21.0030  -15.6740 O.2     1  UNL1       -0.2060
     16  N         24.2540  -20.4440  -16.5180 N.3     1  UNL1       -0.2250
     17  H         24.2720  -20.4670  -17.5410 H       1  UNL1        0.1360
     18  H         24.4600  -19.5160  -16.1490 H       1  UNL1        0.1360
     19  C         19.3140  -23.5900   -8.8810 C.3     1  UNL1        0.1080
     20  N         18.6100  -24.0260   -7.8220 N.2     1  UNL1       -0.2240
     21  C         17.3450  -23.5910   -7.7140 C.2     1  UNL1        0.1560
     22  N         16.7490  -22.7660   -8.5960 N.pl3   1  UNL1       -0.2310
     23  C         17.4680  -22.3440   -9.6430 C.2     1  UNL1        0.0720
     24  C         16.8580  -21.5020  -10.5650 C.2     1  UNL1        0.0320
     25  C         18.8000  -22.7190   -9.8540 C.2     1  UNL1        0.0280
     26  C         17.5310  -21.0230  -11.6930 C.2     1  UNL1        0.0020
     27  C         18.8540  -21.3830  -11.9080 C.2     1  UNL1        0.0010
     28  C         19.4890  -22.2230  -10.9950 C.2     1  UNL1        0.0170
     29  C         16.5300  -24.0620   -6.5160 C.3     1  UNL1        0.3520
     30  N         16.4340  -23.0830   -5.4070 N.3     1  UNL1        0.0990
     31  C         16.3330  -23.7310   -4.0800 C.3     1  UNL1        0.2990
     32  C         17.6900  -23.8630   -3.3650 C.3     1  UNL1        0.1980
     33  O         18.3500  -22.6100   -3.1530 O.3     1  UNL1       -0.3880
     34  C         17.9210  -21.5880   -4.0620 C.3     1  UNL1        0.1980
     35  C         17.5890  -22.1590   -5.4480 C.3     1  UNL1        0.2990
@<TRIPOS>BOND
     1    17    16    1
     2    14    13    2
     3    16    18    1
     4    16    13    1
     5    13    15    2
     6    13    10    1
     7    10    11    2
     8    10     9    1
     9    11    12    1
    10     9     8    2
    11    12     7    2
    12     8     7    1
    13     7     4    1
    14    27    26    2
    15    27    28    1
    16    26    24    1
    17    28    25    2
    18     4     5    1
    19     4     3   am
    20    24    23    2
    21    25    23    1
    22    25    19    1
    23    23    22    1
    24     3     6    2
    25     3     2    1
    26     1    19    1
    27     1     2    1
    28    19    20    1
    29    22    21    1
    30    20    21    2
    31    21    29    1
    32    29    30    1
    33    35    30    1
    34    35    34    1
    35    30    31    1
    36    31    32    1
    37    34    33    1
    38    32    33    1
