@<TRIPOS>MOLECULE
67991_out_ligand_01.pdbqt
 37 41 0 0 0
SMALL
GASTEIGER

@<TRIPOS>ATOM
      1  N         20.8630  -22.0050  -10.7360 N.am    1  UNL1       -0.3230
      2  C         22.0960  -22.5250  -11.0740 C.2     1  UNL1        0.2610
      3  O         22.7130  -23.3850  -10.4580 O.2     1  UNL1       -0.2670
      4  H         20.5240  -21.2370  -11.3030 H       1  UNL1        0.1690
      5  C         22.6970  -21.8970  -12.2420 C.2     1  UNL1        0.0970
      6  C         21.9720  -21.1880  -13.2200 C.2     1  UNL1        0.1600
      7  N         22.7200  -20.8240  -14.2570 N.2     1  UNL1       -0.1770
      8  N         23.9920  -21.1360  -13.8980 N.pl3   1  UNL1       -0.2130
      9  C         23.9990  -21.8910  -12.7270 C.2     1  UNL1        0.1530
     10  C         25.0630  -20.5230  -14.6040 C.2     1  UNL1        0.0990
     11  C         25.7930  -19.4670  -14.0350 C.2     1  UNL1        0.0350
     12  C         26.8200  -18.8530  -14.7600 C.2     1  UNL1        0.0020
     13  C         27.1170  -19.2770  -16.0540 C.2     1  UNL1        0.0030
     14  C         26.3850  -20.3140  -16.6290 C.2     1  UNL1        0.0450
     15  C         25.3600  -20.9270  -15.9080 C.2     1  UNL1        0.1450
     16  F         24.7270  -21.9560  -16.4900 F       1  UNL1       -0.2040
     17  N         25.1210  -22.5240  -12.1930 N.pl3   1  UNL1       -0.3170
     18  C         25.9430  -22.0390  -11.1910 C.2     1  UNL1        0.0980
     19  C         26.9750  -22.9230  -10.9750 C.2     1  UNL1        0.0190
     20  C         26.7990  -23.9930  -11.8720 C.2     1  UNL1        0.0190
     21  C         25.6650  -23.7240  -12.6050 C.2     1  UNL1        0.0980
     22  C         20.0130  -22.4090   -9.6880 C.2     1  UNL1        0.0350
     23  C         18.7080  -22.7720  -10.0280 C.2     1  UNL1        0.0300
     24  C         17.8030  -23.1930   -9.0470 C.2     1  UNL1        0.0120
     25  C         18.1740  -23.2670   -7.6910 C.2     1  UNL1       -0.0210
     26  C         19.4890  -22.9000   -7.3670 C.2     1  UNL1        0.0120
     27  C         20.3960  -22.4770   -8.3510 C.2     1  UNL1        0.0300
     28  C         17.1680  -23.7250   -6.6400 C.3     1  UNL1        0.1390
     29  C         16.2360  -24.8740   -7.0390 C.3     1  UNL1        0.0540
     30  N         17.8440  -24.0720   -5.4020 N.am    1  UNL1       -0.3210
     31  C         17.4400  -23.2980   -4.3450 C.2     1  UNL1        0.3240
     32  H         18.6080  -24.7280   -5.3190 H       1  UNL1        0.1650
     33  O         17.8970  -23.3580   -3.2180 O.2     1  UNL1       -0.2470
     34  N         16.4820  -22.4440   -4.7720 N.am    1  UNL1       -0.2770
     35  C         16.2890  -22.5630   -6.1160 C.2     1  UNL1        0.2580
     36  H         16.0540  -21.7420   -4.1930 H       1  UNL1        0.1730
     37  O         15.5300  -21.8640   -6.7700 O.2     1  UNL1       -0.2700
@<TRIPOS>BOND
     1    14    13    2
     2    14    15    1
     3    16    15    1
     4    13    12    1
     5    15    10    2
     6    12    11    2
     7    10    11    1
     8    10     8    1
     9     7     8    1
    10     7     6    2
    11     8     9    1
    12     6     5    1
    13     9     5    2
    14     9    17    1
    15    21    17    1
    16    21    20    2
    17     5     2    1
    18    17    18    1
    19    20    19    1
    20     4     1    1
    21    18    19    2
    22     2     1   am
    23     2     3    2
    24     1    22    1
    25    23    22    2
    26    23    24    1
    27    22    27    1
    28    24    25    2
    29    27    26    2
    30    25    26    1
    31    25    28    1
    32    29    28    1
    33    37    35    2
    34    28    35    1
    35    28    30    1
    36    35    34   am
    37    30    32    1
    38    30    31   am
    39    34    31   am
    40    34    36    1
    41    31    33    2
