@<TRIPOS>MOLECULE
67_out_ligand_01.pdbqt
 31 35 0 0 0
SMALL
GASTEIGER

@<TRIPOS>ATOM
      1  C         19.5920  -22.1070  -10.2040 C.2     1  UNL1        0.0340
      2  C         19.1810  -21.2410  -11.2170 C.2     1  UNL1        0.0190
      3  C         20.0640  -20.9320  -12.2550 C.2     1  UNL1        0.0350
      4  C         21.3420  -21.4750  -12.3030 C.ar    1  UNL1        0.0860
      5  N         22.1610  -21.1410  -13.3120 N.ar    1  UNL1       -0.2430
      6  C         23.4060  -21.6930  -13.3160 C.ar    1  UNL1        0.0990
      7  C         23.8030  -22.6000  -12.3290 C.ar    1  UNL1        0.0990
      8  N         22.9740  -22.9240  -11.2980 N.ar    1  UNL1       -0.2430
      9  C         21.7510  -22.3680  -11.2850 C.ar    1  UNL1        0.0870
     10  C         20.8700  -22.6750  -10.2570 C.2     1  UNL1        0.0510
     11  C         18.6930  -22.4830   -9.0790 C.2     1  UNL1        0.2560
     12  O         17.5550  -22.8450   -9.3510 O.2     1  UNL1       -0.2670
     13  N         19.2670  -22.4100   -7.8230 N.am    1  UNL1       -0.3230
     14  H         20.2590  -22.2170   -7.7790 H       1  UNL1        0.1690
     15  C         18.6440  -22.6670   -6.5830 C.2     1  UNL1        0.0370
     16  C         17.9590  -23.8490   -6.2820 C.2     1  UNL1        0.0290
     17  C         17.3600  -24.0290   -5.0280 C.2     1  UNL1        0.0050
     18  C         17.4400  -23.0270   -4.0660 C.2     1  UNL1        0.0420
     19  C         18.1170  -21.8540   -4.3670 C.2     1  UNL1        0.1180
     20  F         18.1980  -20.8840   -3.4460 F       1  UNL1       -0.2060
     21  C         18.7160  -21.6650   -5.6100 C.2     1  UNL1        0.0710
     22  C         25.0680  -23.3150  -12.3170 C.2     1  UNL1        0.0190
     23  C         26.1920  -23.2350  -11.4460 C.2     1  UNL1        0.0400
     24  C         27.1210  -24.1300  -11.9230 C.2     1  UNL1        0.1420
     25  O         26.6580  -24.7430  -13.0400 O.2     1  UNL1       -0.3340
     26  C         25.4240  -24.2330  -13.2860 C.2     1  UNL1        0.1550
     27  C         24.2400  -21.2160  -14.4040 C.2     1  UNL1        0.0190
     28  C         24.3520  -21.7080  -15.7350 C.2     1  UNL1        0.0400
     29  C         25.2280  -20.8720  -16.3850 C.2     1  UNL1        0.1420
     30  O         25.6390  -19.8790  -15.5570 O.2     1  UNL1       -0.3340
     31  C         25.0170  -20.0760  -14.3640 C.2     1  UNL1        0.1550
@<TRIPOS>BOND
     1    29    28    2
     2    29    30    1
     3    28    27    1
     4    30    31    1
     5    27    31    2
     6    27     6    1
     7     6     5   ar
     8     6     7   ar
     9     5     4   ar
    10    26    25    1
    11    26    22    2
    12    25    24    1
    13     7    22    1
    14     7     8   ar
    15    22    23    1
    16     4     3    2
    17     4     9   ar
    18     3     2    1
    19    24    23    2
    20     8     9   ar
    21     9    10    2
    22     2     1    2
    23    10     1    1
    24     1    11    1
    25    12    11    2
    26    11    13   am
    27    13    14    1
    28    13    15    1
    29    15    16    2
    30    15    21    1
    31    16    17    1
    32    21    19    2
    33    17    18    2
    34    19    18    1
    35    19    20    1
