@<TRIPOS>MOLECULE
68006_out_ligand_01.pdbqt
 27 29 0 0 0
SMALL
GASTEIGER

@<TRIPOS>ATOM
      1  N         21.4940  -22.3380   -9.5250 N.am    1  UNL1       -0.3230
      2  C         21.1060  -23.4940   -8.8720 C.2     1  UNL1        0.2560
      3  O         21.5610  -24.6190   -9.0240 O.2     1  UNL1       -0.2670
      4  H         20.9340  -21.5130   -9.3620 H       1  UNL1        0.1690
      5  C         19.9890  -23.3160   -7.9040 C.2     1  UNL1        0.0320
      6  C         18.9710  -24.2680   -7.7730 C.2     1  UNL1        0.0180
      7  C         17.9290  -24.0620   -6.8600 C.2     1  UNL1        0.0160
      8  C         17.8860  -22.9010   -6.0700 C.2     1  UNL1        0.0120
      9  C         18.9110  -21.9530   -6.2190 C.2     1  UNL1        0.0160
     10  C         19.9480  -22.1510   -7.1350 C.2     1  UNL1        0.0180
     11  C         16.8190  -22.6500   -5.1040 C.ar    1  UNL1        0.1680
     12  N         15.5410  -22.4350   -5.3600 N.ar    1  UNL1       -0.1420
     13  N         14.9200  -22.2550   -4.1480 N.ar    1  UNL1        0.0180
     14  N         15.7870  -22.3630   -3.1530 N.ar    1  UNL1       -0.0050
     15  N         16.9610  -22.6160   -3.7430 N.ar    1  UNL1       -0.2680
     16  H         17.7800  -22.7620   -3.1710 H       1  UNL1        0.1850
     17  C         22.5320  -22.1950  -10.4700 C.2     1  UNL1        0.0350
     18  C         23.8390  -22.4120  -10.0120 C.2     1  UNL1        0.0290
     19  C         24.9310  -22.2950  -10.8760 C.2     1  UNL1        0.0030
     20  C         24.7260  -21.9660  -12.2140 C.2     1  UNL1        0.0170
     21  C         23.4250  -21.7580  -12.6870 C.2     1  UNL1        0.0340
     22  C         22.3320  -21.8620  -11.8120 C.2     1  UNL1        0.0460
     23  C         23.1690  -21.3990  -14.1070 C.2     1  UNL1        0.2490
     24  N         22.4250  -20.2730  -14.3400 N.am    1  UNL1       -0.3660
     25  H         22.3040  -19.5630  -13.6320 H       1  UNL1        0.1590
     26  H         22.3880  -19.9750  -15.3070 H       1  UNL1        0.1590
     27  O         23.6230  -22.0510  -15.0370 O.2     1  UNL1       -0.2680
@<TRIPOS>BOND
     1    26    24    1
     2    27    23    2
     3    24    23   am
     4    24    25    1
     5    23    21    1
     6    21    20    2
     7    21    22    1
     8    20    19    1
     9    22    17    2
    10    19    18    2
    11    17    18    1
    12    17     1    1
    13     1     4    1
    14     1     2   am
    15     3     2    2
    16     2     5    1
    17     5     6    2
    18     5    10    1
    19     6     7    1
    20    10     9    2
    21     7     8    2
    22     9     8    1
    23     8    11    1
    24    12    11   ar
    25    12    13   ar
    26    11    15   ar
    27    13    14   ar
    28    15    16    1
    29    15    14   ar
