@<TRIPOS>MOLECULE
68019_out_ligand_01.pdbqt
 35 38 0 0 0
SMALL
GASTEIGER

@<TRIPOS>ATOM
      1  C         24.4020  -22.2420  -12.8160 C.2     1  UNL1        0.0860
      2  C         23.1870  -22.0500  -12.1370 C.2     1  UNL1        0.0420
      3  C         23.0440  -22.4640  -10.8110 C.2     1  UNL1        0.0330
      4  C         24.1150  -23.0710  -10.1540 C.2     1  UNL1        0.0170
      5  C         25.3280  -23.2490  -10.8250 C.2     1  UNL1        0.0090
      6  C         25.4960  -22.8390  -12.1620 C.2     1  UNL1       -0.0390
      7  C         26.8360  -23.0720  -12.8040 C.3     1  UNL1        0.0500
      8  C         21.7220  -22.2900  -10.1540 C.2     1  UNL1        0.2560
      9  O         20.8550  -21.6870  -10.7730 O.2     1  UNL1       -0.2670
     10  N         21.6360  -22.8210   -8.8810 N.am    1  UNL1       -0.3230
     11  H         22.4880  -23.1830   -8.4740 H       1  UNL1        0.1690
     12  C         20.5070  -22.8360   -8.0380 C.2     1  UNL1        0.0350
     13  C         20.2200  -21.8510   -7.0970 C.2     1  UNL1        0.0320
     14  C         19.0690  -21.9380   -6.2980 C.2     1  UNL1        0.0320
     15  C         18.1720  -23.0100   -6.4190 C.2     1  UNL1        0.0370
     16  C         18.4700  -23.9900   -7.3670 C.2     1  UNL1        0.0320
     17  C         19.6200  -23.9060   -8.1660 C.2     1  UNL1        0.0320
     18  N         17.0110  -23.0820   -5.5980 N.am    1  UNL1       -0.3180
     19  C         15.7440  -22.5100   -5.9890 C.3     1  UNL1        0.1330
     20  C         14.9360  -22.4800   -4.7090 C.3     1  UNL1        0.0290
     21  C         15.4470  -23.6830   -3.9430 C.3     1  UNL1        0.1050
     22  C         16.8830  -23.7970   -4.3960 C.2     1  UNL1        0.2240
     23  O         17.7140  -24.4600   -3.7930 O.2     1  UNL1       -0.2730
     24  S         24.4350  -21.6740  -14.5150 S.O2    1  UNL1        0.2630
     25  O         23.3820  -20.7090  -14.7400 O.2     1  UNL1       -0.2000
     26  O         24.5380  -22.8580  -15.3440 O.2     1  UNL1       -0.2000
     27  N         25.9300  -20.8930  -14.6220 N.pl3   1  UNL1       -0.2810
     28  H         26.3830  -20.8000  -13.7140 H       1  UNL1        0.1790
     29  C         26.0850  -19.8250  -15.5490 C.2     1  UNL1        0.0430
     30  C         25.8070  -20.0120  -16.9010 C.2     1  UNL1        0.0300
     31  C         25.9330  -18.9460  -17.7910 C.2     1  UNL1        0.0030
     32  C         26.3310  -17.6910  -17.3260 C.2     1  UNL1        0.0070
     33  C         26.6010  -17.4900  -15.9670 C.2     1  UNL1       -0.0600
     34  C         27.0570  -16.1510  -15.4700 C.3     1  UNL1        0.0480
     35  C         26.4870  -18.5720  -15.0820 C.2     1  UNL1        0.0370
@<TRIPOS>BOND
     1    31    32    2
     2    31    30    1
     3    32    33    1
     4    30    29    2
     5    33    34    1
     6    33    35    2
     7    29    35    1
     8    29    27    1
     9    26    24    2
    10    25    24    2
    11    27    24    1
    12    27    28    1
    13    24     1    1
    14     1     6    2
    15     1     2    1
    16     7     6    1
    17     6     5    1
    18     2     3    2
    19     5     4    2
    20     3     4    1
    21     3     8    1
    22     9     8    2
    23     8    10   am
    24    10    11    1
    25    10    12    1
    26    17    12    2
    27    17    16    1
    28    12    13    1
    29    16    15    2
    30    13    14    2
    31    15    14    1
    32    15    18    1
    33    19    18    1
    34    19    20    1
    35    18    22   am
    36    20    21    1
    37    22    21    1
    38    22    23    2
