@<TRIPOS>MOLECULE
68023_out_ligand_01.pdbqt
 38 41 0 0 0
SMALL
GASTEIGER

@<TRIPOS>ATOM
      1  C         23.1280  -22.1110   -9.1370 C.3     1  UNL1        0.1850
      2  C         24.3000  -21.9120  -10.0900 C.2     1  UNL1        0.2270
      3  N         24.8240  -23.0490  -10.6600 N.am    1  UNL1       -0.3520
      4  H         24.4920  -23.9460  -10.3210 H       1  UNL1        0.1630
      5  O         24.7060  -20.7870  -10.3770 O.2     1  UNL1       -0.2730
      6  C         26.0200  -23.0260  -11.4810 C.3     1  UNL1        0.1130
      7  C         26.9390  -24.2130  -11.1700 C.3     1  UNL1        0.0370
      8  C         25.6260  -22.9780  -12.9480 C.2     1  UNL1       -0.0360
      9  C         25.5190  -24.1750  -13.6770 C.2     1  UNL1        0.0110
     10  C         25.1760  -24.1570  -15.0310 C.2     1  UNL1        0.0250
     11  C         24.9370  -22.9350  -15.6630 C.2     1  UNL1        0.0740
     12  C         25.0600  -21.7330  -14.9650 C.2     1  UNL1        0.0250
     13  C         25.4040  -21.7580  -13.6120 C.2     1  UNL1        0.0110
     14  S         24.5030  -22.9240  -17.3810 S.O2    1  UNL1        0.2390
     15  O         23.2150  -23.5570  -17.5290 O.2     1  UNL1       -0.2060
     16  O         25.6590  -23.3180  -18.1530 O.2     1  UNL1       -0.2060
     17  N         24.3140  -21.2750  -17.6720 N.3     1  UNL1       -0.2250
     18  H         25.0740  -20.7740  -17.2080 H       1  UNL1        0.1360
     19  H         23.4000  -20.9210  -17.3950 H       1  UNL1        0.1360
     20  S         22.4690  -23.8060   -9.1200 S.3     1  UNL1       -0.0810
     21  C         20.7320  -23.4430   -9.1530 C.2     1  UNL1        0.1910
     22  N         19.9450  -24.0140   -8.2400 N.2     1  UNL1       -0.2040
     23  C         18.6330  -23.7190   -8.2860 C.3     1  UNL1        0.1430
     24  C         18.0960  -22.8630   -9.2660 C.2     1  UNL1        0.0390
     25  C         16.7230  -22.5280   -9.3970 C.2     1  UNL1        0.0180
     26  C         19.0210  -22.3350  -10.1730 C.2     1  UNL1        0.0730
     27  C         16.2900  -21.6680  -10.4040 C.2     1  UNL1        0.0010
     28  C         17.2160  -21.1380  -11.2910 C.2     1  UNL1        0.0020
     29  C         18.5660  -21.4790  -11.1680 C.2     1  UNL1        0.0320
     30  N         20.3230  -22.6230  -10.1270 N.pl3   1  UNL1       -0.2220
     31  N         17.7640  -24.2640   -7.3020 N.pl3   1  UNL1       -0.3400
     32  H         17.0810  -24.8580   -7.7620 H       1  UNL1        0.1670
     33  C         17.2130  -23.6060   -6.1810 C.2     1  UNL1        0.0330
     34  C         15.9220  -23.9400   -5.7480 C.2     1  UNL1        0.0290
     35  C         15.3670  -23.3460   -4.6100 C.2     1  UNL1        0.0020
     36  C         16.1080  -22.4270   -3.8720 C.2     1  UNL1        0.0000
     37  C         17.4050  -22.1110   -4.2670 C.2     1  UNL1        0.0020
     38  C         17.9540  -22.7060   -5.4050 C.2     1  UNL1        0.0290
@<TRIPOS>BOND
     1    16    14    2
     2    17    19    1
     3    17    14    1
     4    17    18    1
     5    15    14    2
     6    14    11    1
     7    11    10    2
     8    11    12    1
     9    10     9    1
    10    12    13    2
    11     9     8    2
    12    13     8    1
    13     8     6    1
    14     6     7    1
    15     6     3    1
    16    28    29    2
    17    28    27    1
    18    29    26    1
    19     3     4    1
    20     3     2   am
    21    27    25    2
    22     5     2    2
    23    26    30    1
    24    26    24    2
    25    30    21    1
    26     2     1    1
    27    25    24    1
    28    24    23    1
    29    21    20    1
    30    21    22    2
    31     1    20    1
    32    23    22    1
    33    23    31    1
    34    32    31    1
    35    31    33    1
    36    33    34    2
    37    33    38    1
    38    34    35    1
    39    38    37    2
    40    35    36    2
    41    37    36    1
