@<TRIPOS>MOLECULE
68021_out_ligand_01.pdbqt
 32 35 0 0 0
SMALL
GASTEIGER

@<TRIPOS>ATOM
      1  C         21.5950  -22.1620   -7.9180 C.2     1  UNL1        0.0320
      2  C         21.7610  -21.0500   -7.0830 C.2     1  UNL1        0.0170
      3  C         20.7700  -20.7190   -6.1540 C.2     1  UNL1        0.0100
      4  C         19.6040  -21.4920   -6.0510 C.2     1  UNL1       -0.0340
      5  C         19.4320  -22.5860   -6.9100 C.2     1  UNL1        0.0100
      6  C         20.4210  -22.9180   -7.8390 C.2     1  UNL1        0.0170
      7  C         18.5240  -21.1160   -5.0690 C.3     1  UNL1        0.2170
      8  O         17.8960  -22.3040   -4.5770 O.3     1  UNL1       -0.3130
      9  C         16.5580  -22.4040   -4.8160 C.2     1  UNL1        0.2960
     10  O         15.6810  -22.0890   -4.0200 O.2     1  UNL1       -0.2590
     11  C         16.2800  -22.9230   -6.1380 C.2     1  UNL1        0.0750
     12  C         16.0620  -24.2550   -6.5520 C.2     1  UNL1        0.1580
     13  N         15.8400  -24.3630   -7.8650 N.2     1  UNL1       -0.1840
     14  N         15.8860  -23.0850   -8.3000 N.pl3   1  UNL1       -0.2760
     15  C         16.1680  -22.1910   -7.3050 C.2     1  UNL1        0.1310
     16  C         15.6990  -22.7860   -9.7140 C.3     1  UNL1        0.1890
     17  C         16.9750  -22.3100  -10.3610 C.2     1  UNL1       -0.0380
     18  C         18.1170  -23.1250  -10.3660 C.2     1  UNL1        0.0090
     19  C         19.2980  -22.6880  -10.9650 C.2     1  UNL1        0.0010
     20  C         19.3520  -21.4310  -11.5650 C.2     1  UNL1        0.0000
     21  C         18.2250  -20.6100  -11.5640 C.2     1  UNL1        0.0010
     22  C         17.0420  -21.0470  -10.9660 C.2     1  UNL1        0.0090
     23  C         22.6250  -22.5470   -8.9240 C.2     1  UNL1        0.2560
     24  O         23.0960  -23.6760   -8.8700 O.2     1  UNL1       -0.2670
     25  N         22.9730  -21.5430   -9.8110 N.am    1  UNL1       -0.3230
     26  H         22.5930  -20.6230   -9.6320 H       1  UNL1        0.1690
     27  C         23.8760  -21.6290  -10.8910 C.2     1  UNL1        0.0350
     28  C         25.2360  -21.3340  -10.7950 C.2     1  UNL1        0.0290
     29  C         26.0680  -21.4530  -11.9140 C.2     1  UNL1        0.0020
     30  C         25.5470  -21.8690  -13.1360 C.2     1  UNL1        0.0000
     31  C         24.1910  -22.1680  -13.2430 C.2     1  UNL1        0.0020
     32  C         23.3610  -22.0500  -12.1240 C.2     1  UNL1        0.0290
@<TRIPOS>BOND
     1    31    30    2
     2    31    32    1
     3    30    29    1
     4    32    27    2
     5    29    28    2
     6    20    21    2
     7    20    19    1
     8    21    22    1
     9    22    17    2
    10    19    18    2
    11    27    28    1
    12    27    25    1
    13    18    17    1
    14    17    16    1
    15    25    26    1
    16    25    23   am
    17    16    14    1
    18    23    24    2
    19    23     1    1
    20    14    13    1
    21    14    15    1
    22     1     6    2
    23     1     2    1
    24    13    12    2
    25     6     5    1
    26    15    11    2
    27     2     3    2
    28     5     4    2
    29    12    11    1
    30     3     4    1
    31    11     9    1
    32     4     7    1
    33     7     8    1
    34     9     8    1
    35     9    10    2
