@<TRIPOS>MOLECULE
68037_out_ligand_01.pdbqt
 32 36 0 0 0
SMALL
GASTEIGER

@<TRIPOS>ATOM
      1  C         19.6880  -22.1220  -10.7220 C.2     1  UNL1        0.0340
      2  C         18.7700  -21.6420  -11.6570 C.2     1  UNL1        0.0170
      3  C         17.4500  -21.4470  -11.2720 C.2     1  UNL1        0.0030
      4  C         17.0480  -21.7330   -9.9600 C.2     1  UNL1        0.0300
      5  C         17.9480  -22.2250   -8.9990 C.2     1  UNL1        0.0460
      6  C         19.2770  -22.4200   -9.4110 C.2     1  UNL1        0.0470
      7  C         21.1070  -22.3640  -11.0980 C.2     1  UNL1        0.2560
      8  O         21.7540  -23.1640  -10.4360 O.2     1  UNL1       -0.2670
      9  N         21.5510  -21.6150  -12.1730 N.am    1  UNL1       -0.3230
     10  H         20.9140  -20.9150  -12.5330 H       1  UNL1        0.1690
     11  C         22.8270  -21.6530  -12.7740 C.2     1  UNL1        0.0370
     12  C         23.9850  -22.1210  -12.1220 C.2     1  UNL1        0.0320
     13  C         25.2260  -22.1400  -12.7730 C.2     1  UNL1        0.0420
     14  C         25.2770  -21.6870  -14.0720 C.2     1  UNL1        0.1110
     15  C         24.1520  -21.2320  -14.7180 C.2     1  UNL1        0.1130
     16  O         26.3870  -21.6340  -14.8530 O.2     1  UNL1       -0.2560
     17  C         22.9170  -21.2030  -14.1000 C.2     1  UNL1        0.0690
     18  O         24.4090  -20.8330  -15.9920 O.2     1  UNL1       -0.2560
     19  C         25.8190  -21.0940  -16.0550 C.3     1  UNL1        0.4980
     20  F         26.4580  -19.9350  -16.3520 F       1  UNL1       -0.1470
     21  F         26.0500  -21.9620  -17.0700 F       1  UNL1       -0.1470
     22  N         17.5270  -22.5190   -7.6630 N.am    1  UNL1       -0.2440
     23  C         16.4250  -23.2830   -7.3270 C.2     1  UNL1        0.2660
     24  O         15.5960  -23.8630   -8.0060 O.2     1  UNL1       -0.2670
     25  C         16.3640  -23.3380   -5.8700 C.2     1  UNL1        0.0480
     26  C         15.4650  -23.9770   -5.0350 C.2     1  UNL1        0.0180
     27  C         17.4180  -22.6050   -5.3780 C.2     1  UNL1        0.0480
     28  C         15.6650  -23.8490   -3.6580 C.2     1  UNL1        0.0010
     29  C         16.7450  -23.0960   -3.1540 C.2     1  UNL1        0.0010
     30  C         17.6390  -22.4590   -4.0210 C.2     1  UNL1        0.0180
     31  C         18.1550  -22.0680   -6.5160 C.2     1  UNL1        0.2660
     32  O         19.1130  -21.3350   -6.3470 O.2     1  UNL1       -0.2670
@<TRIPOS>BOND
     1    21    19    1
     2    20    19    1
     3    19    18    1
     4    19    16    1
     5    18    15    1
     6    16    14    1
     7    15    17    1
     8    15    14    2
     9    17    11    2
    10    14    13    1
    11    11     9    1
    12    11    12    1
    13    13    12    2
    14    10     9    1
    15     9     7   am
    16     2     3    1
    17     2     1    2
    18     3     4    2
    19     7     1    1
    20     7     8    2
    21     1     6    1
    22     4     5    1
    23     6     5    2
    24     5    22    1
    25    24    23    2
    26    22    23   am
    27    22    31   am
    28    23    25    1
    29    31    32    2
    30    31    27    1
    31    25    27    2
    32    25    26    1
    33    27    30    1
    34    26    28    2
    35    30    29    2
    36    28    29    1
