@<TRIPOS>MOLECULE
6805_out_ligand_01.pdbqt
 34 37 0 0 0
SMALL
GASTEIGER

@<TRIPOS>ATOM
      1  C         17.3820  -21.0430  -11.1800 C.3     1  UNL1        0.0500
      2  C         18.8530  -21.3720  -11.1880 C.2     1  UNL1       -0.0350
      3  C         19.6090  -21.0060  -12.3150 C.2     1  UNL1        0.0100
      4  C         20.9730  -21.2840  -12.3830 C.2     1  UNL1        0.0170
      5  C         21.5990  -21.9380  -11.3200 C.2     1  UNL1        0.0340
      6  C         20.8570  -22.2940  -10.1840 C.2     1  UNL1        0.0470
      7  C         19.4860  -22.0260  -10.1070 C.2     1  UNL1        0.0420
      8  C         23.0530  -22.2480  -11.3470 C.2     1  UNL1        0.2520
      9  O         23.4830  -23.2820  -10.8510 O.2     1  UNL1       -0.2680
     10  N         23.8580  -21.3280  -11.9770 N.am    1  UNL1       -0.3440
     11  H         23.4560  -20.5780  -12.5320 H       1  UNL1        0.1630
     12  C         25.2910  -21.5470  -12.1600 C.3     1  UNL1        0.1730
     13  C         26.0650  -21.0340  -10.9510 C.3     1  UNL1        0.0420
     14  C         25.7180  -20.7920  -13.4400 C.2     1  UNL1        0.2420
     15  O         26.1470  -19.6340  -13.3490 O.2     1  UNL1       -0.2710
     16  N         25.6550  -21.4610  -14.6660 N.am    1  UNL1       -0.3500
     17  C         24.7400  -22.5830  -14.8980 C.3     1  UNL1        0.1260
     18  C         26.0120  -20.6830  -15.8520 C.3     1  UNL1        0.1260
     19  C         25.1970  -23.4770  -16.0460 C.3     1  UNL1        0.0200
     20  C         25.4770  -22.6670  -17.3070 C.3     1  UNL1        0.0030
     21  C         26.4820  -21.5610  -17.0060 C.3     1  UNL1        0.0200
     22  N         18.7050  -22.3820   -8.9870 N.am    1  UNL1       -0.3210
     23  C         18.7420  -23.5380   -8.2240 C.2     1  UNL1        0.2760
     24  O         19.4830  -24.4980   -8.4030 O.2     1  UNL1       -0.2660
     25  H         17.9960  -21.7260   -8.6740 H       1  UNL1        0.1690
     26  C         17.7470  -23.5110   -7.1250 C.ar    1  UNL1        0.1440
     27  N         16.6430  -24.2680   -7.2360 N.ar    1  UNL1       -0.2050
     28  S         15.7060  -24.0670   -5.8960 S.2     1  UNL1        0.0120
     29  C         16.7340  -22.9520   -5.0970 C.ar    1  UNL1        0.0360
     30  C         16.5640  -22.3250   -3.8500 C.2     1  UNL1        0.0210
     31  C         17.8510  -22.7270   -5.9060 C.ar    1  UNL1        0.0170
     32  C         17.5520  -21.4420   -3.4100 C.2     1  UNL1        0.0010
     33  C         18.6750  -21.1930   -4.1870 C.2     1  UNL1        0.0010
     34  C         18.8340  -21.8240   -5.4250 C.2     1  UNL1        0.0150
@<TRIPOS>BOND
     1    20    21    1
     2    20    19    1
     3    21    18    1
     4    19    17    1
     5    18    16    1
     6    17    16    1
     7    16    14   am
     8    14    15    2
     9    14    12    1
    10    11    10    1
    11     4     3    1
    12     4     5    2
    13     3     2    2
    14    12    10    1
    15    12    13    1
    16    10     8   am
    17     8     5    1
    18     8     9    2
    19     5     6    1
    20     2     1    1
    21     2     7    1
    22     6     7    2
    23     7    22    1
    24    22    25    1
    25    22    23   am
    26    24    23    2
    27    23    26    1
    28    27    26   ar
    29    27    28   ar
    30    26    31   ar
    31    31    34    1
    32    31    29   ar
    33    28    29   ar
    34    34    33    2
    35    29    30    1
    36    33    32    1
    37    30    32    2
