@<TRIPOS>MOLECULE
68052_out_ligand_01.pdbqt
 30 33 0 0 0
SMALL
GASTEIGER

@<TRIPOS>ATOM
      1  C         17.8660  -21.7190  -10.8420 C.2     1  UNL1        0.1430
      2  C         16.5800  -21.2120  -10.7750 C.2     1  UNL1        0.0450
      3  C         15.8570  -22.0290   -9.8690 C.2     1  UNL1        0.0360
      4  C         16.7320  -23.0040   -9.4410 C.2     1  UNL1        0.0680
      5  O         17.9530  -22.8060  -10.0100 O.2     1  UNL1       -0.3080
      6  C         19.0680  -21.3340  -11.5740 C.2     1  UNL1        0.2790
      7  O         19.0900  -20.3560  -12.3150 O.2     1  UNL1       -0.2650
      8  N         20.1590  -22.1640  -11.3450 N.am    1  UNL1       -0.3210
      9  H         20.0290  -22.9000  -10.6650 H       1  UNL1        0.1690
     10  C         21.4500  -22.0800  -11.9120 C.2     1  UNL1        0.0370
     11  C         22.5890  -22.7110  -11.3740 C.2     1  UNL1        0.0320
     12  C         23.8450  -22.5840  -11.9850 C.2     1  UNL1        0.0420
     13  C         23.9300  -21.8250  -13.1290 C.2     1  UNL1        0.1110
     14  C         22.8250  -21.2050  -13.6610 C.2     1  UNL1        0.1130
     15  O         25.0580  -21.5930  -13.8500 O.2     1  UNL1       -0.2560
     16  C         21.5770  -21.3120  -13.0790 C.2     1  UNL1        0.0690
     17  O         23.1150  -20.5020  -14.7880 O.2     1  UNL1       -0.2560
     18  C         24.5230  -20.7600  -14.8870 C.3     1  UNL1        0.4980
     19  F         25.1790  -19.5740  -14.8710 F       1  UNL1       -0.1470
     20  F         24.7690  -21.3480  -16.0840 F       1  UNL1       -0.1470
     21  C         16.6390  -24.1460   -8.5010 C.3     1  UNL1        0.2100
     22  S         17.5070  -23.7460   -6.9900 S.O2    1  UNL1        0.1810
     23  O         17.4890  -24.8860   -6.0930 O.2     1  UNL1       -0.2220
     24  O         17.0770  -22.4370   -6.5300 O.2     1  UNL1       -0.2220
     25  C         19.1860  -23.5660   -7.5590 C.2     1  UNL1        0.0590
     26  C         19.7920  -24.6160   -8.2550 C.2     1  UNL1        0.0230
     27  C         21.1070  -24.4750   -8.6980 C.2     1  UNL1        0.0020
     28  C         21.8090  -23.2970   -8.4360 C.2     1  UNL1        0.0000
     29  C         21.2040  -22.2590   -7.7250 C.2     1  UNL1        0.0020
     30  C         19.8900  -22.3910   -7.2780 C.2     1  UNL1        0.0230
@<TRIPOS>BOND
     1    20    18    1
     2    18    19    1
     3    18    17    1
     4    18    15    1
     5    17    14    1
     6    15    13    1
     7    14    13    2
     8    14    16    1
     9    13    12    1
    10    16    10    2
    11     7     6    2
    12    12    11    2
    13    10    11    1
    14    10     8    1
    15     6     8   am
    16     6     1    1
    17     8     9    1
    18     1     2    2
    19     1     5    1
    20     2     3    1
    21     5     4    1
    22     3     4    2
    23     4    21    1
    24    27    28    2
    25    27    26    1
    26    21    22    1
    27    28    29    1
    28    26    25    2
    29    29    30    2
    30    25    30    1
    31    25    22    1
    32    22    24    2
    33    22    23    2
