@<TRIPOS>MOLECULE
68063_out_ligand_01.pdbqt
 29 32 0 0 0
SMALL
GASTEIGER

@<TRIPOS>ATOM
      1  N         17.2550  -23.7770   -7.9120 N.3     1  UNL1        0.1020
      2  C         18.4860  -24.2960   -7.2880 C.3     1  UNL1        0.3110
      3  C         19.8050  -23.8130   -7.8620 C.2     1  UNL1       -0.0300
      4  C         20.5980  -24.6590   -8.6520 C.2     1  UNL1        0.0100
      5  C         21.8120  -24.2130   -9.1860 C.2     1  UNL1        0.0170
      6  C         22.2470  -22.9050   -8.9400 C.2     1  UNL1        0.0320
      7  C         21.4760  -22.0640   -8.1310 C.2     1  UNL1        0.0170
      8  C         20.2650  -22.5130   -7.5990 C.2     1  UNL1        0.0100
      9  C         23.5290  -22.3800   -9.4860 C.2     1  UNL1        0.2520
     10  O         23.6830  -21.1710   -9.6280 O.2     1  UNL1       -0.2680
     11  N         24.4740  -23.3270   -9.8370 N.am    1  UNL1       -0.3520
     12  H         24.2040  -24.3020   -9.8600 H       1  UNL1        0.1630
     13  C         25.7170  -22.9670  -10.4440 C.3     1  UNL1        0.0840
     14  C         26.1060  -23.5410  -11.7790 C.3     1  UNL1        0.0270
     15  C         26.8410  -23.9630  -10.5400 C.3     1  UNL1        0.0270
     16  C         16.0450  -24.3160   -7.2590 C.3     1  UNL1        0.3370
     17  C         15.6920  -23.6190   -5.9910 C.2     1  UNL1        0.0800
     18  C         15.0790  -22.4140   -5.7040 C.2     1  UNL1        0.0360
     19  C         15.0360  -22.3120   -4.2940 C.2     1  UNL1        0.0270
     20  C         15.6350  -23.4510   -3.8090 C.2     1  UNL1        0.1420
     21  O         16.0470  -24.2440   -4.8300 O.2     1  UNL1       -0.3250
     22  C         17.2480  -23.9980   -9.3710 C.3     1  UNL1        0.3150
     23  C         17.6100  -22.7790  -10.1840 C.2     1  UNL1        0.0090
     24  C         18.8810  -22.6480  -10.7650 C.2     1  UNL1        0.0120
     25  C         19.2000  -21.5230  -11.5290 C.2     1  UNL1        0.0010
     26  C         18.2520  -20.5180  -11.7280 C.2     1  UNL1        0.0030
     27  C         16.9840  -20.6420  -11.1640 C.2     1  UNL1        0.0430
     28  C         16.6710  -21.7670  -10.4040 C.2     1  UNL1        0.1240
     29  F         15.4370  -21.8700   -9.8890 F       1  UNL1       -0.2050
@<TRIPOS>BOND
     1    14    15    1
     2    14    13    1
     3    26    25    2
     4    26    27    1
     5    25    24    1
     6    27    28    2
     7    24    23    2
     8    15    13    1
     9    13    11    1
    10    28    23    1
    11    28    29    1
    12    23    22    1
    13    12    11    1
    14    11     9   am
    15    10     9    2
    16     9     6    1
    17    22     1    1
    18     5     6    2
    19     5     4    1
    20     6     7    1
    21     4     3    2
    22     7     8    2
    23     1     2    1
    24     1    16    1
    25     3     8    1
    26     3     2    1
    27    16    17    1
    28    17    18    2
    29    17    21    1
    30    18    19    1
    31    21    20    1
    32    19    20    2
