@<TRIPOS>MOLECULE
68082_out_ligand_01.pdbqt
 27 30 0 0 0
SMALL
GASTEIGER

@<TRIPOS>ATOM
      1  C         17.5750  -22.6490   -8.2870 C.3     1  UNL1        0.1800
      2  C         16.7310  -23.5080   -7.3120 C.2     1  UNL1        0.2380
      3  O         16.0480  -24.4550   -7.7160 O.2     1  UNL1       -0.2720
      4  N         16.7660  -23.1820   -5.9540 N.am    1  UNL1       -0.3510
      5  C         17.6220  -22.1440   -5.3800 C.3     1  UNL1        0.1260
      6  C         15.8740  -23.8930   -5.0360 C.3     1  UNL1        0.1260
      7  C         17.7810  -22.2860   -3.8690 C.3     1  UNL1        0.0200
      8  C         16.4320  -22.2890   -3.1530 C.3     1  UNL1        0.0030
      9  C         15.3220  -22.9580   -3.9670 C.3     1  UNL1        0.0200
     10  S         16.8200  -22.6700   -9.9630 S.3     1  UNL1       -0.0630
     11  C         18.0580  -21.8330  -10.8460 C.ar    1  UNL1        0.2320
     12  N         17.9540  -20.6010  -11.3000 N.ar    1  UNL1       -0.1140
     13  N         19.1470  -20.3110  -11.9260 N.ar    1  UNL1       -0.1190
     14  C         19.9070  -21.3840  -11.8090 C.ar    1  UNL1        0.2200
     15  O         19.2770  -22.3890  -11.1190 O.2     1  UNL1       -0.2620
     16  C         21.2300  -21.4990  -12.3280 C.2     1  UNL1        0.0870
     17  C         22.3170  -22.2040  -11.8490 C.2     1  UNL1        0.0350
     18  C         23.3980  -21.9770  -12.7330 C.2     1  UNL1        0.0190
     19  C         22.9430  -21.1440  -13.7310 C.2     1  UNL1        0.0880
     20  N         21.6280  -20.8570  -13.4750 N.pl3   1  UNL1       -0.3620
     21  H         21.0370  -20.2590  -14.0380 H       1  UNL1        0.1650
     22  C         19.0290  -23.0900   -8.3600 C.2     1  UNL1       -0.0350
     23  C         19.3950  -24.3940   -8.7320 C.2     1  UNL1        0.0090
     24  C         20.7400  -24.7650   -8.8030 C.2     1  UNL1        0.0010
     25  C         21.7380  -23.8370   -8.5140 C.2     1  UNL1        0.0000
     26  C         21.3940  -22.5350   -8.1600 C.2     1  UNL1        0.0010
     27  C         20.0510  -22.1620   -8.0870 C.2     1  UNL1        0.0090
@<TRIPOS>BOND
     1    21    20    1
     2    19    20    1
     3    19    18    2
     4    20    16    1
     5    18    17    1
     6    16    17    2
     7    16    14    1
     8    13    14   ar
     9    13    12   ar
    10    14    15   ar
    11    12    11   ar
    12    15    11   ar
    13    11    10    1
    14    10     1    1
    15    24    23    1
    16    24    25    2
    17    23    22    2
    18    25    26    1
    19    22     1    1
    20    22    27    1
    21     1     2    1
    22    26    27    2
    23     3     2    2
    24     2     4   am
    25     4     5    1
    26     4     6    1
    27     5     7    1
    28     6     9    1
    29     9     8    1
    30     7     8    1
