@<TRIPOS>MOLECULE
68085_out_ligand_01.pdbqt
 33 35 0 0 0
SMALL
GASTEIGER

@<TRIPOS>ATOM
      1  C         17.9330  -22.9830   -9.3460 C.2     1  UNL1        0.0800
      2  C         17.6310  -22.1570  -10.4340 C.2     1  UNL1        0.0250
      3  C         18.6660  -21.6170  -11.1980 C.2     1  UNL1        0.0030
      4  C         19.9950  -21.9140  -10.8850 C.2     1  UNL1        0.0170
      5  C         20.2960  -22.7660   -9.8120 C.2     1  UNL1        0.0340
      6  C         19.2590  -23.3040   -9.0410 C.2     1  UNL1        0.0420
      7  C         21.6980  -23.0990   -9.4410 C.2     1  UNL1        0.2660
      8  O         22.0070  -24.2450   -9.1310 O.2     1  UNL1       -0.2660
      9  N         22.6060  -22.0560   -9.5030 N.am    1  UNL1       -0.2800
     10  H         22.4310  -21.2670  -10.1270 H       1  UNL1        0.1840
     11  N         23.9740  -22.4290   -9.4610 N.pl3   1  UNL1       -0.1690
     12  H         24.1080  -23.4390   -9.3530 H       1  UNL1        0.1560
     13  C         24.6560  -22.0730  -10.6420 C.cat   1  UNL1        0.2200
     14  N         24.6130  -22.9140  -11.6960 N.2     1  UNL1       -0.2220
     15  C         25.2900  -22.5490  -12.8030 C.2     1  UNL1        0.0360
     16  C         25.2420  -23.4760  -13.9790 C.3     1  UNL1        0.0700
     17  C         26.0100  -21.3730  -12.8750 C.2     1  UNL1        0.0530
     18  C         26.0030  -20.5780  -11.7480 C.2     1  UNL1        0.0360
     19  C         26.7590  -19.2830  -11.7300 C.3     1  UNL1        0.0700
     20  N         25.3330  -20.9180  -10.6290 N.2     1  UNL1       -0.2220
     21  S         16.6130  -23.6700   -8.3710 S.O2    1  UNL1        0.2630
     22  O         15.4910  -23.8920   -9.2590 O.2     1  UNL1       -0.2000
     23  O         17.1610  -24.7500   -7.5790 O.2     1  UNL1       -0.2000
     24  N         16.1640  -22.3910   -7.3590 N.pl3   1  UNL1       -0.2790
     25  H         15.8720  -21.5780   -7.9020 H       1  UNL1        0.1790
     26  C         16.9550  -22.1190   -6.1980 C.2     1  UNL1        0.0600
     27  C         16.5250  -22.5260   -4.9260 C.2     1  UNL1        0.0380
     28  C         17.2800  -22.2110   -3.7960 C.2     1  UNL1        0.0220
     29 BR         14.9160  -23.5050   -4.6920 Br      1  UNL1       -0.0490
     30  C         18.4640  -21.4840   -3.9290 C.2     1  UNL1        0.0080
     31  C         18.9020  -21.0670   -5.1910 C.2     1  UNL1       -0.0600
     32  C         20.1870  -20.3070   -5.3370 C.3     1  UNL1        0.0480
     33  C         18.1500  -21.4060   -6.3240 C.2     1  UNL1        0.0380
@<TRIPOS>BOND
     1    16    15    1
     2    17    15    2
     3    17    18    1
     4    15    14    1
     5    18    19    1
     6    18    20    2
     7    14    13    2
     8     3     4    2
     9     3     2    1
    10     4     5    1
    11    13    20    1
    12    13    11    1
    13     2     1    2
    14    10     9    1
    15     5     7    1
    16     5     6    2
    17     9    11    1
    18     9     7   am
    19    11    12    1
    20     7     8    2
    21     1     6    1
    22     1    21    1
    23    22    21    2
    24    21    23    2
    25    21    24    1
    26    25    24    1
    27    24    26    1
    28    33    26    2
    29    33    31    1
    30    26    27    1
    31    32    31    1
    32    31    30    2
    33    27    29    1
    34    27    28    2
    35    30    28    1
