@<TRIPOS>MOLECULE
68097_out_ligand_01.pdbqt
 35 38 0 0 0
SMALL
GASTEIGER

@<TRIPOS>ATOM
      1  N         22.3170  -24.1120   -9.3750 N.am    1  UNL1       -0.3570
      2  C         23.2650  -23.1240   -9.3050 C.2     1  UNL1        0.2520
      3  O         23.2820  -22.2800   -8.4130 O.2     1  UNL1       -0.2680
      4  H         22.2740  -24.7030  -10.2020 H       1  UNL1        0.1620
      5  C         24.3480  -23.1250  -10.3310 C.2     1  UNL1        0.0460
      6  C         25.5900  -23.6150   -9.8770 C.2     1  UNL1        0.0180
      7  C         26.7050  -23.6400  -10.7130 C.2     1  UNL1        0.0010
      8  C         26.6010  -23.1640  -12.0130 C.2     1  UNL1        0.0010
      9  C         25.3810  -22.6620  -12.4720 C.2     1  UNL1        0.0170
     10  C         24.2360  -22.6320  -11.6440 C.2     1  UNL1        0.0330
     11  C         23.0130  -22.0760  -12.2050 C.2     1  UNL1        0.1810
     12  N         22.8310  -21.3810  -13.3130 N.2     1  UNL1       -0.2330
     13  C         21.4850  -21.1010  -13.3020 C.2     1  UNL1        0.1570
     14  C         20.8920  -21.6240  -12.1730 C.2     1  UNL1        0.1050
     15  O         21.8790  -22.2480  -11.4560 O.2     1  UNL1       -0.2890
     16  C         19.5450  -21.6520  -11.6170 C.2     1  UNL1       -0.0010
     17  C         18.7170  -20.5170  -11.6560 C.2     1  UNL1        0.0140
     18  C         17.4260  -20.5510  -11.1200 C.2     1  UNL1        0.0010
     19  C         16.9430  -21.7190  -10.5370 C.2     1  UNL1        0.0000
     20  C         17.7490  -22.8550  -10.4910 C.2     1  UNL1        0.0010
     21  C         19.0410  -22.8210  -11.0270 C.2     1  UNL1        0.0140
     22  C         21.2100  -24.1670   -8.4400 C.3     1  UNL1        0.1270
     23  C         20.6470  -22.7860   -8.0980 C.3     1  UNL1        0.0580
     24  C         19.4290  -22.8380   -7.2040 C.2     1  UNL1       -0.0570
     25  C         18.5660  -23.9430   -7.2500 C.2     1  UNL1        0.0090
     26  C         17.4340  -23.9920   -6.4360 C.2     1  UNL1        0.0250
     27  C         17.1620  -22.9310   -5.5690 C.2     1  UNL1        0.0740
     28  C         18.0020  -21.8150   -5.5240 C.2     1  UNL1        0.0250
     29  C         19.1340  -21.7740   -6.3380 C.2     1  UNL1        0.0090
     30  S         15.7110  -22.9700   -4.5600 S.O2    1  UNL1        0.2390
     31  O         15.4690  -24.3240   -4.1170 O.2     1  UNL1       -0.2060
     32  O         14.6840  -22.1580   -5.1690 O.2     1  UNL1       -0.2060
     33  N         16.2150  -22.1290   -3.1950 N.3     1  UNL1       -0.2250
     34  H         16.8400  -21.3720   -3.4710 H       1  UNL1        0.1360
     35  H         16.6220  -22.7780   -2.5220 H       1  UNL1        0.1360
@<TRIPOS>BOND
     1    12    13    1
     2    12    11    2
     3    13    14    2
     4     9     8    2
     5     9    10    1
     6    11    10    1
     7    11    15    1
     8    14    16    1
     9    14    15    1
    10     8     7    1
    11    17    16    2
    12    17    18    1
    13    10     5    2
    14    16    21    1
    15    18    19    2
    16    21    20    2
    17     7     6    2
    18    19    20    1
    19     5     6    1
    20     5     2    1
    21     4     1    1
    22     1     2   am
    23     1    22    1
    24     2     3    2
    25    22    23    1
    26    23    24    1
    27    25    24    2
    28    25    26    1
    29    24    29    1
    30    26    27    2
    31    29    28    2
    32    27    28    1
    33    27    30    1
    34    32    30    2
    35    30    31    2
    36    30    33    1
    37    34    33    1
    38    33    35    1
