@<TRIPOS>MOLECULE
68096_out_ligand_01.pdbqt
 30 32 0 0 0
SMALL
GASTEIGER

@<TRIPOS>ATOM
      1  N         19.7930  -21.6480  -11.4190 N.am    1  UNL1       -0.3530
      2  C         18.4410  -21.4690  -11.2250 C.2     1  UNL1        0.2510
      3  O         17.7560  -20.7130  -11.9060 O.2     1  UNL1       -0.2680
      4  H         20.3370  -22.1650  -10.7450 H       1  UNL1        0.1630
      5  C         20.5180  -20.9120  -12.4320 C.3     1  UNL1        0.1610
      6  C         21.9010  -21.4830  -12.6180 C.2     1  UNL1       -0.0390
      7  C         22.4090  -22.4120  -11.6920 C.2     1  UNL1        0.0090
      8  C         23.6930  -22.9390  -11.8380 C.2     1  UNL1        0.0020
      9  C         24.4910  -22.5470  -12.9110 C.2     1  UNL1        0.0250
     10  C         23.9890  -21.6310  -13.8400 C.2     1  UNL1        0.0740
     11  C         22.7040  -21.0930  -13.7000 C.2     1  UNL1        0.0330
     12  S         25.0210  -21.1160  -15.1880 S.O2    1  UNL1        0.2390
     13  O         26.3360  -21.6910  -15.0090 O.2     1  UNL1       -0.2060
     14  O         24.2700  -21.2530  -16.4140 O.2     1  UNL1       -0.2060
     15  N         25.2020  -19.4700  -14.8640 N.3     1  UNL1       -0.2250
     16  H         24.7610  -19.2580  -13.9660 H       1  UNL1        0.1360
     17  H         24.8610  -18.8690  -15.6150 H       1  UNL1        0.1360
     18  C         17.8200  -22.2170  -10.0950 C.2     1  UNL1        0.0320
     19  C         18.6700  -22.8760   -9.1960 C.2     1  UNL1        0.0200
     20  C         18.1400  -23.5950   -8.1220 C.2     1  UNL1        0.0380
     21  C         16.7590  -23.6390   -7.9300 C.2     1  UNL1        0.0760
     22  C         15.9040  -22.9910   -8.8250 C.2     1  UNL1        0.0380
     23  C         16.4330  -22.2680   -9.9000 C.2     1  UNL1        0.0200
     24  O         16.3070  -24.3990   -6.8740 O.2     1  UNL1       -0.3110
     25  C         16.2160  -23.7970   -5.6420 C.2     1  UNL1        0.0760
     26  C         15.1010  -23.0560   -5.2400 C.2     1  UNL1        0.0370
     27  C         15.0960  -22.4340   -3.9910 C.2     1  UNL1        0.0030
     28  C         16.2060  -22.5380   -3.1530 C.2     1  UNL1        0.0000
     29  C         17.3270  -23.2600   -3.5630 C.2     1  UNL1        0.0030
     30  C         17.3350  -23.8830   -4.8120 C.2     1  UNL1        0.0370
@<TRIPOS>BOND
     1    14    12    2
     2    17    15    1
     3    12    13    2
     4    12    15    1
     5    12    10    1
     6    15    16    1
     7    10    11    1
     8    10     9    2
     9    11     6    2
    10     9     8    1
    11     6     5    1
    12     6     7    1
    13     5     1    1
    14     3     2    2
    15     8     7    2
    16     1     2   am
    17     1     4    1
    18     2    18    1
    19    18    23    2
    20    18    19    1
    21    23    22    1
    22    19    20    2
    23    22    21    2
    24    20    21    1
    25    21    24    1
    26    24    25    1
    27    25    26    2
    28    25    30    1
    29    26    27    1
    30    30    29    2
    31    27    28    2
    32    29    28    1
