@<TRIPOS>MOLECULE
68103_out_ligand_01.pdbqt
 30 33 0 0 0
SMALL
GASTEIGER

@<TRIPOS>ATOM
      1  N         22.8130  -22.2800  -10.2570 N.am    1  UNL1       -0.3380
      2  C         23.9280  -21.7650  -10.9090 C.2     1  UNL1        0.2560
      3  O         24.8370  -21.1560  -10.3500 O.2     1  UNL1       -0.2670
      4  C         22.7220  -22.1040   -8.8100 C.3     1  UNL1        0.1650
      5  C         21.4090  -22.6160   -8.2580 C.2     1  UNL1       -0.0400
      6  C         20.9980  -23.9330   -8.5150 C.2     1  UNL1        0.0100
      7  C         19.7780  -24.4080   -8.0270 C.2     1  UNL1        0.0170
      8  C         18.9580  -23.5720   -7.2620 C.2     1  UNL1        0.0320
      9  C         19.3560  -22.2530   -7.0140 C.2     1  UNL1        0.0170
     10  C         20.5750  -21.7790   -7.5050 C.2     1  UNL1        0.0100
     11  C         17.6490  -24.0300   -6.7180 C.2     1  UNL1        0.2520
     12  O         17.4720  -25.2180   -6.4680 O.2     1  UNL1       -0.2680
     13  N         16.6810  -23.0550   -6.5620 N.am    1  UNL1       -0.3520
     14  H         16.8400  -22.1370   -6.9570 H       1  UNL1        0.1630
     15  C         15.3680  -23.3610   -6.0910 C.3     1  UNL1        0.0840
     16  C         14.4690  -22.2750   -5.5670 C.3     1  UNL1        0.0270
     17  C         15.0520  -23.2850   -4.6230 C.3     1  UNL1        0.0270
     18  C         21.7130  -22.9940  -10.9130 C.3     1  UNL1        0.1910
     19  C         20.5670  -22.0750  -11.1520 C.2     1  UNL1        0.0700
     20  C         20.4780  -20.7480  -11.5220 C.2     1  UNL1        0.0360
     21  C         19.0970  -20.4450  -11.6040 C.2     1  UNL1        0.0270
     22  C         18.4320  -21.6080  -11.2940 C.2     1  UNL1        0.1420
     23  O         19.3140  -22.6030  -11.0260 O.2     1  UNL1       -0.3250
     24  C         24.0400  -21.9200  -12.3680 C.2     1  UNL1        0.0530
     25  C         23.2970  -21.0490  -13.1740 C.2     1  UNL1        0.0190
     26  C         23.3940  -21.1380  -14.5630 C.2     1  UNL1        0.0010
     27  C         24.2420  -22.0840  -15.1410 C.2     1  UNL1        0.0020
     28  C         25.0000  -22.9360  -14.3340 C.2     1  UNL1        0.0250
     29  C         24.9090  -22.8510  -12.9420 C.2     1  UNL1        0.0490
     30 CL         25.8780  -23.9200  -11.9930 Cl      1  UNL1       -0.0830
@<TRIPOS>BOND
     1    27    26    2
     2    27    28    1
     3    26    25    1
     4    28    29    2
     5    25    24    2
     6    29    24    1
     7    29    30    1
     8    24     2    1
     9    21    20    1
    10    21    22    2
    11    20    19    2
    12    22    23    1
    13    19    23    1
    14    19    18    1
    15    18     1    1
    16     2     3    2
    17     2     1   am
    18     1     4    1
    19     4     5    1
    20     6     5    2
    21     6     7    1
    22     5    10    1
    23     7     8    2
    24    10     9    2
    25     8     9    1
    26     8    11    1
    27    14    13    1
    28    11    13   am
    29    11    12    2
    30    13    15    1
    31    15    16    1
    32    15    17    1
    33    16    17    1
