@<TRIPOS>MOLECULE
68101_out_ligand_01.pdbqt
 30 33 0 0 0
SMALL
GASTEIGER

@<TRIPOS>ATOM
      1  C         22.3580  -22.0950   -9.4900 C.2     1  UNL1        0.2260
      2  O         22.9660  -21.0490   -9.2800 O.2     1  UNL1       -0.2730
      3  N         22.3040  -22.7800  -10.6970 N.am    1  UNL1       -0.3270
      4  H         21.8080  -23.6630  -10.6960 H       1  UNL1        0.1690
      5  C         21.5580  -22.7730   -8.3840 C.3     1  UNL1        0.1440
      6  C         20.0990  -22.7700   -8.6860 C.2     1  UNL1       -0.0140
      7  C         19.5150  -22.9070   -9.9300 C.2     1  UNL1        0.1510
      8  O         18.1620  -22.8530   -9.8430 O.2     1  UNL1       -0.3210
      9  C         17.8550  -22.6910   -8.5290 C.2     1  UNL1        0.0860
     10  C         16.5690  -22.6050   -8.0050 C.2     1  UNL1        0.0450
     11  C         19.0110  -22.6290   -7.7680 C.2     1  UNL1        0.0070
     12  C         16.4410  -22.4520   -6.6100 C.2     1  UNL1       -0.0530
     13  C         15.0460  -22.3790   -6.0430 C.3     1  UNL1        0.0490
     14  C         17.5900  -22.3650   -5.7870 C.2     1  UNL1       -0.0480
     15  C         18.8740  -22.4630   -6.3760 C.2     1  UNL1        0.0230
     16  C         17.4820  -22.2090   -4.2710 C.3     1  UNL1        0.0110
     17  C         17.5750  -23.5740   -3.5840 C.3     1  UNL1        0.0150
     18  C         18.5250  -21.2410   -3.6970 C.3     1  UNL1        0.0150
     19  C         22.8370  -22.3760  -11.9390 C.2     1  UNL1        0.0350
     20  C         22.1940  -21.4720  -12.8150 C.2     1  UNL1        0.0300
     21  C         22.7610  -21.1150  -14.0470 C.2     1  UNL1        0.0200
     22  C         23.9740  -21.6810  -14.3720 C.2     1  UNL1        0.0480
     23  C         24.6090  -22.5660  -13.5200 C.2     1  UNL1        0.0500
     24  C         24.8220  -21.5210  -15.5510 C.2     1  UNL1        0.2590
     25  C         24.0700  -22.9350  -12.3020 C.2     1  UNL1        0.0470
     26  C         25.8640  -22.9630  -14.1560 C.2     1  UNL1        0.2590
     27  O         26.6840  -23.7180  -13.6740 O.2     1  UNL1       -0.2670
     28  N         25.9090  -22.3140  -15.3500 N.am    1  UNL1       -0.2890
     29  H         26.6730  -22.3870  -16.0020 H       1  UNL1        0.1720
     30  O         24.5800  -20.8100  -16.5050 O.2     1  UNL1       -0.2670
@<TRIPOS>BOND
     1    30    24    2
     2    29    28    1
     3    24    28   am
     4    24    22    1
     5    28    26   am
     6    22    21    2
     7    22    23    1
     8    26    27    2
     9    26    23    1
    10    21    20    1
    11    23    25    2
    12    20    19    2
    13    25    19    1
    14    19     3    1
    15     3     4    1
    16     3     1   am
    17     7     8    1
    18     7     6    2
    19     8     9    1
    20     1     2    2
    21     1     5    1
    22     6     5    1
    23     6    11    1
    24     9    10    2
    25     9    11    1
    26    10    12    1
    27    11    15    2
    28    12    13    1
    29    12    14    2
    30    15    14    1
    31    14    16    1
    32    16    18    1
    33    16    17    1
