@<TRIPOS>MOLECULE
68115_out_ligand_01.pdbqt
 28 31 0 0 0
SMALL
GASTEIGER

@<TRIPOS>ATOM
      1  C         21.1170  -22.4880   -8.9200 C.2     1  UNL1        0.2570
      2  O         22.2140  -22.5340   -8.3810 O.2     1  UNL1       -0.2670
      3  N         20.8580  -22.4480  -10.2790 N.am    1  UNL1       -0.3230
      4  H         19.9040  -22.6050  -10.5750 H       1  UNL1        0.1690
      5  C         19.9170  -22.5390   -8.0520 C.2     1  UNL1        0.0500
      6  C         19.9520  -21.9200   -6.7970 C.2     1  UNL1        0.0350
      7  C         18.7930  -21.9960   -6.0140 C.2     1  UNL1        0.0320
      8  C         18.3700  -21.5560   -4.7430 C.2     1  UNL1        0.1540
      9  C         17.6920  -22.6650   -6.5330 C.2     1  UNL1        0.1570
     10  N         17.1140  -21.9150   -4.4590 N.2     1  UNL1       -0.1820
     11  N         16.7170  -22.5850   -5.5700 N.pl3   1  UNL1       -0.2480
     12  N         17.6000  -23.2640   -7.7410 N.2     1  UNL1       -0.2400
     13  C         18.7400  -23.1560   -8.4700 C.2     1  UNL1        0.1360
     14  C         15.3680  -23.1320   -5.6570 C.3     1  UNL1        0.1040
     15  C         14.3260  -22.0250   -5.8080 C.3     1  UNL1        0.0340
     16  C         15.0540  -24.0330   -4.4630 C.3     1  UNL1        0.0340
     17  C         21.8040  -22.3330  -11.3220 C.2     1  UNL1        0.0350
     18  C         21.5140  -21.4250  -12.3450 C.2     1  UNL1        0.0290
     19  C         22.3990  -21.2470  -13.4090 C.2     1  UNL1        0.0030
     20  C         23.5880  -21.9740  -13.4590 C.2     1  UNL1        0.0150
     21  C         23.9050  -22.8870  -12.4440 C.2     1  UNL1        0.0140
     22  C         23.0040  -23.0520  -11.3760 C.2     1  UNL1        0.0440
     23  C         25.1470  -23.6580  -12.4590 C.ar    1  UNL1        0.1680
     24  N         25.6510  -24.3590  -13.4590 N.ar    1  UNL1       -0.1420
     25  N         26.8280  -24.9040  -13.0050 N.ar    1  UNL1        0.0180
     26  N         27.0640  -24.5460  -11.7540 N.ar    1  UNL1       -0.0050
     27  N         26.0280  -23.7680  -11.4170 N.ar    1  UNL1       -0.2680
     28  H         26.0000  -23.3510  -10.4970 H       1  UNL1        0.1850
@<TRIPOS>BOND
     1    24    25   ar
     2    24    23   ar
     3    20    19    2
     4    20    21    1
     5    19    18    1
     6    25    26   ar
     7    23    21    1
     8    23    27   ar
     9    21    22    2
    10    18    17    2
    11    26    27   ar
    12    27    28    1
    13    22    17    1
    14    17     3    1
    15     4     3    1
    16     3     1   am
    17     1     2    2
    18     1     5    1
    19    13     5    2
    20    13    12    1
    21     5     6    1
    22    12     9    2
    23     6     7    2
    24     9     7    1
    25     9    11    1
    26     7     8    1
    27    15    14    1
    28    14    11    1
    29    14    16    1
    30    11    10    1
    31     8    10    2
