@<TRIPOS>MOLECULE
68111_out_ligand_01.pdbqt
 37 41 0 0 0
SMALL
GASTEIGER

@<TRIPOS>ATOM
      1  C         17.2050  -22.5170   -5.3530 C.2     1  UNL1        0.0540
      2  C         17.1040  -23.1470   -4.1000 C.2     1  UNL1        0.0190
      3  C         15.9080  -23.7480   -3.6970 C.2     1  UNL1        0.0010
      4  C         14.7980  -23.7300   -4.5360 C.2     1  UNL1        0.0020
      5  C         14.8870  -23.1340   -5.7920 C.2     1  UNL1        0.0250
      6  C         16.0840  -22.5390   -6.2120 C.2     1  UNL1        0.0380
      7  N         16.1470  -22.0430   -7.5610 N.pl3   1  UNL1       -0.1800
      8  H         16.8900  -21.3370   -7.6960 H       1  UNL1        0.1460
      9  S         16.3910  -23.2100   -8.7780 S.O2    1  UNL1        0.2460
     10  O         17.1940  -24.2660   -8.1990 O.2     1  UNL1       -0.2060
     11  O         15.1340  -23.4890   -9.4410 O.2     1  UNL1       -0.2060
     12  C         17.4480  -22.3470   -9.9190 C.2     1  UNL1        0.0770
     13  C         16.9850  -21.1340  -10.4910 C.2     1  UNL1        0.0270
     14  C         17.7780  -20.4290  -11.4030 C.2     1  UNL1        0.0330
     15  C         19.0080  -20.9720  -11.6960 C.ar    1  UNL1        0.0630
     16  N         19.9960  -20.5110  -12.5580 N.ar    1  UNL1       -0.3070
     17  C         19.4610  -22.1580  -11.1190 C.ar    1  UNL1        0.0640
     18  C         21.0760  -21.4060  -12.5280 C.ar    1  UNL1        0.3250
     19  H         19.9770  -19.6790  -13.1250 H       1  UNL1        0.1700
     20  O         22.1110  -21.3180  -13.1630 O.2     1  UNL1       -0.2470
     21  N         20.7280  -22.4230  -11.6270 N.ar    1  UNL1       -0.3060
     22  H         21.3250  -23.2040  -11.4090 H       1  UNL1        0.1700
     23  C         18.7110  -22.8740  -10.2200 C.2     1  UNL1        0.0560
     24  C         18.4590  -21.8120   -5.7790 C.2     1  UNL1        0.2530
     25  O         18.8160  -20.7830   -5.2090 O.2     1  UNL1       -0.2680
     26  N         19.2210  -22.3830   -6.7780 N.am    1  UNL1       -0.3500
     27  H         19.0880  -23.3520   -7.0260 H       1  UNL1        0.1630
     28  C         20.5130  -21.8330   -7.1380 C.3     1  UNL1        0.2030
     29  C         21.1910  -22.7850   -8.0490 C.ar    1  UNL1        0.1520
     30  N         20.8740  -24.0570   -8.2110 N.ar    1  UNL1       -0.1320
     31  N         21.7360  -24.6060   -9.1300 N.ar    1  UNL1       -0.1300
     32  C         22.5730  -23.6630   -9.5080 C.ar    1  UNL1        0.1570
     33  C         23.6610  -23.6550  -10.4230 C.2     1  UNL1        0.0530
     34  N         22.2740  -22.4780   -8.8480 N.ar    1  UNL1       -0.2900
     35  C         24.3580  -22.5170  -10.6150 C.2     1  UNL1        0.0050
     36  C         24.0260  -21.2930   -9.9030 C.2     1  UNL1        0.0180
     37  C         22.9960  -21.2990   -9.0380 C.2     1  UNL1        0.1000
@<TRIPOS>BOND
     1    20    18    2
     2    19    16    1
     3    16    18   ar
     4    16    15   ar
     5    18    21   ar
     6    15    14    2
     7    15    17   ar
     8    21    22    1
     9    21    17   ar
    10    14    13    1
    11    17    23    2
    12    35    33    2
    13    35    36    1
    14    13    12    2
    15    33    32    1
    16    23    12    1
    17    12     9    1
    18    36    37    2
    19    32    31   ar
    20    32    34   ar
    21    11     9    2
    22    31    30   ar
    23    37    34    1
    24    34    29   ar
    25     9    10    2
    26     9     7    1
    27    30    29   ar
    28    29    28    1
    29     8     7    1
    30     7     6    1
    31    28    26    1
    32    27    26    1
    33    26    24   am
    34     6     5    1
    35     6     1    2
    36     5     4    2
    37    24     1    1
    38    24    25    2
    39     1     2    1
    40     4     3    1
    41     2     3    2
