@<TRIPOS>MOLECULE
68128_out_ligand_01.pdbqt
 33 36 0 0 0
SMALL
GASTEIGER

@<TRIPOS>ATOM
      1  C         18.7130  -22.1790  -10.1750 C.2     1  UNL1        0.0870
      2  C         20.0500  -22.6100  -10.1050 C.2     1  UNL1        0.0550
      3  C         21.0080  -22.1220  -10.9990 C.2     1  UNL1        0.0360
      4  C         20.6170  -21.1820  -11.9480 C.2     1  UNL1        0.0300
      5  C         19.2910  -20.7350  -12.0060 C.2     1  UNL1        0.0100
      6  C         18.3140  -21.2260  -11.1270 C.2     1  UNL1       -0.0390
      7  C         16.9060  -20.7170  -11.2580 C.3     1  UNL1        0.0500
      8  N         22.3190  -22.6250  -10.8740 N.am    1  UNL1       -0.3270
      9  C         23.2300  -22.3690   -9.8620 C.2     1  UNL1        0.2280
     10  O         23.0530  -21.6480   -8.8810 O.2     1  UNL1       -0.2730
     11  H         22.6150  -23.2740  -11.5960 H       1  UNL1        0.1690
     12  C         24.5540  -23.0840  -10.0590 C.3     1  UNL1        0.1650
     13  C         25.1440  -22.7260  -11.3700 C.ar    1  UNL1        0.0840
     14  N         25.0900  -23.5910  -12.3940 N.ar    1  UNL1       -0.1310
     15  O         25.7080  -22.9490  -13.4600 O.2     1  UNL1       -0.2120
     16  C         26.1280  -21.7150  -13.0680 C.ar    1  UNL1        0.1130
     17  C         26.7850  -20.7740  -13.8570 C.2     1  UNL1        0.0400
     18  C         25.7980  -21.5220  -11.7380 C.ar    1  UNL1        0.0270
     19  C         27.1200  -19.5670  -13.2300 C.2     1  UNL1        0.0030
     20  C         26.8090  -19.3380  -11.8850 C.2     1  UNL1        0.0010
     21  C         26.1450  -20.3090  -11.1200 C.2     1  UNL1        0.0160
     22  S         17.5610  -22.9100   -9.0240 S.O2    1  UNL1        0.2630
     23  O         16.9830  -24.0800   -9.6520 O.2     1  UNL1       -0.2000
     24  O         16.7050  -21.8710   -8.4890 O.2     1  UNL1       -0.2000
     25  N         18.5690  -23.4740   -7.7850 N.pl3   1  UNL1       -0.2810
     26  H         18.4940  -24.4870   -7.6970 H       1  UNL1        0.1790
     27  C         18.6110  -22.7190   -6.5810 C.2     1  UNL1        0.0430
     28  C         19.4310  -21.5930   -6.5050 C.2     1  UNL1        0.0300
     29  C         19.4390  -20.8180   -5.3450 C.2     1  UNL1        0.0030
     30  C         18.6150  -21.1630   -4.2710 C.2     1  UNL1        0.0070
     31  C         17.7910  -22.2950   -4.3370 C.2     1  UNL1       -0.0600
     32  C         16.9590  -22.6940   -3.1530 C.3     1  UNL1        0.0480
     33  C         17.7990  -23.0770   -5.5010 C.2     1  UNL1        0.0370
@<TRIPOS>BOND
     1    17    19    1
     2    17    16    2
     3    15    16   ar
     4    15    14   ar
     5    19    20    2
     6    16    18   ar
     7    14    13   ar
     8     5     4    2
     9     5     6    1
    10     4     3    1
    11    20    21    1
    12    18    13   ar
    13    18    21    2
    14    11     8    1
    15    13    12    1
    16     7     6    1
    17     6     1    2
    18     3     8    1
    19     3     2    2
    20     8     9   am
    21     1     2    1
    22     1    22    1
    23    12     9    1
    24     9    10    2
    25    23    22    2
    26    22    24    2
    27    22    25    1
    28    25    26    1
    29    25    27    1
    30    27    28    2
    31    27    33    1
    32    28    29    1
    33    33    31    2
    34    29    30    2
    35    31    30    1
    36    31    32    1
