@<TRIPOS>MOLECULE
68137_out_ligand_01.pdbqt
 28 30 0 0 0
SMALL
GASTEIGER

@<TRIPOS>ATOM
      1  C         21.4830  -22.4010   -8.6900 C.2     1  UNL1        0.2560
      2  O         22.4270  -21.8470   -8.1430 O.2     1  UNL1       -0.2670
      3  N         21.3790  -22.7340  -10.0300 N.am    1  UNL1       -0.3230
      4  H         20.4770  -23.0630  -10.3490 H       1  UNL1        0.1690
      5  C         20.2830  -22.7270   -7.8680 C.2     1  UNL1        0.0320
      6  C         19.9090  -21.8380   -6.8540 C.2     1  UNL1        0.0170
      7  C         18.7900  -22.1050   -6.0600 C.2     1  UNL1        0.0100
      8  C         18.0420  -23.2720   -6.2600 C.2     1  UNL1       -0.0400
      9  C         18.4280  -24.1650   -7.2720 C.2     1  UNL1        0.0100
     10  C         19.5470  -23.9010   -8.0670 C.2     1  UNL1        0.0170
     11  C         16.8210  -23.5600   -5.4220 C.3     1  UNL1        0.1610
     12  N         15.6940  -22.7710   -5.8670 N.am    1  UNL1       -0.3570
     13  C         14.8100  -22.2090   -4.9760 C.2     1  UNL1        0.2130
     14  C         13.6440  -21.5100   -5.6220 C.3     1  UNL1        0.1170
     15  O         14.9390  -22.2660   -3.7580 O.2     1  UNL1       -0.2740
     16  H         15.4310  -22.8430   -6.8400 H       1  UNL1        0.1620
     17  C         22.3650  -22.5830  -11.0320 C.2     1  UNL1        0.0370
     18  C         23.6550  -23.1600  -10.9480 C.2     1  UNL1        0.0320
     19  C         24.6040  -22.9920  -11.9680 C.2     1  UNL1        0.0340
     20  C         24.2220  -22.2430  -13.0520 C.ar    1  UNL1        0.0630
     21  N         24.9310  -21.9080  -14.2000 N.ar    1  UNL1       -0.3070
     22  C         22.9550  -21.6750  -13.1450 C.ar    1  UNL1        0.0650
     23  C         24.1090  -21.1240  -15.0220 C.ar    1  UNL1        0.3250
     24  H         25.8750  -22.1660  -14.4330 H       1  UNL1        0.1700
     25  O         24.4000  -20.6520  -16.1060 O.2     1  UNL1       -0.2470
     26  N         22.8830  -20.9890  -14.3530 N.ar    1  UNL1       -0.3060
     27  H         22.1030  -20.4690  -14.7200 H       1  UNL1        0.1700
     28  C         22.0080  -21.8260  -12.1590 C.2     1  UNL1        0.0610
@<TRIPOS>BOND
     1    25    23    2
     2    23    26   ar
     3    23    21   ar
     4    27    26    1
     5    24    21    1
     6    26    22   ar
     7    21    20   ar
     8    22    20   ar
     9    22    28    1
    10    20    19    1
    11    28    17    2
    12    19    18    2
    13    17    18    1
    14    17     3    1
    15     4     3    1
    16     3     1   am
    17     1     2    2
    18     1     5    1
    19    10     5    2
    20    10     9    1
    21     5     6    1
    22     9     8    2
    23     6     7    2
    24    16    12    1
    25     8     7    1
    26     8    11    1
    27    12    11    1
    28    12    13   am
    29    14    13    1
    30    13    15    2
