@<TRIPOS>MOLECULE
68156_out_ligand_01.pdbqt
 31 34 0 0 0
SMALL
GASTEIGER

@<TRIPOS>ATOM
      1  C         20.9770  -24.0090   -8.8340 C.2     1  UNL1        0.2530
      2  O         21.1630  -25.1820   -9.1480 O.2     1  UNL1       -0.2670
      3  N         22.0020  -23.0790   -8.6680 N.am    1  UNL1       -0.3480
      4  C         21.8030  -21.7040   -8.2290 C.3     1  UNL1        0.1530
      5  C         19.5800  -23.5700   -8.6380 C.2     1  UNL1        0.0330
      6  C         18.7810  -23.2650   -9.7430 C.2     1  UNL1        0.0190
      7  C         17.4560  -22.8550   -9.5700 C.2     1  UNL1        0.0310
      8  C         16.9680  -22.7770   -8.2590 C.ar    1  UNL1        0.0430
      9  N         15.7190  -22.4080   -7.8010 N.ar    1  UNL1       -0.3580
     10  C         17.7420  -23.1030   -7.1400 C.ar    1  UNL1       -0.0000
     11  C         15.6870  -22.4830   -6.4380 C.ar    1  UNL1        0.0170
     12  H         14.9500  -22.1310   -8.3940 H       1  UNL1        0.1660
     13  C         14.5000  -22.1850   -5.5930 C.3     1  UNL1        0.0580
     14  C         16.9170  -22.9220   -5.9950 C.ar    1  UNL1       -0.0230
     15  C         14.9280  -22.0790   -4.1160 C.3     1  UNL1        0.0100
     16  C         15.9460  -23.1640   -3.6810 C.3     1  UNL1       -0.0140
     17  C         15.3150  -24.5610   -3.6950 C.3     1  UNL1        0.0100
     18  C         17.2300  -23.1150   -4.5470 C.3     1  UNL1        0.0450
     19  C         19.0730  -23.5160   -7.3320 C.2     1  UNL1        0.0310
     20  C         23.3400  -23.4450   -9.1220 C.3     1  UNL1        0.1640
     21  C         23.7030  -22.7610  -10.4210 C.2     1  UNL1       -0.0400
     22  C         22.7650  -22.6850  -11.4620 C.2     1  UNL1        0.0100
     23  C         23.0800  -22.0370  -12.6600 C.2     1  UNL1        0.0170
     24  C         24.3420  -21.4560  -12.8300 C.2     1  UNL1        0.0310
     25  C         25.2740  -21.5130  -11.7860 C.2     1  UNL1        0.0170
     26  C         24.9590  -22.1630  -10.5910 C.2     1  UNL1        0.0100
     27  C         24.7260  -20.7500  -14.0820 C.2     1  UNL1        0.2490
     28  N         23.7600  -20.5790  -15.0340 N.am    1  UNL1       -0.3660
     29  H         22.9090  -21.1240  -15.0350 H       1  UNL1        0.1590
     30  H         24.0810  -20.2200  -15.9240 H       1  UNL1        0.1590
     31  O         25.8710  -20.3620  -14.2760 O.2     1  UNL1       -0.2680
@<TRIPOS>BOND
     1    30    28    1
     2    29    28    1
     3    28    27   am
     4    31    27    2
     5    27    24    1
     6    24    23    2
     7    24    25    1
     8    23    22    1
     9    25    26    2
    10    22    21    2
    11    26    21    1
    12    21    20    1
    13     6     7    1
    14     6     5    2
    15     7     8    2
    16     2     1    2
    17    20     3    1
    18     1     3   am
    19     1     5    1
    20     3     4    1
    21     5    19    1
    22    12     9    1
    23     8     9   ar
    24     8    10   ar
    25     9    11   ar
    26    19    10    2
    27    10    14   ar
    28    11    14   ar
    29    11    13    1
    30    14    18    1
    31    13    15    1
    32    18    16    1
    33    15    16    1
    34    17    16    1
