@<TRIPOS>MOLECULE
68185_out_ligand_01.pdbqt
 35 38 0 0 0
SMALL
GASTEIGER

@<TRIPOS>ATOM
      1  C         21.5470  -22.4640   -9.5890 C.2     1  UNL1        0.0340
      2  C         22.6830  -22.0100   -8.9030 C.2     1  UNL1        0.0310
      3  C         23.8870  -21.7870   -9.5780 C.2     1  UNL1        0.0270
      4  C         23.9540  -22.0190  -10.9520 C.2     1  UNL1        0.0790
      5  C         22.8290  -22.4560  -11.6530 C.2     1  UNL1        0.0270
      6  C         21.6290  -22.6800  -10.9680 C.2     1  UNL1        0.0310
      7  N         20.3760  -22.6610   -8.8290 N.am    1  UNL1       -0.3260
      8  C         19.9000  -23.8570   -8.2920 C.2     1  UNL1        0.2350
      9  O         20.4750  -24.9390   -8.3710 O.2     1  UNL1       -0.2720
     10  H         19.8610  -21.8240   -8.5810 H       1  UNL1        0.1690
     11  C         18.5390  -23.6710   -7.5760 C.3     1  UNL1        0.1440
     12  C         18.5850  -22.7590   -6.3530 C.2     1  UNL1       -0.0410
     13  C         19.3180  -21.5610   -6.3530 C.2     1  UNL1        0.0080
     14  C         19.3260  -20.7300   -5.2310 C.2     1  UNL1        0.0010
     15  C         18.6020  -21.0800   -4.0950 C.2     1  UNL1        0.0000
     16  C         17.8670  -22.2620   -4.0780 C.2     1  UNL1        0.0010
     17  C         17.8570  -23.0960   -5.1980 C.2     1  UNL1        0.0080
     18  C         17.4080  -23.2950   -8.5360 C.2     1  UNL1       -0.0410
     19  C         16.2050  -24.0210   -8.5110 C.2     1  UNL1        0.0080
     20  C         15.1590  -23.6930   -9.3740 C.2     1  UNL1        0.0010
     21  C         15.2940  -22.6320  -10.2660 C.2     1  UNL1        0.0000
     22  C         16.4750  -21.8920  -10.2910 C.2     1  UNL1        0.0010
     23  C         17.5240  -22.2170   -9.4300 C.2     1  UNL1        0.0080
     24  S         25.4710  -21.7550  -11.8290 S.O2    1  UNL1        0.2590
     25  O         25.6320  -20.3310  -12.0190 O.2     1  UNL1       -0.2010
     26  O         26.5020  -22.5760  -11.2360 O.2     1  UNL1       -0.2010
     27  N         25.1210  -22.3990  -13.3360 N.3     1  UNL1       -0.3100
     28  H         24.1750  -22.2080  -13.6770 H       1  UNL1        0.1720
     29  C         26.1870  -22.9260  -14.1940 C.3     1  UNL1        0.1080
     30  C         26.9170  -21.7910  -14.9170 C.3     1  UNL1        0.0410
     31  C         25.9950  -21.2980  -16.0230 C.3     1  UNL1        0.1420
     32  S         25.1490  -22.7540  -16.6090 S.O2    1  UNL1        0.1460
     33  O         23.7230  -22.5110  -16.5300 O.2     1  UNL1       -0.2280
     34  O         25.7940  -23.2170  -17.8200 O.2     1  UNL1       -0.2280
     35  C         25.6100  -23.8360  -15.2710 C.3     1  UNL1        0.1660
@<TRIPOS>BOND
     1    34    32    2
     2    32    33    2
     3    32    31    1
     4    32    35    1
     5    31    30    1
     6    35    29    1
     7    30    29    1
     8    29    27    1
     9    28    27    1
    10    27    24    1
    11    25    24    2
    12    24    26    2
    13    24     4    1
    14     5     6    1
    15     5     4    2
    16     6     1    2
    17     4     3    1
    18    22    21    2
    19    22    23    1
    20    21    20    1
    21     1     2    1
    22     1     7    1
    23     3     2    2
    24    23    18    2
    25    20    19    2
    26     7    10    1
    27     7     8   am
    28    18    19    1
    29    18    11    1
    30     9     8    2
    31     8    11    1
    32    11    12    1
    33    13    12    2
    34    13    14    1
    35    12    17    1
    36    14    15    2
    37    17    16    2
    38    15    16    1
