@<TRIPOS>MOLECULE
68186_out_ligand_01.pdbqt
 34 37 0 0 0
SMALL
GASTEIGER

@<TRIPOS>ATOM
      1  C         21.1490  -22.0100  -11.2120 C.2     1  UNL1        0.2580
      2  O         21.0110  -21.4400  -12.2860 O.2     1  UNL1       -0.2670
      3  N         22.3420  -22.4290  -10.6560 N.am    1  UNL1       -0.3230
      4  H         22.2850  -22.7510   -9.7000 H       1  UNL1        0.1690
      5  C         23.6290  -22.3940  -11.2300 C.2     1  UNL1        0.0360
      6  C         24.5030  -21.4030  -10.7580 C.2     1  UNL1        0.0290
      7  C         25.8080  -21.3010  -11.2480 C.2     1  UNL1        0.0040
      8  C         26.2530  -22.1910  -12.2180 C.2     1  UNL1        0.0250
      9  C         25.3820  -23.1720  -12.7010 C.2     1  UNL1        0.0820
     10  C         24.0770  -23.2860  -12.2050 C.2     1  UNL1        0.0540
     11  S         25.9830  -24.3390  -13.8950 S.O2    1  UNL1        0.2640
     12  O         24.8850  -25.1080  -14.4350 O.2     1  UNL1       -0.2000
     13  O         27.1210  -25.0090  -13.2940 O.2     1  UNL1       -0.2000
     14  N         26.6350  -23.3870  -15.0960 N.3     1  UNL1       -0.2680
     15  H         27.6430  -23.3090  -15.0160 H       1  UNL1        0.1800
     16  C         25.9490  -22.8100  -16.1570 C.3     1  UNL1        0.1080
     17  N         26.0560  -23.1920  -17.3840 N.3     1  UNL1       -0.2760
     18  C         25.1400  -22.3220  -18.1430 C.3     1  UNL1        0.1510
     19  C         24.8900  -21.1140  -17.2550 C.3     1  UNL1        0.0290
     20  C         24.9920  -21.7010  -15.8670 C.3     1  UNL1        0.0800
     21  C         19.9910  -22.2480  -10.3390 C.2     1  UNL1        0.0560
     22  C         18.6430  -22.2760  -10.7710 C.2     1  UNL1        0.0440
     23  C         17.8300  -22.5080   -9.6810 C.2     1  UNL1        0.0140
     24  N         18.6450  -22.6720   -8.5660 N.pl3   1  UNL1       -0.3190
     25  C         16.3390  -22.4960   -9.6600 C.3     1  UNL1        0.0680
     26  C         19.9780  -22.5590   -8.9790 C.2     1  UNL1        0.0290
     27  C         21.1370  -22.8880   -8.0910 C.3     1  UNL1        0.0700
     28  C         18.2020  -22.9160   -7.2320 C.2     1  UNL1        0.0390
     29  C         17.7260  -24.1830   -6.8730 C.2     1  UNL1        0.0300
     30  C         17.2900  -24.4230   -5.5660 C.2     1  UNL1        0.0090
     31  C         17.3320  -23.4060   -4.6050 C.2     1  UNL1       -0.0620
     32  C         16.8320  -23.6530   -3.2120 C.3     1  UNL1        0.0480
     33  C         17.7940  -22.1390   -4.9740 C.2     1  UNL1        0.0090
     34  C         18.2340  -21.8940   -6.2790 C.2     1  UNL1        0.0300
@<TRIPOS>BOND
     1    18    17    1
     2    18    19    1
     3    17    16    1
     4    19    20    1
     5    16    20    1
     6    16    14    1
     7    14    15    1
     8    14    11    1
     9    12    11    2
    10    11    13    2
    11    11     9    1
    12     9     8    2
    13     9    10    1
    14     2     1    2
    15     8     7    1
    16    10     5    2
    17     7     6    2
    18     5     6    1
    19     5     3    1
    20     1     3   am
    21     1    21    1
    22    22    21    1
    23    22    23    2
    24     3     4    1
    25    21    26    2
    26    23    25    1
    27    23    24    1
    28    26    24    1
    29    26    27    1
    30    24    28    1
    31    28    29    2
    32    28    34    1
    33    29    30    1
    34    34    33    2
    35    30    31    2
    36    33    31    1
    37    31    32    1
