@<TRIPOS>MOLECULE
6821_out_ligand_01.pdbqt
 35 38 0 0 0
SMALL
GASTEIGER

@<TRIPOS>ATOM
      1  C         18.4270  -23.2200   -9.8620 C.3     1  UNL1        0.1290
      2  C         17.7810  -22.5340  -11.0670 C.3     1  UNL1        0.1220
      3  C         18.6100  -21.4110  -11.6510 C.2     1  UNL1        0.2240
      4  O         18.1150  -20.5160  -12.3290 O.2     1  UNL1       -0.2730
      5  N         19.9590  -21.4600  -11.4360 N.am    1  UNL1       -0.3110
      6  C         20.6200  -22.3640  -10.6640 C.ar    1  UNL1        0.1450
      7  N         21.9790  -22.2690  -10.7030 N.ar    1  UNL1       -0.2060
      8  C         22.6270  -23.0930   -9.9500 C.ar    1  UNL1        0.1710
      9  N         22.0420  -24.0180   -9.1480 N.ar    1  UNL1       -0.3020
     10  C         20.6920  -24.1700   -9.0880 C.ar    1  UNL1        0.2580
     11  O         20.1550  -25.0350   -8.4100 O.2     1  UNL1       -0.2670
     12  C         19.9220  -23.2200   -9.9100 C.ar    1  UNL1        0.0700
     13  H         20.5210  -20.7760  -11.9320 H       1  UNL1        0.1700
     14  H         22.6170  -24.6380   -8.5950 H       1  UNL1        0.1710
     15  C         17.9360  -22.5870   -8.5500 C.2     1  UNL1        0.2310
     16  N         18.8460  -22.6580   -7.5050 N.am    1  UNL1       -0.3260
     17  H         19.7450  -23.0690   -7.7110 H       1  UNL1        0.1690
     18  O         16.8360  -22.0440   -8.5120 O.2     1  UNL1       -0.2720
     19  C         18.6870  -22.2040   -6.1710 C.2     1  UNL1        0.0410
     20  C         19.2840  -21.0200   -5.7160 C.2     1  UNL1        0.0300
     21  C         19.1060  -20.5800   -4.4040 C.2     1  UNL1        0.0020
     22  C         18.3260  -21.3170   -3.5260 C.2     1  UNL1        0.0010
     23  C         17.7220  -22.4980   -3.9590 C.2     1  UNL1        0.0090
     24  C         17.8860  -22.9650   -5.2780 C.2     1  UNL1       -0.0320
     25  C         17.2270  -24.2580   -5.7300 C.3     1  UNL1        0.0360
     26  C         15.7410  -24.2200   -6.0670 C.3     1  UNL1        0.0100
     27  S         24.3560  -23.1380   -9.8460 S.3     1  UNL1       -0.0870
     28  C         24.7860  -21.7550  -10.9390 C.3     1  UNL1        0.1210
     29  C         24.8210  -22.1880  -12.3830 C.2     1  UNL1       -0.0490
     30  C         24.3880  -21.3220  -13.3980 C.2     1  UNL1        0.0080
     31  C         24.4060  -21.7280  -14.7350 C.2     1  UNL1        0.0070
     32  C         24.8610  -23.0050  -15.0830 C.2     1  UNL1       -0.0620
     33  C         24.8560  -23.4590  -16.5120 C.3     1  UNL1        0.0480
     34  C         25.2760  -23.8770  -14.0700 C.2     1  UNL1        0.0070
     35  C         25.2570  -23.4730  -12.7330 C.2     1  UNL1        0.0080
@<TRIPOS>BOND
     1    33    32    1
     2    32    31    2
     3    32    34    1
     4    31    30    1
     5    34    35    2
     6    30    29    2
     7    35    29    1
     8    29    28    1
     9     4     3    2
    10    13     5    1
    11     3     5   am
    12     3     2    1
    13     5     6    1
    14     2     1    1
    15    28    27    1
    16     7     6   ar
    17     7     8   ar
    18     6    12   ar
    19     8    27    1
    20     8     9   ar
    21    12     1    1
    22    12    10   ar
    23     1    15    1
    24     9    10   ar
    25     9    14    1
    26    10    11    2
    27    15    18    2
    28    15    16   am
    29    17    16    1
    30    16    19    1
    31    19    20    2
    32    19    24    1
    33    26    25    1
    34    25    24    1
    35    20    21    1
    36    24    23    2
    37    21    22    2
    38    23    22    1
