@<TRIPOS>MOLECULE
68247_out_ligand_01.pdbqt
 29 31 0 0 0
SMALL
GASTEIGER

@<TRIPOS>ATOM
      1  N         20.8300  -22.8610   -9.3730 N.am    1  UNL1       -0.3270
      2  C         20.4750  -24.1170   -8.9090 C.2     1  UNL1        0.2230
      3  O         20.7440  -25.1930   -9.4360 O.2     1  UNL1       -0.2730
      4  H         20.4930  -22.0650   -8.8430 H       1  UNL1        0.1690
      5  C         19.6800  -24.0700   -7.6130 C.3     1  UNL1        0.1170
      6  C         18.8560  -22.7670   -7.5290 C.3     1  UNL1        0.0600
      7  C         17.6270  -22.7430   -8.4410 C.2     1  UNL1       -0.0490
      8  C         17.4750  -21.8350   -9.5020 C.2     1  UNL1        0.0080
      9  C         16.3300  -21.8590  -10.3040 C.2     1  UNL1        0.0010
     10  C         15.3220  -22.7910  -10.0620 C.2     1  UNL1        0.0000
     11  C         15.4590  -23.7060   -9.0220 C.2     1  UNL1        0.0010
     12  C         16.6030  -23.6850   -8.2220 C.2     1  UNL1        0.0080
     13  C         18.5170  -22.4540   -6.0680 C.2     1  UNL1       -0.0490
     14  C         17.8760  -23.3850   -5.2340 C.2     1  UNL1        0.0080
     15  C         17.6150  -23.0810   -3.8940 C.2     1  UNL1        0.0010
     16  C         18.0000  -21.8500   -3.3670 C.2     1  UNL1        0.0000
     17  C         18.6410  -20.9170   -4.1810 C.2     1  UNL1        0.0010
     18  C         18.8960  -21.2170   -5.5220 C.2     1  UNL1        0.0080
     19  C         21.5660  -22.5480  -10.5360 C.2     1  UNL1        0.0340
     20  C         22.8870  -22.9390  -10.7520 C.2     1  UNL1        0.0300
     21  C         23.5490  -22.5810  -11.9350 C.2     1  UNL1        0.0190
     22  C         22.8980  -21.8170  -12.9110 C.2     1  UNL1        0.0320
     23  C         21.5690  -21.4340  -12.7080 C.2     1  UNL1        0.0190
     24  C         20.9100  -21.8000  -11.5260 C.2     1  UNL1        0.0300
     25  C         23.6450  -21.4550  -14.1460 C.2     1  UNL1        0.2490
     26  N         23.2520  -20.3290  -14.8130 N.am    1  UNL1       -0.3660
     27  H         22.6960  -19.6130  -14.3670 H       1  UNL1        0.1590
     28  H         23.8610  -20.0340  -15.5660 H       1  UNL1        0.1590
     29  O         24.6000  -22.1120  -14.5370 O.2     1  UNL1       -0.2680
@<TRIPOS>BOND
     1    28    26    1
     2    26    27    1
     3    26    25   am
     4    29    25    2
     5    25    22    1
     6    22    23    2
     7    22    21    1
     8    23    24    1
     9    21    20    2
    10    24    19    2
    11    20    19    1
    12    19     1    1
    13     9    10    2
    14     9     8    1
    15    10    11    1
    16     8     7    2
    17     3     2    2
    18     1     2   am
    19     1     4    1
    20    11    12    2
    21     2     5    1
    22     7    12    1
    23     7     6    1
    24     5     6    1
    25     6    13    1
    26    13    18    2
    27    13    14    1
    28    18    17    1
    29    14    15    2
    30    17    16    2
    31    15    16    1
