@<TRIPOS>MOLECULE
6825_out_ligand_01.pdbqt
 35 38 0 0 0
SMALL
GASTEIGER

@<TRIPOS>ATOM
      1  O         18.1660  -20.6440  -12.1640 O.2     1  UNL1       -0.2730
      2  C         18.8730  -21.4920  -11.6270 C.2     1  UNL1        0.2240
      3  C         18.3040  -22.7660  -11.0450 C.3     1  UNL1        0.1220
      4  C         19.1850  -23.4040   -9.9710 C.3     1  UNL1        0.1290
      5  C         20.6460  -23.1610  -10.1830 C.ar    1  UNL1        0.0700
      6  C         21.1090  -22.1700  -10.9510 C.ar    1  UNL1        0.1450
      7  N         22.4240  -21.8630  -11.1380 N.ar    1  UNL1       -0.2060
      8  C         23.2760  -22.6120  -10.5260 C.ar    1  UNL1        0.1710
      9  N         22.9400  -23.6590   -9.7290 N.ar    1  UNL1       -0.3020
     10  C         21.6450  -24.0140   -9.5130 C.ar    1  UNL1        0.2580
     11  O         21.3290  -24.9700   -8.8210 O.2     1  UNL1       -0.2670
     12  N         20.2300  -21.3430  -11.5800 N.am    1  UNL1       -0.3110
     13  H         23.6650  -24.2050   -9.2870 H       1  UNL1        0.1710
     14  H         20.6190  -20.5540  -12.0870 H       1  UNL1        0.1700
     15  C         18.7590  -22.9350   -8.5720 C.2     1  UNL1        0.2310
     16  O         19.4960  -22.2030   -7.9200 O.2     1  UNL1       -0.2720
     17  N         17.5410  -23.4380   -8.1370 N.am    1  UNL1       -0.3270
     18  H         17.0480  -24.0750   -8.7500 H       1  UNL1        0.1690
     19  C         16.8990  -23.1800   -6.9050 C.2     1  UNL1        0.0360
     20  C         17.5380  -23.6560   -5.7490 C.2     1  UNL1        0.0320
     21  C         16.9770  -23.4490   -4.4870 C.2     1  UNL1        0.0460
     22  C         15.7730  -22.7650   -4.3740 C.2     1  UNL1        0.1380
     23  F         15.2510  -22.5730   -3.1530 F       1  UNL1       -0.2040
     24  C         15.1260  -22.2890   -5.5120 C.2     1  UNL1        0.0740
     25 CL         13.6300  -21.4460   -5.3730 Cl      1  UNL1       -0.0810
     26  C         15.6870  -22.4950   -6.7760 C.2     1  UNL1        0.0560
     27  S         24.9930  -22.3950  -10.6310 S.3     1  UNL1       -0.0870
     28  C         25.1070  -21.4130  -12.1530 C.3     1  UNL1        0.1240
     29  C         25.1100  -22.2890  -13.3770 C.2     1  UNL1       -0.0100
     30  C         25.7390  -23.5430  -13.3700 C.2     1  UNL1        0.0110
     31  C         25.7410  -24.3420  -14.5170 C.2     1  UNL1        0.0010
     32  C         25.1170  -23.8970  -15.6820 C.2     1  UNL1        0.0030
     33  C         24.4940  -22.6510  -15.7020 C.2     1  UNL1        0.0430
     34  C         24.4970  -21.8590  -14.5570 C.2     1  UNL1        0.1230
     35  F         23.8940  -20.6620  -14.6000 F       1  UNL1       -0.2060
@<TRIPOS>BOND
     1    33    32    2
     2    33    34    1
     3    32    31    1
     4    35    34    1
     5    34    29    2
     6    31    30    2
     7    29    30    1
     8    29    28    1
     9     1     2    2
    10    28    27    1
    11    14    12    1
    12     2    12   am
    13     2     3    1
    14    12     6    1
    15     7     6   ar
    16     7     8   ar
    17     3     4    1
    18     6     5   ar
    19    27     8    1
    20     8     9   ar
    21     5     4    1
    22     5    10   ar
    23     4    15    1
    24     9    10   ar
    25     9    13    1
    26    10    11    2
    27    18    17    1
    28    15    17   am
    29    15    16    2
    30    17    19    1
    31    19    26    2
    32    19    20    1
    33    26    24    1
    34    20    21    2
    35    24    25    1
    36    24    22    2
    37    21    22    1
    38    22    23    1
