@<TRIPOS>MOLECULE
68278_out_ligand_01.pdbqt
 38 42 0 0 0
SMALL
GASTEIGER

@<TRIPOS>ATOM
      1  C         22.4720  -21.8080  -12.5650 C.2     1  UNL1        0.0320
      2  C         22.8320  -22.7100  -11.5600 C.2     1  UNL1        0.0190
      3  C         21.9190  -23.0400  -10.5520 C.2     1  UNL1        0.0300
      4  C         20.6350  -22.4800  -10.5390 C.2     1  UNL1        0.0340
      5  C         20.2730  -21.5980  -11.5590 C.2     1  UNL1        0.0300
      6  C         21.1840  -21.2660  -12.5720 C.2     1  UNL1        0.0190
      7  N         19.7800  -22.8690   -9.4890 N.am    1  UNL1       -0.3260
      8  C         20.0020  -22.7600   -8.1230 C.2     1  UNL1        0.2350
      9  O         21.0250  -22.3070   -7.6090 O.2     1  UNL1       -0.2720
     10  H         18.9210  -23.3250   -9.7740 H       1  UNL1        0.1690
     11  C         18.8200  -23.2130   -7.2320 C.3     1  UNL1        0.1440
     12  C         18.7060  -22.4160   -5.9310 C.2     1  UNL1       -0.0410
     13  C         18.0590  -23.0010   -4.8260 C.2     1  UNL1        0.0080
     14  C         17.9110  -22.3010   -3.6280 C.2     1  UNL1        0.0010
     15  C         18.4010  -21.0030   -3.5150 C.2     1  UNL1        0.0000
     16  C         19.0390  -20.4050   -4.6000 C.2     1  UNL1        0.0010
     17  C         19.1890  -21.1020   -5.8000 C.2     1  UNL1        0.0080
     18  C         17.5050  -23.3730   -8.0030 C.2     1  UNL1       -0.0410
     19  C         17.0830  -22.4590   -8.9850 C.2     1  UNL1        0.0080
     20  C         15.9010  -22.6730   -9.6960 C.2     1  UNL1        0.0010
     21  C         15.1250  -23.8010   -9.4430 C.2     1  UNL1        0.0000
     22  C         15.5310  -24.7200   -8.4770 C.2     1  UNL1        0.0010
     23  C         16.7110  -24.5090   -7.7630 C.2     1  UNL1        0.0080
     24  C         23.4720  -21.4840  -13.6170 C.2     1  UNL1        0.2510
     25  O         23.5030  -20.3580  -14.1020 O.2     1  UNL1       -0.2680
     26  N         24.2970  -22.5160  -14.0100 N.am    1  UNL1       -0.3540
     27  H         24.1940  -23.4290  -13.5930 H       1  UNL1        0.1620
     28  C         25.4190  -22.2990  -14.9130 C.3     1  UNL1        0.1590
     29  C         26.7780  -22.2530  -14.1690 C.3     1  UNL1        0.1720
     30  O         27.0590  -23.4980  -13.5000 O.3     1  UNL1       -0.3790
     31  C         26.3500  -23.6330  -12.2680 C.3     1  UNL1        0.1730
     32  C         26.8810  -22.6200  -11.2610 C.3     1  UNL1        0.0650
     33  C         26.8860  -21.2300  -11.8420 C.2     1  UNL1       -0.0470
     34  C         26.9720  -20.1150  -10.9980 C.2     1  UNL1        0.0080
     35  C         26.8760  -21.0540  -13.2380 C.2     1  UNL1       -0.0210
     36  C         27.0300  -18.8300  -11.5330 C.2     1  UNL1        0.0010
     37  C         27.0200  -18.6480  -12.9140 C.2     1  UNL1        0.0010
     38  C         26.9460  -19.7530  -13.7630 C.2     1  UNL1        0.0100
@<TRIPOS>BOND
     1    28    29    1
     2    28    26    1
     3    29    30    1
     4    29    35    1
     5    25    24    2
     6    26    24   am
     7    26    27    1
     8    38    35    1
     9    38    37    2
    10    24     1    1
    11    30    31    1
    12    35    33    2
    13    37    36    1
    14     6     1    2
    15     6     5    1
    16     1     2    1
    17    31    32    1
    18    33    32    1
    19    33    34    1
    20     2     3    2
    21     5     4    2
    22    36    34    2
    23     3     4    1
    24     4     7    1
    25    10     7    1
    26    20    21    2
    27    20    19    1
    28     7     8   am
    29    21    22    1
    30    19    18    2
    31    22    23    2
    32     8     9    2
    33     8    11    1
    34    18    23    1
    35    18    11    1
    36    11    12    1
    37    12    17    2
    38    12    13    1
    39    17    16    1
    40    13    14    2
    41    16    15    2
    42    14    15    1
