@<TRIPOS>MOLECULE
6827_out_ligand_01.pdbqt
 33 37 0 0 0
SMALL
GASTEIGER

@<TRIPOS>ATOM
      1  N         23.2990  -23.4840  -10.5260 N.pl3   1  UNL1       -0.3400
      2  H         24.1790  -23.7800  -10.1010 H       1  UNL1        0.1670
      3  C         22.4070  -23.0950   -9.4920 C.2     1  UNL1        0.0330
      4  C         22.5900  -21.9550   -8.6960 C.2     1  UNL1        0.0300
      5  C         21.6520  -21.5990   -7.7190 C.2     1  UNL1        0.0190
      6  C         20.5070  -22.3780   -7.5260 C.2     1  UNL1        0.0320
      7  C         20.3000  -23.4990   -8.3350 C.2     1  UNL1        0.0190
      8  C         21.2400  -23.8500   -9.3080 C.2     1  UNL1        0.0300
      9  C         19.4760  -22.0390   -6.5040 C.2     1  UNL1        0.2520
     10  O         19.6120  -21.0410   -5.8060 O.2     1  UNL1       -0.2680
     11  N         18.3840  -22.8800   -6.4300 N.am    1  UNL1       -0.3520
     12  H         18.2160  -23.5080   -7.2030 H       1  UNL1        0.1630
     13  C         17.2530  -22.5730   -5.5640 C.3     1  UNL1        0.0840
     14  C         17.2100  -23.5500   -4.3840 C.3     1  UNL1        0.0250
     15  C         16.0040  -23.2900   -3.4840 C.3     1  UNL1        0.0020
     16  C         14.6970  -23.3200   -4.2740 C.3     1  UNL1        0.0000
     17  C         14.7330  -22.3550   -5.4560 C.3     1  UNL1        0.0020
     18  C         15.9390  -22.6070   -6.3570 C.3     1  UNL1        0.0250
     19  C         23.4070  -22.8600  -11.7330 C.ar    1  UNL1        0.1440
     20  C         22.5520  -22.0130  -12.4340 C.ar    1  UNL1        0.1140
     21  N         23.1440  -21.5410  -13.5900 N.ar    1  UNL1       -0.2250
     22  C         24.3370  -22.0870  -13.5860 C.ar    1  UNL1        0.1530
     23  C         25.3900  -21.9340  -14.5500 C.2     1  UNL1        0.1670
     24  N         24.5670  -22.8720  -12.4850 N.ar    1  UNL1       -0.2880
     25  N         26.5550  -22.5080  -14.3980 N.2     1  UNL1       -0.2680
     26  C         26.7470  -23.2670  -13.2530 C.2     1  UNL1        0.1340
     27  C         25.8090  -23.4620  -12.3110 C.2     1  UNL1        0.1190
     28  C         21.2070  -21.6240  -12.0420 C.2     1  UNL1       -0.0040
     29  C         20.9630  -20.3050  -11.6380 C.2     1  UNL1        0.0140
     30  C         19.6810  -19.9040  -11.2560 C.2     1  UNL1        0.0010
     31  C         18.6290  -20.8170  -11.2840 C.2     1  UNL1        0.0000
     32  C         18.8550  -22.1280  -11.7000 C.2     1  UNL1        0.0010
     33  C         20.1370  -22.5300  -12.0810 C.2     1  UNL1        0.0140
@<TRIPOS>BOND
     1    23    25    2
     2    23    22    1
     3    25    26    1
     4    21    22   ar
     5    21    20   ar
     6    22    24   ar
     7    26    27    2
     8    24    27    1
     9    24    19   ar
    10    20    28    1
    11    20    19   ar
    12    33    28    2
    13    33    32    1
    14    28    29    1
    15    19     1    1
    16    32    31    2
    17    29    30    2
    18    31    30    1
    19     1     2    1
    20     1     3    1
    21     3     8    2
    22     3     4    1
    23     8     7    1
    24     4     5    2
    25     7     6    2
    26     5     6    1
    27     6     9    1
    28    12    11    1
    29     9    11   am
    30     9    10    2
    31    11    13    1
    32    18    13    1
    33    18    17    1
    34    13    14    1
    35    17    16    1
    36    14    15    1
    37    16    15    1
