@<TRIPOS>MOLECULE
68272_out_ligand_01.pdbqt
 29 32 0 0 0
SMALL
GASTEIGER

@<TRIPOS>ATOM
      1  N         19.4790  -22.5260   -9.2850 N.am    1  UNL1       -0.2430
      2  C         20.6590  -23.2310   -9.1810 C.2     1  UNL1        0.2660
      3  O         21.0330  -24.0900   -8.4030 O.2     1  UNL1       -0.2670
      4  C         21.4840  -22.8510  -10.3240 C.2     1  UNL1        0.0480
      5  C         22.7680  -23.2370  -10.6660 C.2     1  UNL1        0.0190
      6  C         23.3060  -22.7140  -11.8480 C.2     1  UNL1        0.0180
      7  C         22.5460  -21.8370  -12.6600 C.2     1  UNL1        0.0330
      8  C         21.2500  -21.4570  -12.2800 C.2     1  UNL1        0.0350
      9  C         20.7480  -21.9900  -11.1070 C.2     1  UNL1        0.0490
     10  C         19.4510  -21.8060  -10.4630 C.2     1  UNL1        0.2660
     11  O         18.5890  -21.1060  -10.9640 O.2     1  UNL1       -0.2670
     12  C         23.1080  -21.2610  -13.9130 C.2     1  UNL1        0.2560
     13  O         22.5740  -20.2600  -14.3720 O.2     1  UNL1       -0.2670
     14  N         24.1750  -21.9560  -14.4500 N.am    1  UNL1       -0.3220
     15  H         24.4200  -22.8380  -14.0200 H       1  UNL1        0.1690
     16  C         24.9150  -21.6130  -15.6040 C.2     1  UNL1        0.0520
     17  C         25.8000  -20.5420  -15.6850 C.2     1  UNL1        0.0320
     18  C         26.4860  -20.2960  -16.8750 C.2     1  UNL1        0.0210
     19  C         26.2660  -21.1360  -17.9540 C.2     1  UNL1        0.1160
     20  N         25.4220  -22.1880  -17.9180 N.2     1  UNL1       -0.2710
     21  C         24.7700  -22.3970  -16.7490 C.2     1  UNL1        0.1450
     22  C         18.3740  -22.6460   -8.3930 C.2     1  UNL1        0.0510
     23  C         17.1670  -23.1800   -8.8830 C.2     1  UNL1        0.0310
     24  C         16.0600  -23.3870   -8.0540 C.2     1  UNL1        0.0090
     25  C         16.1260  -23.0680   -6.7010 C.2     1  UNL1       -0.0610
     26  C         14.9390  -23.2670   -5.8080 C.3     1  UNL1        0.0480
     27  C         17.3000  -22.4910   -6.2090 C.2     1  UNL1        0.0150
     28  C         18.4190  -22.2520   -7.0370 C.2     1  UNL1       -0.0340
     29  C         19.5730  -21.5260   -6.3980 C.3     1  UNL1        0.0500
@<TRIPOS>BOND
     1    19    20    2
     2    19    18    1
     3    20    21    1
     4    18    17    2
     5    21    16    2
     6    17    16    1
     7    16    14    1
     8    14    15    1
     9    14    12   am
    10    13    12    2
    11    12     7    1
    12     7     8    2
    13     7     6    1
    14     8     9    1
    15     6     5    2
    16     9    10    1
    17     9     4    2
    18    11    10    2
    19     5     4    1
    20    10     1   am
    21     4     2    1
    22     1     2   am
    23     1    22    1
    24     2     3    2
    25    23    22    2
    26    23    24    1
    27    22    28    1
    28    24    25    2
    29    28    29    1
    30    28    27    2
    31    25    27    1
    32    25    26    1
