@<TRIPOS>MOLECULE
68287_out_ligand_01.pdbqt
 33 36 0 0 0
SMALL
GASTEIGER

@<TRIPOS>ATOM
      1  C         23.2200  -22.0370  -11.3950 C.2     1  UNL1        0.0800
      2  C         21.9000  -22.1090  -11.8410 C.2     1  UNL1        0.0270
      3  C         20.8630  -22.1950  -10.9090 C.2     1  UNL1        0.0310
      4  C         21.1350  -22.2130   -9.5320 C.2     1  UNL1        0.0350
      5  C         22.4630  -22.1550   -9.1020 C.2     1  UNL1        0.0310
      6  C         23.5080  -22.0710  -10.0300 C.2     1  UNL1        0.0270
      7  N         20.0280  -22.3100   -8.6650 N.am    1  UNL1       -0.3210
      8  C         19.4050  -23.4600   -8.2020 C.2     1  UNL1        0.2800
      9  O         19.8010  -24.6010   -8.4210 O.2     1  UNL1       -0.2650
     10  H         19.6980  -21.4400   -8.2730 H       1  UNL1        0.1690
     11  C         18.2350  -23.1920   -7.3760 C.ar    1  UNL1        0.1500
     12  O         18.4350  -23.1330   -6.0220 O.2     1  UNL1       -0.3040
     13  C         17.2430  -22.8520   -5.4380 C.ar    1  UNL1        0.0870
     14  C         17.0350  -22.6980   -4.0700 C.2     1  UNL1        0.0380
     15  C         16.2500  -22.7410   -6.3990 C.ar    1  UNL1        0.0070
     16  C         15.7270  -22.4120   -3.6660 C.2     1  UNL1        0.0030
     17  C         14.6950  -22.2930   -4.5990 C.2     1  UNL1        0.0010
     18  C         14.9390  -22.4570   -5.9710 C.2     1  UNL1        0.0150
     19  C         16.8870  -22.9790   -7.6600 C.ar    1  UNL1       -0.0090
     20  C         16.2120  -23.0240   -8.9830 C.3     1  UNL1        0.0520
     21  S         24.5550  -21.9550  -12.5650 S.O2    1  UNL1        0.2760
     22  O         25.5290  -21.0390  -12.0050 O.2     1  UNL1       -0.2000
     23  O         24.9520  -23.2990  -12.9310 O.2     1  UNL1       -0.2000
     24  N         23.8920  -21.1790  -13.8720 N.pl3   1  UNL1       -0.1090
     25  H         23.5920  -20.2300  -13.6820 H       1  UNL1        0.1980
     26  C         24.5290  -21.3220  -15.0980 C.cat   1  UNL1        0.7360
     27  N         24.0920  -22.2460  -15.9520 N.2     1  UNL1       -0.0670
     28  C         24.6450  -22.2260  -17.1800 C.2     1  UNL1        0.0510
     29  C         25.5790  -21.2770  -17.5520 C.2     1  UNL1        0.0540
     30  C         24.1990  -23.2740  -18.1530 C.3     1  UNL1        0.0710
     31  C         25.9200  -20.3330  -16.6010 C.2     1  UNL1        0.0510
     32  C         26.9100  -19.2560  -16.9260 C.3     1  UNL1        0.0710
     33  N         25.3830  -20.3300  -15.3660 N.2     1  UNL1       -0.0670
@<TRIPOS>BOND
     1    30    28    1
     2    29    28    2
     3    29    31    1
     4    28    27    1
     5    32    31    1
     6    31    33    2
     7    27    26    2
     8    33    26    1
     9    26    24    1
    10    24    25    1
    11    24    21    1
    12    23    21    2
    13    21    22    2
    14    21     1    1
    15     2     1    2
    16     2     3    1
    17     1     6    1
    18     3     4    2
    19     6     5    2
    20     4     5    1
    21     4     7    1
    22    20    19    1
    23     7    10    1
    24     7     8   am
    25     9     8    2
    26     8    11    1
    27    19    11   ar
    28    19    15   ar
    29    11    12   ar
    30    15    18    1
    31    15    13   ar
    32    12    13   ar
    33    18    17    2
    34    13    14    1
    35    17    16    1
    36    14    16    2
