@<TRIPOS>MOLECULE
68289_out_ligand_01.pdbqt
 41 44 0 0 0
SMALL
GASTEIGER

@<TRIPOS>ATOM
      1  C         20.3250  -23.7220   -9.1490 C.ar    1  UNL1        0.1610
      2  N         21.6080  -24.0830   -8.9390 N.ar    1  UNL1       -0.1310
      3  N         22.6290  -23.5070   -9.6430 N.ar    1  UNL1       -0.1470
      4  C         22.3640  -22.5570  -10.5650 C.ar    1  UNL1        0.1000
      5  C         21.0520  -22.1190  -10.8240 C.ar    1  UNL1        0.0090
      6  C         20.7370  -21.1070  -11.7660 C.2     1  UNL1        0.0150
      7  C         19.4220  -20.6950  -11.9860 C.2     1  UNL1        0.0010
      8  C         18.3910  -21.2760  -11.2640 C.2     1  UNL1        0.0010
      9  C         18.6770  -22.2700  -10.3280 C.2     1  UNL1        0.0160
     10  C         20.0020  -22.7180  -10.0920 C.ar    1  UNL1        0.0240
     11  C         23.5550  -22.0470  -11.2550 C.2     1  UNL1       -0.0030
     12  C         24.6180  -21.4850  -10.5360 C.2     1  UNL1        0.0140
     13  C         25.7570  -21.0090  -11.1920 C.2     1  UNL1        0.0090
     14  C         25.8750  -21.0870  -12.5890 C.2     1  UNL1       -0.0390
     15  C         27.1180  -20.5380  -13.2310 C.3     1  UNL1        0.0500
     16  C         24.8020  -21.6400  -13.3140 C.2     1  UNL1        0.0860
     17  C         23.6530  -22.1040  -12.6520 C.2     1  UNL1        0.0390
     18  S         24.8350  -21.7770  -15.0930 S.O2    1  UNL1        0.2590
     19  O         26.0750  -22.3950  -15.5050 O.2     1  UNL1       -0.2010
     20  O         23.5560  -22.2790  -15.5430 O.2     1  UNL1       -0.2010
     21  N         24.9040  -20.1650  -15.5690 N.3     1  UNL1       -0.3130
     22  H         23.9760  -19.7500  -15.6390 H       1  UNL1        0.1720
     23  C         25.9310  -19.7770  -16.5410 C.3     1  UNL1        0.1580
     24  C         25.3430  -19.7720  -17.9530 C.3     1  UNL1        0.1840
     25  O         23.9220  -19.7640  -17.9140 O.3     1  UNL1       -0.3990
     26  H         23.6350  -18.8610  -17.6900 H       1  UNL1        0.2090
     27  N         19.2760  -24.3820   -8.4480 N.pl3   1  UNL1       -0.3390
     28  H         19.5470  -25.3500   -8.3210 H       1  UNL1        0.1670
     29  C         18.5460  -23.8850   -7.3470 C.2     1  UNL1        0.0340
     30  C         17.2940  -24.4330   -7.0530 C.2     1  UNL1        0.0320
     31  C         16.5130  -23.9340   -6.0030 C.2     1  UNL1        0.0400
     32  C         16.9520  -22.8500   -5.2320 C.2     1  UNL1        0.0840
     33  C         18.1930  -22.2590   -5.5440 C.2     1  UNL1        0.0670
     34  C         18.9670  -22.7810   -6.6010 C.2     1  UNL1        0.0490
     35  O         16.2210  -22.3170   -4.2000 O.2     1  UNL1       -0.3550
     36  C         14.8110  -22.2200   -4.3620 C.3     1  UNL1        0.2100
     37  C         18.7670  -21.0710   -4.8360 C.2     1  UNL1        0.2520
     38  N         18.5740  -20.9620   -3.4890 N.am    1  UNL1       -0.3660
     39  H         17.9410  -21.5850   -3.0030 H       1  UNL1        0.1590
     40  H         18.8940  -20.1190   -3.0330 H       1  UNL1        0.1590
     41  O         19.3970  -20.2030   -5.4310 O.2     1  UNL1       -0.2680
@<TRIPOS>BOND
     1    24    25    1
     2    24    23    1
     3    25    26    1
     4    23    21    1
     5    22    21    1
     6    21    18    1
     7    20    18    2
     8    19    18    2
     9    18    16    1
    10    16    17    1
    11    16    14    2
    12    15    14    1
    13    17    11    2
    14    14    13    1
    15     7     6    2
    16     7     8    1
    17     6     5    1
    18     8     9    2
    19    11     4    1
    20    11    12    1
    21    13    12    2
    22     5     4   ar
    23     5    10   ar
    24     4     3   ar
    25     9    10    1
    26    10     1   ar
    27     3     2   ar
    28     1     2   ar
    29     1    27    1
    30    27    28    1
    31    27    29    1
    32    29    30    2
    33    29    34    1
    34    30    31    1
    35    34    33    2
    36    31    32    2
    37    33    32    1
    38    33    37    1
    39    41    37    2
    40    32    35    1
    41    37    38   am
    42    36    35    1
    43    38    40    1
    44    38    39    1
