@<TRIPOS>MOLECULE
6829_out_ligand_01.pdbqt
 35 38 0 0 0
SMALL
GASTEIGER

@<TRIPOS>ATOM
      1  N         23.7990  -22.1630  -11.3210 N.am    1  UNL1       -0.3170
      2  C         24.6380  -21.4090  -10.4100 C.3     1  UNL1        0.1460
      3  C         26.0080  -21.4260  -11.0530 C.3     1  UNL1        0.1050
      4  C         26.0310  -22.7070  -11.8700 C.3     1  UNL1        0.1190
      5  C         24.5750  -22.9800  -12.1580 C.2     1  UNL1        0.2250
      6  O         24.2070  -23.7940  -12.9900 O.2     1  UNL1       -0.2730
      7  C         22.3780  -22.1330  -11.2540 C.2     1  UNL1        0.0380
      8  C         21.6030  -21.5170  -12.2460 C.2     1  UNL1        0.0300
      9  C         20.2070  -21.4650  -12.1560 C.2     1  UNL1        0.0030
     10  C         19.5510  -22.0440  -11.0730 C.2     1  UNL1        0.0170
     11  C         20.2990  -22.6850  -10.0840 C.2     1  UNL1        0.0340
     12  C         21.7010  -22.7120  -10.1690 C.2     1  UNL1        0.0460
     13  C         19.6530  -23.3270   -8.9040 C.2     1  UNL1        0.2560
     14  N         18.7130  -22.5450   -8.2590 N.am    1  UNL1       -0.3230
     15  H         18.4650  -21.6670   -8.6950 H       1  UNL1        0.1690
     16  O         19.9710  -24.4780   -8.6320 O.2     1  UNL1       -0.2670
     17  C         17.9760  -22.8740   -7.1010 C.2     1  UNL1        0.0350
     18  C         16.9410  -23.8070   -7.0730 C.2     1  UNL1        0.0300
     19  C         16.2640  -24.0830   -5.8780 C.2     1  UNL1        0.0090
     20  C         16.6100  -23.4260   -4.6940 C.2     1  UNL1       -0.0620
     21  C         15.9010  -23.7300   -3.4080 C.3     1  UNL1        0.0480
     22  C         17.6550  -22.4990   -4.7190 C.2     1  UNL1        0.0090
     23  C         18.3310  -22.2250   -5.9120 C.2     1  UNL1        0.0300
     24  C         26.2810  -20.1930  -11.9120 C.2     1  UNL1        0.2280
     25  O         26.6000  -19.1430  -11.3590 O.2     1  UNL1       -0.2730
     26  N         26.1640  -20.4020  -13.2740 N.am    1  UNL1       -0.3260
     27  H         25.8510  -21.3190  -13.5670 H       1  UNL1        0.1690
     28  C         26.3860  -19.4830  -14.3300 C.2     1  UNL1        0.0410
     29  C         26.9200  -18.2100  -14.1040 C.2     1  UNL1        0.0300
     30  C         27.1210  -17.3190  -15.1560 C.2     1  UNL1        0.0030
     31  C         26.7870  -17.6870  -16.4530 C.2     1  UNL1        0.0070
     32  C         26.2490  -18.9520  -16.7230 C.2     1  UNL1       -0.0540
     33  C         25.9090  -19.2890  -18.1520 C.3     1  UNL1        0.0490
     34  C         26.0550  -19.8710  -15.6590 C.2     1  UNL1       -0.0290
     35  C         25.4850  -21.2450  -15.9350 C.3     1  UNL1        0.0510
@<TRIPOS>BOND
     1    33    32    1
     2    32    31    2
     3    32    34    1
     4    31    30    1
     5    35    34    1
     6    34    28    2
     7    30    29    2
     8    28    29    1
     9    28    26    1
    10    27    26    1
    11    26    24   am
    12     6     5    2
    13     8     9    1
    14     8     7    2
    15     5     4    1
    16     5     1   am
    17     9    10    2
    18    24    25    2
    19    24     3    1
    20     4     3    1
    21     1     7    1
    22     1     2    1
    23     7    12    1
    24    10    11    1
    25     3     2    1
    26    12    11    2
    27    11    13    1
    28    13    16    2
    29    13    14   am
    30    15    14    1
    31    14    17    1
    32    17    18    2
    33    17    23    1
    34    18    19    1
    35    23    22    2
    36    19    20    2
    37    22    20    1
    38    20    21    1
