@<TRIPOS>MOLECULE
68291_out_ligand_01.pdbqt
 30 33 0 0 0
SMALL
GASTEIGER

@<TRIPOS>ATOM
      1  C         18.9510  -23.2520   -9.1520 C.2     1  UNL1        0.0320
      2  C         19.8840  -24.0470   -8.4810 C.2     1  UNL1        0.0190
      3  C         21.2240  -24.0700   -8.8900 C.2     1  UNL1        0.0300
      4  C         21.6430  -23.3070   -9.9810 C.2     1  UNL1        0.0340
      5  C         20.7000  -22.5250  -10.6620 C.2     1  UNL1        0.0300
      6  C         19.3620  -22.4970  -10.2560 C.2     1  UNL1        0.0190
      7  N         22.9650  -23.2760  -10.4590 N.am    1  UNL1       -0.3250
      8  C         23.9030  -22.2650  -10.3170 C.2     1  UNL1        0.2540
      9  O         23.7450  -21.2100   -9.7070 O.2     1  UNL1       -0.2700
     10  H         23.2650  -24.0570  -11.0340 H       1  UNL1        0.1690
     11  C         25.2620  -22.6360  -10.9440 C.3     1  UNL1        0.2450
     12  C         26.2070  -21.4420  -10.9870 C.3     1  UNL1        0.2180
     13  O         25.7900  -20.4640  -11.9470 O.2     1  UNL1       -0.3450
     14  C         25.4160  -21.0390  -13.1300 C.2     1  UNL1        0.1020
     15  C         25.3170  -20.1940  -14.2330 C.2     1  UNL1        0.0390
     16  C         25.1290  -22.3990  -13.2630 C.2     1  UNL1        0.1030
     17  C         24.9600  -20.7130  -15.4790 C.2     1  UNL1        0.0030
     18  C         24.7010  -22.0770  -15.6190 C.2     1  UNL1        0.0030
     19  C         24.7860  -22.9210  -14.5100 C.2     1  UNL1        0.0400
     20  O         25.1530  -23.2830  -12.2170 O.2     1  UNL1       -0.3310
     21  C         17.5380  -23.2590   -8.6810 C.2     1  UNL1        0.2510
     22  O         16.7140  -22.5100   -9.1930 O.2     1  UNL1       -0.2680
     23  N         17.2320  -24.1630   -7.6870 N.am    1  UNL1       -0.3510
     24  H         17.8720  -24.9260   -7.5110 H       1  UNL1        0.1630
     25  C         15.8620  -24.3830   -7.2790 C.3     1  UNL1        0.1870
     26  C         15.6370  -23.6730   -5.9970 C.2     1  UNL1        0.0700
     27  C         15.0010  -22.4930   -5.6710 C.2     1  UNL1        0.0360
     28  C         15.1080  -22.3560   -4.2670 C.2     1  UNL1        0.0270
     29  C         15.7970  -23.4610   -3.8260 C.2     1  UNL1        0.1420
     30  O         16.1200  -24.2690   -4.8690 O.2     1  UNL1       -0.3250
@<TRIPOS>BOND
     1    18    17    2
     2    18    19    1
     3    17    15    1
     4    19    16    2
     5    15    14    2
     6    16    14    1
     7    16    20    1
     8    14    13    1
     9    20    11    1
    10    13    12    1
    11    10     7    1
    12    12    11    1
    13    11     8    1
    14     5     6    1
    15     5     4    2
    16     7     8   am
    17     7     4    1
    18     8     9    2
    19     6     1    2
    20     4     3    1
    21    22    21    2
    22     1    21    1
    23     1     2    1
    24     3     2    2
    25    21    23   am
    26    23    24    1
    27    23    25    1
    28    25    26    1
    29    26    27    2
    30    26    30    1
    31    27    28    1
    32    30    29    1
    33    28    29    2
