@<TRIPOS>MOLECULE
68305_out_ligand_01.pdbqt
 40 43 0 0 0
SMALL
GASTEIGER

@<TRIPOS>ATOM
      1  C         22.3670  -22.6610  -10.4820 C.ar    1  UNL1        0.1000
      2  N         22.6470  -23.6850   -9.6440 N.ar    1  UNL1       -0.1470
      3  N         21.6420  -24.3170   -8.9700 N.ar    1  UNL1       -0.1310
      4  C         20.3570  -23.9300   -9.1180 C.ar    1  UNL1        0.1610
      5  C         20.0140  -22.8720   -9.9940 C.ar    1  UNL1        0.0240
      6  C         18.6770  -22.4550  -10.2190 C.2     1  UNL1        0.0160
      7  C         18.3700  -21.4000  -11.0780 C.2     1  UNL1        0.0010
      8  C         19.3910  -20.7330  -11.7400 C.2     1  UNL1        0.0010
      9  C         20.7130  -21.1270  -11.5440 C.2     1  UNL1        0.0150
     10  C         21.0500  -22.2070  -10.6890 C.ar    1  UNL1        0.0090
     11  C         23.5550  -22.0980  -11.1370 C.2     1  UNL1       -0.0030
     12  C         24.5580  -21.4520  -10.4030 C.2     1  UNL1        0.0140
     13  C         25.6940  -20.9370  -11.0370 C.2     1  UNL1        0.0090
     14  C         25.8600  -21.0360  -12.4290 C.2     1  UNL1       -0.0390
     15  C         27.1120  -20.4790  -13.0400 C.3     1  UNL1        0.0500
     16  C         24.8310  -21.6400  -13.1750 C.2     1  UNL1        0.0860
     17  C         23.7010  -22.1740  -12.5290 C.2     1  UNL1        0.0390
     18  S         24.8810  -21.7880  -14.9520 S.O2    1  UNL1        0.2600
     19  O         25.8600  -22.7710  -15.3500 O.2     1  UNL1       -0.2000
     20  O         23.5030  -21.8740  -15.3870 O.2     1  UNL1       -0.2000
     21  N         25.4150  -20.2890  -15.4740 N.3     1  UNL1       -0.3070
     22  H         24.9490  -19.5350  -14.9730 H       1  UNL1        0.1730
     23  C         25.9490  -19.9910  -16.8190 C.3     1  UNL1        0.0290
     24  C         27.0980  -20.9960  -17.0610 C.3     1  UNL1        0.0380
     25  C         26.5400  -18.5680  -16.8660 C.3     1  UNL1        0.0380
     26  C         24.8990  -20.1880  -17.9160 C.3     1  UNL1        0.0380
     27  N         19.3300  -24.5680   -8.3690 N.pl3   1  UNL1       -0.3390
     28  H         18.8780  -25.2610   -8.9640 H       1  UNL1        0.1670
     29  C         18.4320  -23.9970   -7.4430 C.2     1  UNL1        0.0330
     30  C         17.1120  -24.4790   -7.3940 C.2     1  UNL1        0.0310
     31  C         16.2110  -24.0230   -6.4250 C.2     1  UNL1        0.0270
     32  C         16.6370  -23.0940   -5.4710 C.2     1  UNL1        0.0740
     33  C         17.9420  -22.6000   -5.4980 C.2     1  UNL1        0.0270
     34  C         18.8340  -23.0670   -6.4700 C.2     1  UNL1        0.0310
     35  S         15.5240  -22.5480   -4.2010 S.O2    1  UNL1        0.2390
     36  O         14.6300  -21.5730   -4.7720 O.2     1  UNL1       -0.2060
     37  O         15.0570  -23.7050   -3.4750 O.2     1  UNL1       -0.2060
     38  N         16.5710  -21.7490   -3.1530 N.3     1  UNL1       -0.2250
     39  H         16.7850  -20.7960   -3.4460 H       1  UNL1        0.1360
     40  H         17.4130  -22.3150   -3.0260 H       1  UNL1        0.1360
@<TRIPOS>BOND
     1    26    23    1
     2    24    23    1
     3    25    23    1
     4    23    21    1
     5    21    22    1
     6    21    18    1
     7    20    18    2
     8    19    18    2
     9    18    16    1
    10    16    17    1
    11    16    14    2
    12    15    14    1
    13    17    11    2
    14    14    13    1
    15     8     9    2
    16     8     7    1
    17     9    10    1
    18    11     1    1
    19    11    12    1
    20     7     6    2
    21    13    12    2
    22    10     1   ar
    23    10     5   ar
    24     1     2   ar
    25     6     5    1
    26     5     4   ar
    27     2     3   ar
    28     4     3   ar
    29     4    27    1
    30    28    27    1
    31    27    29    1
    32    29    30    2
    33    29    34    1
    34    30    31    1
    35    34    33    2
    36    31    32    2
    37    33    32    1
    38    32    35    1
    39    36    35    2
    40    35    37    2
    41    35    38    1
    42    39    38    1
    43    38    40    1
