@<TRIPOS>MOLECULE
68302_out_ligand_01.pdbqt
 32 35 0 0 0
SMALL
GASTEIGER

@<TRIPOS>ATOM
      1  C         27.0770  -23.9290  -11.9300 C.3     1  UNL1        0.1630
      2  N         25.9500  -23.2260  -12.5110 N.ar    1  UNL1       -0.2860
      3  C         25.8870  -22.9920  -13.8800 C.ar    1  UNL1        0.3300
      4  O         26.7540  -23.3440  -14.6800 O.2     1  UNL1       -0.2460
      5  N         24.7770  -22.3180  -14.3530 N.ar    1  UNL1       -0.2730
      6  C         23.7340  -21.8030  -13.6140 C.ar    1  UNL1        0.2800
      7  O         22.8430  -21.1400  -14.1330 O.2     1  UNL1       -0.2650
      8  C         23.8500  -22.1010  -12.2270 C.ar    1  UNL1        0.1660
      9  C         24.9170  -22.7780  -11.7160 C.ar    1  UNL1        0.1860
     10  N         24.8200  -22.9420  -10.3730 N.ar    1  UNL1       -0.0420
     11  C         23.6800  -22.3650  -10.0300 C.ar    1  UNL1        0.7250
     12  N         23.0340  -21.8650  -11.1510 N.ar    1  UNL1       -0.1700
     13  H         24.7590  -22.1370  -15.3430 H       1  UNL1        0.1730
     14  N         23.1330  -22.2600   -8.7850 N.pl3   1  UNL1       -0.1070
     15  H         23.7830  -22.2040   -8.0030 H       1  UNL1        0.2080
     16  N         21.9410  -22.8190   -8.4010 N.2     1  UNL1       -0.1720
     17  C         21.1610  -22.0670   -7.6870 C.2     1  UNL1        0.1500
     18  C         19.8330  -22.5280   -7.2360 C.2     1  UNL1       -0.0170
     19  C         19.0320  -21.6500   -6.4990 C.2     1  UNL1        0.0140
     20  C         17.7710  -22.0640   -6.0620 C.2     1  UNL1        0.0200
     21  C         17.3200  -23.3490   -6.3620 C.2     1  UNL1        0.0110
     22 BR         15.6140  -23.9060   -5.7680 Br      1  UNL1       -0.0510
     23  C         18.1170  -24.2270   -7.0980 C.2     1  UNL1        0.0200
     24  C         19.3780  -23.8150   -7.5370 C.2     1  UNL1        0.0140
     25  C         21.7050  -21.2810  -11.1970 C.3     1  UNL1        0.1530
     26  C         20.6460  -22.2150  -11.7960 C.3     1  UNL1        0.0590
     27  C         19.2500  -21.9480  -11.2890 C.2     1  UNL1       -0.0570
     28  C         18.5280  -22.9580  -10.6380 C.2     1  UNL1        0.0070
     29  C         17.2240  -22.7240  -10.2010 C.2     1  UNL1        0.0010
     30  C         16.6290  -21.4820  -10.4090 C.2     1  UNL1        0.0000
     31  C         17.3380  -20.4710  -11.0560 C.2     1  UNL1        0.0010
     32  C         18.6430  -20.7020  -11.4940 C.2     1  UNL1        0.0070
@<TRIPOS>BOND
     1    13     5    1
     2     4     3    2
     3     5     3   ar
     4     5     6   ar
     5     7     6    2
     6     3     2   ar
     7     6     8   ar
     8     2     1    1
     9     2     9   ar
    10     8     9   ar
    11     8    12   ar
    12    26    27    1
    13    26    25    1
    14     9    10   ar
    15    32    27    2
    16    32    31    1
    17    27    28    1
    18    25    12    1
    19    12    11   ar
    20    31    30    2
    21    28    29    2
    22    30    29    1
    23    10    11   ar
    24    11    14    1
    25    14    16    1
    26    14    15    1
    27    16    17    2
    28    17    18    1
    29    24    18    2
    30    24    23    1
    31    18    19    1
    32    23    21    2
    33    19    20    2
    34    21    20    1
    35    21    22    1
