@<TRIPOS>MOLECULE
6831_out_ligand_01.pdbqt
 36 39 0 0 0
SMALL
GASTEIGER

@<TRIPOS>ATOM
      1  C         21.2830  -22.8480  -10.0750 C.3     1  UNL1        0.1310
      2  C         22.5880  -22.0360  -10.3500 C.3     1  UNL1        0.1520
      3  N         23.2180  -22.3690  -11.6160 N.am    1  UNL1       -0.3510
      4  C         24.5060  -22.8520  -11.6760 C.2     1  UNL1        0.3090
      5  O         25.2000  -23.1840  -10.7250 O.2     1  UNL1       -0.2620
      6  H         22.8600  -21.9820  -12.4890 H       1  UNL1        0.1620
      7  C         25.0750  -22.9430  -13.1090 C.2     1  UNL1        0.3130
      8  O         26.0550  -23.6470  -13.3090 O.2     1  UNL1       -0.2620
      9  N         24.3490  -22.1790  -13.9970 N.am    1  UNL1       -0.3190
     10  H         23.5640  -21.6850  -13.5780 H       1  UNL1        0.1690
     11  C         24.5670  -22.0200  -15.3750 C.2     1  UNL1        0.0380
     12  C         24.3290  -23.1330  -16.1950 C.2     1  UNL1        0.0290
     13  C         24.5220  -23.0600  -17.5770 C.2     1  UNL1        0.0050
     14  C         24.9560  -21.8700  -18.1510 C.2     1  UNL1        0.0420
     15  C         25.1910  -20.7680  -17.3380 C.2     1  UNL1        0.1180
     16  F         25.6080  -19.6220  -17.8930 F       1  UNL1       -0.2060
     17  C         25.0020  -20.8300  -15.9590 C.2     1  UNL1        0.0710
     18  C         20.0380  -22.1670  -10.6160 C.2     1  UNL1       -0.0170
     19  C         18.8010  -22.8240  -10.5950 C.2     1  UNL1        0.0120
     20  C         17.6680  -22.2010  -11.1120 C.2     1  UNL1        0.0200
     21  C         17.8040  -20.9320  -11.6450 C.2     1  UNL1        0.1160
     22  N         18.9750  -20.2660  -11.6920 N.2     1  UNL1       -0.2730
     23  C         20.0580  -20.8950  -11.1840 C.2     1  UNL1        0.1250
     24  N         21.2140  -23.2940   -8.6730 N.3     1  UNL1       -0.4000
     25  C         21.1400  -22.2790   -7.6110 C.3     1  UNL1        0.1320
     26  C         19.7280  -21.9130   -7.0840 C.3     1  UNL1        0.1150
     27  N         18.9490  -23.1330   -6.7740 N.pl3   1  UNL1       -0.2800
     28  C         18.8850  -24.0570   -7.9220 C.3     1  UNL1        0.1150
     29  C         20.3080  -24.4230   -8.4010 C.3     1  UNL1        0.1320
     30  C         17.7630  -22.8720   -6.0710 C.2     1  UNL1        0.0100
     31  C         16.5480  -22.7980   -6.7790 C.2     1  UNL1        0.0260
     32  C         15.3370  -22.5340   -6.1340 C.2     1  UNL1        0.0440
     33  C         15.3270  -22.3320   -4.7620 C.2     1  UNL1        0.1160
     34  F         14.1700  -22.0780   -4.1380 F       1  UNL1       -0.2060
     35  C         16.5040  -22.3860   -4.0320 C.2     1  UNL1        0.0440
     36  C         17.7140  -22.6500   -4.6850 C.2     1  UNL1        0.0260
@<TRIPOS>BOND
     1    14    13    2
     2    14    15    1
     3    16    15    1
     4    13    12    1
     5    15    17    2
     6    12    11    2
     7    17    11    1
     8    11     9    1
     9     9    10    1
    10     9     7   am
    11     8     7    2
    12     7     4    1
    13     6     3    1
    14    22    21    2
    15    22    23    1
    16     4     3   am
    17     4     5    2
    18    21    20    1
    19     3     2    1
    20    23    18    2
    21    20    19    2
    22    18    19    1
    23    18     1    1
    24     2     1    1
    25     1    24    1
    26    24    29    1
    27    24    25    1
    28    29    28    1
    29    28    27    1
    30    25    26    1
    31    26    27    1
    32    31    32    1
    33    31    30    2
    34    27    30    1
    35    32    33    2
    36    30    36    1
    37    33    34    1
    38    33    35    1
    39    36    35    2
