@<TRIPOS>MOLECULE
68313_out_ligand_01.pdbqt
 36 39 0 0 0
SMALL
GASTEIGER

@<TRIPOS>ATOM
      1  C         24.9240  -21.2370  -17.5020 C.3     1  UNL1        0.1630
      2  N         25.2460  -22.0510  -16.3470 N.ar    1  UNL1       -0.2860
      3  C         26.2960  -22.9600  -16.3880 C.ar    1  UNL1        0.3300
      4  O         27.0100  -23.1450  -17.3730 O.2     1  UNL1       -0.2460
      5  N         26.5330  -23.6980  -15.2440 N.ar    1  UNL1       -0.2730
      6  C         25.8170  -23.6730  -14.0670 C.ar    1  UNL1        0.2800
      7  O         26.0720  -24.4380  -13.1440 O.2     1  UNL1       -0.2650
      8  C         24.7710  -22.7080  -14.0880 C.ar    1  UNL1        0.1660
      9  C         24.5090  -21.9440  -15.1860 C.ar    1  UNL1        0.1860
     10  N         23.4630  -21.1030  -14.9850 N.ar    1  UNL1       -0.0420
     11  C         23.0540  -21.3410  -13.7500 C.ar    1  UNL1        0.7250
     12  N         23.8560  -22.3020  -13.1510 N.ar    1  UNL1       -0.1680
     13  H         27.2830  -24.3690  -15.2980 H       1  UNL1        0.1730
     14  C         23.7690  -22.7600  -11.7730 C.3     1  UNL1        0.1820
     15  C         24.2680  -21.7010  -10.7790 C.3     1  UNL1        0.1610
     16  O         25.5600  -22.0710  -10.2860 O.3     1  UNL1       -0.3920
     17  H         25.5310  -22.0320   -9.3130 H       1  UNL1        0.2100
     18  C         23.2930  -21.5670   -9.6030 C.3     1  UNL1        0.2090
     19  O         23.0290  -22.8680   -9.0800 O.2     1  UNL1       -0.3490
     20  C         21.7900  -23.0860   -8.5440 C.2     1  UNL1        0.0690
     21  C         21.2650  -24.3590   -8.7910 C.2     1  UNL1        0.0380
     22  C         20.0080  -24.7190   -8.3020 C.2     1  UNL1        0.0220
     23  C         19.2720  -23.8000   -7.5600 C.2     1  UNL1        0.0110
     24 BR         17.5700  -24.2770   -6.8930 Br      1  UNL1       -0.0510
     25  C         19.7840  -22.5290   -7.3060 C.2     1  UNL1        0.0220
     26  C         21.0440  -22.1720   -7.7990 C.2     1  UNL1        0.0380
     27  N         22.0220  -20.7540  -13.0780 N.pl3   1  UNL1       -0.1070
     28  H         22.2360  -19.9100  -12.5500 H       1  UNL1        0.2080
     29  N         20.9590  -21.4250  -12.5290 N.2     1  UNL1       -0.1720
     30  C         20.0310  -20.6910  -11.9960 C.2     1  UNL1        0.1500
     31  C         18.8150  -21.2810  -11.4000 C.2     1  UNL1       -0.0170
     32  C         18.8410  -22.6250  -11.0160 C.2     1  UNL1        0.0130
     33  C         17.7030  -23.2050  -10.4530 C.2     1  UNL1        0.0010
     34  C         16.5460  -22.4450  -10.2730 C.2     1  UNL1        0.0000
     35  C         16.5240  -21.1030  -10.6560 C.2     1  UNL1        0.0010
     36  C         17.6580  -20.5180  -11.2190 C.2     1  UNL1        0.0130
@<TRIPOS>BOND
     1     1     2    1
     2     4     3    2
     3     3     2   ar
     4     3     5   ar
     5     2     9   ar
     6    13     5    1
     7     5     6   ar
     8     9    10   ar
     9     9     8   ar
    10    10    11   ar
    11     8     6   ar
    12     8    12   ar
    13     6     7    2
    14    11    12   ar
    15    11    27    1
    16    12    14    1
    17    27    28    1
    18    27    29    1
    19    29    30    2
    20    30    31    1
    21    14    15    1
    22    31    36    2
    23    31    32    1
    24    36    35    1
    25    32    33    2
    26    15    16    1
    27    15    18    1
    28    35    34    2
    29    33    34    1
    30    16    17    1
    31    18    19    1
    32    19    20    1
    33    21    20    2
    34    21    22    1
    35    20    26    1
    36    22    23    2
    37    26    25    2
    38    23    25    1
    39    23    24    1
