@<TRIPOS>MOLECULE
68343_out_ligand_01.pdbqt
 32 35 0 0 0
SMALL
GASTEIGER

@<TRIPOS>ATOM
      1  C         22.9510  -22.7020  -10.6880 C.2     1  UNL1        0.7300
      2  N         22.6200  -21.9280  -11.7360 N.2     1  UNL1       -0.0740
      3  C         21.3100  -21.6160  -11.8680 C.2     1  UNL1        0.1530
      4  C         20.3400  -22.0510  -10.9940 C.2     1  UNL1        0.0530
      5  C         20.7720  -22.8370   -9.9460 C.2     1  UNL1        0.0690
      6  N         22.0740  -23.1740   -9.7880 N.2     1  UNL1       -0.0660
      7  C         19.7950  -23.3900   -8.9440 C.3     1  UNL1        0.0720
      8  C         18.5790  -22.4680   -8.7990 C.3     1  UNL1        0.0560
      9  C         17.9280  -22.2280  -10.1630 C.3     1  UNL1        0.0950
     10  C         18.9230  -21.6920  -11.1660 C.2     1  UNL1        0.1630
     11  O         18.5850  -21.0130  -12.1300 O.2     1  UNL1       -0.2920
     12  N         24.2630  -23.0720  -10.4790 N.am    1  UNL1       -0.1370
     13  C         25.1720  -23.5500  -11.3690 C.2     1  UNL1        0.3480
     14  N         24.7780  -23.6950  -12.6900 N.am    1  UNL1       -0.2310
     15  O         26.2930  -23.8450  -10.9750 O.2     1  UNL1       -0.2450
     16  H         23.8180  -23.4640  -12.9440 H       1  UNL1        0.1830
     17  H         24.5930  -22.9690   -9.5330 H       1  UNL1        0.1890
     18  S         25.7150  -24.2280  -13.9410 S.O2    1  UNL1        0.2660
     19  O         25.1970  -25.4840  -14.4370 O.2     1  UNL1       -0.2000
     20  O         27.0850  -24.1290  -13.4800 O.2     1  UNL1       -0.2000
     21  C         25.4840  -22.9750  -15.1770 C.2     1  UNL1        0.0800
     22  C         25.0520  -23.3390  -16.4550 C.2     1  UNL1        0.0260
     23  C         24.8450  -22.3500  -17.4180 C.2     1  UNL1        0.0080
     24  C         25.0470  -20.9990  -17.1060 C.2     1  UNL1       -0.0620
     25  C         24.8530  -19.9410  -18.1530 C.3     1  UNL1        0.0480
     26  C         25.4800  -20.6500  -15.8190 C.2     1  UNL1        0.0080
     27  C         25.6880  -21.6330  -14.8510 C.2     1  UNL1        0.0260
     28  C         17.5950  -23.0260   -7.8270 C.2     1  UNL1        0.0570
     29  C         17.4370  -24.2670   -7.2490 C.2     1  UNL1        0.0350
     30  C         16.3080  -24.1710   -6.4020 C.2     1  UNL1        0.0270
     31  C         15.8500  -22.8790   -6.5160 C.2     1  UNL1        0.1420
     32  O         16.6260  -22.1760   -7.3810 O.2     1  UNL1       -0.3270
@<TRIPOS>BOND
     1    25    24    1
     2    23    24    2
     3    23    22    1
     4    24    26    1
     5    22    21    2
     6    26    27    2
     7    21    27    1
     8    21    18    1
     9    19    18    2
    10    18    20    2
    11    18    14    1
    12    16    14    1
    13    14    13   am
    14    11    10    2
    15     3     2    1
    16     3     4    2
    17     2     1    2
    18    13    15    2
    19    13    12   am
    20    10     4    1
    21    10     9    1
    22     4     5    1
    23     1    12    1
    24     1     6    1
    25    12    17    1
    26     9     8    1
    27     5     6    2
    28     5     7    1
    29     7     8    1
    30     8    28    1
    31    28    32    1
    32    28    29    2
    33    32    31    1
    34    29    30    1
    35    31    30    2
