@<TRIPOS>MOLECULE
68362_out_ligand_01.pdbqt
 31 33 0 0 0
SMALL
GASTEIGER

@<TRIPOS>ATOM
      1  C         19.5050  -23.2690   -7.3080 C.2     1  UNL1       -0.0110
      2  C         19.8240  -24.4340   -8.0060 C.2     1  UNL1        0.0160
      3  C         20.9800  -24.4800   -8.7890 C.2     1  UNL1        0.0300
      4  C         21.8340  -23.3720   -8.8730 C.2     1  UNL1        0.0350
      5  C         21.5110  -22.2160   -8.1590 C.2     1  UNL1        0.0300
      6  C         20.3510  -22.1610   -7.3780 C.2     1  UNL1        0.0160
      7  C         18.2920  -23.2170   -6.4550 C.2     1  UNL1        0.0560
      8  C         18.4530  -22.5940   -5.0860 C.3     1  UNL1        0.0720
      9  N         17.1070  -23.6560   -6.7690 N.2     1  UNL1       -0.1910
     10  N         16.9230  -24.1760   -8.1490 N.pl3   1  UNL1       -0.1020
     11  H         16.6730  -25.1680   -8.2050 H       1  UNL1        0.1680
     12  S         15.9110  -23.3130   -9.2350 S.O2    1  UNL1        0.2600
     13  O         15.2060  -24.2580  -10.0740 O.2     1  UNL1       -0.2040
     14  O         15.1980  -22.3360   -8.4340 O.2     1  UNL1       -0.2040
     15  C         17.0750  -22.4330  -10.2500 C.2     1  UNL1        0.0760
     16  C         18.3200  -23.0060  -10.5270 C.2     1  UNL1        0.0250
     17  C         19.2440  -22.3000  -11.2980 C.2     1  UNL1        0.0020
     18  C         18.9270  -21.0260  -11.7760 C.2     1  UNL1        0.0000
     19  C         17.6880  -20.4520  -11.4840 C.2     1  UNL1        0.0020
     20  C         16.7590  -21.1510  -10.7130 C.2     1  UNL1        0.0250
     21  N         22.9780  -23.5010   -9.6860 N.am    1  UNL1       -0.3230
     22  C         23.8520  -22.5010  -10.0720 C.2     1  UNL1        0.2560
     23  O         23.8080  -21.3140   -9.7780 O.2     1  UNL1       -0.2670
     24  H         23.1470  -24.4220  -10.0690 H       1  UNL1        0.1690
     25  C         24.9490  -22.9810  -10.9540 C.2     1  UNL1        0.0380
     26  C         26.0660  -23.5930  -10.3600 C.2     1  UNL1        0.0170
     27  C         27.1150  -24.0500  -11.1550 C.2     1  UNL1        0.0010
     28  C         27.0580  -23.8910  -12.5380 C.2     1  UNL1        0.0010
     29  C         25.9540  -23.2750  -13.1310 C.2     1  UNL1        0.0070
     30  C         24.8820  -22.8160  -12.3500 C.2     1  UNL1       -0.0460
     31  C         23.7150  -22.1430  -13.0160 C.3     1  UNL1        0.0490
@<TRIPOS>BOND
     1    29    28    2
     2    29    30    1
     3    31    30    1
     4    28    27    1
     5    30    25    2
     6    18    19    2
     7    18    17    1
     8    19    20    1
     9    17    16    2
    10    27    26    2
    11    25    26    1
    12    25    22    1
    13    20    15    2
    14    16    15    1
    15    15    12    1
    16    13    12    2
    17    22    23    2
    18    22    21   am
    19    24    21    1
    20    21     4    1
    21    12    14    2
    22    12    10    1
    23     4     3    2
    24     4     5    1
    25     3     2    1
    26    11    10    1
    27     5     6    2
    28    10     9    1
    29     2     1    2
    30     6     1    1
    31     1     7    1
    32     9     7    2
    33     7     8    1
