@<TRIPOS>MOLECULE
6837_out_ligand_01.pdbqt
 32 35 0 0 0
SMALL
GASTEIGER

@<TRIPOS>ATOM
      1  O         17.7830  -20.5720  -11.7810 O.2     1  UNL1       -0.2730
      2  C         18.4710  -21.4580  -11.2840 C.2     1  UNL1        0.2240
      3  C         17.8640  -22.7010  -10.6690 C.3     1  UNL1        0.1220
      4  C         18.7760  -23.4060   -9.6640 C.3     1  UNL1        0.1290
      5  C         20.2310  -23.2460   -9.9690 C.ar    1  UNL1        0.0700
      6  C         20.7030  -22.2680  -10.7500 C.ar    1  UNL1        0.1450
      7  N         22.0180  -22.0300  -11.0150 N.ar    1  UNL1       -0.2060
      8  C         22.8630  -22.8400  -10.4710 C.ar    1  UNL1        0.1710
      9  N         22.5170  -23.8810   -9.6710 N.ar    1  UNL1       -0.3020
     10  C         21.2180  -24.1740   -9.3890 C.ar    1  UNL1        0.2580
     11  O         20.8930  -25.1420   -8.7160 O.2     1  UNL1       -0.2670
     12  N         19.8350  -21.3830  -11.3120 N.am    1  UNL1       -0.3110
     13  H         23.2340  -24.4840   -9.2960 H       1  UNL1        0.1710
     14  H         20.2350  -20.6090  -11.8300 H       1  UNL1        0.1700
     15  C         18.4760  -22.9280   -8.2340 C.2     1  UNL1        0.2310
     16  O         19.1920  -22.0770   -7.7130 O.2     1  UNL1       -0.2720
     17  N         17.3990  -23.5600   -7.6290 N.am    1  UNL1       -0.3270
     18  H         16.9150  -24.2780   -8.1520 H       1  UNL1        0.1690
     19  C         16.8830  -23.3290   -6.3360 C.2     1  UNL1        0.0340
     20  C         17.5300  -23.6960   -5.1540 C.2     1  UNL1        0.0290
     21  C         16.9470  -23.4240   -3.9120 C.2     1  UNL1        0.0020
     22  C         15.7140  -22.7810   -3.8390 C.2     1  UNL1        0.0000
     23  C         15.0600  -22.4080   -5.0110 C.2     1  UNL1        0.0020
     24  C         15.6430  -22.6810   -6.2520 C.2     1  UNL1        0.0290
     25  S         24.5790  -22.7190  -10.6800 S.3     1  UNL1       -0.0870
     26  C         24.6570  -21.6740  -12.1610 C.3     1  UNL1        0.1210
     27  C         24.7770  -22.5050  -13.4140 C.2     1  UNL1       -0.0490
     28  C         24.4340  -21.9640  -14.6630 C.2     1  UNL1        0.0080
     29  C         24.5570  -22.7300  -15.8240 C.2     1  UNL1        0.0010
     30  C         25.0260  -24.0400  -15.7500 C.2     1  UNL1        0.0000
     31  C         25.3760  -24.5850  -14.5170 C.2     1  UNL1        0.0010
     32  C         25.2560  -23.8220  -13.3540 C.2     1  UNL1        0.0080
@<TRIPOS>BOND
     1    29    30    2
     2    29    28    1
     3    30    31    1
     4    28    27    2
     5    31    32    2
     6    27    32    1
     7    27    26    1
     8    26    25    1
     9    14    12    1
    10     1     2    2
    11    12     2   am
    12    12     6    1
    13     2     3    1
    14     7     6   ar
    15     7     8   ar
    16     6     5   ar
    17    25     8    1
    18     3     4    1
    19     8     9   ar
    20     5     4    1
    21     5    10   ar
    22     9    10   ar
    23     9    13    1
    24     4    15    1
    25    10    11    2
    26    15    16    2
    27    15    17   am
    28    18    17    1
    29    17    19    1
    30    19    24    2
    31    19    20    1
    32    24    23    1
    33    20    21    2
    34    23    22    2
    35    21    22    1
