@<TRIPOS>MOLECULE
68376_out_ligand_01.pdbqt
 37 40 0 0 0
SMALL
GASTEIGER

@<TRIPOS>ATOM
      1  C         25.1820  -20.9860  -17.4980 C.3     1  UNL1        0.1630
      2  N         25.3910  -21.8900  -16.3840 N.ar    1  UNL1       -0.2860
      3  C         26.3520  -22.8930  -16.4520 C.ar    1  UNL1        0.3300
      4  O         27.0840  -23.0840  -17.4230 O.2     1  UNL1       -0.2460
      5  N         26.4770  -23.7210  -15.3500 N.ar    1  UNL1       -0.2730
      6  C         25.7320  -23.6880  -14.1930 C.ar    1  UNL1        0.2800
      7  O         25.8840  -24.5020  -13.2890 O.2     1  UNL1       -0.2650
      8  C         24.7810  -22.6330  -14.1880 C.ar    1  UNL1        0.1660
      9  C         24.6210  -21.7860  -15.2450 C.ar    1  UNL1        0.1860
     10  N         23.6360  -20.8790  -15.0240 N.ar    1  UNL1       -0.0420
     11  C         23.1470  -21.1800  -13.8320 C.ar    1  UNL1        0.7250
     12  N         23.8710  -22.2110  -13.2570 N.ar    1  UNL1       -0.1680
     13  H         27.1660  -24.4510  -15.4270 H       1  UNL1        0.1730
     14  C         23.7380  -22.7120  -11.8970 C.3     1  UNL1        0.1820
     15  C         24.2770  -21.7220  -10.8670 C.3     1  UNL1        0.1610
     16  O         25.5540  -22.1970  -10.4020 O.3     1  UNL1       -0.3920
     17  H         25.8070  -21.6020   -9.6660 H       1  UNL1        0.2100
     18  C         23.3270  -21.6000   -9.6700 C.3     1  UNL1        0.2090
     19  O         23.0440  -22.9300   -9.2190 O.2     1  UNL1       -0.3490
     20  C         21.8310  -23.1410   -8.6240 C.2     1  UNL1        0.0690
     21  C         21.3030  -24.4210   -8.8150 C.2     1  UNL1        0.0380
     22  C         20.0690  -24.7740   -8.2650 C.2     1  UNL1        0.0220
     23  C         19.3580  -23.8380   -7.5190 C.2     1  UNL1        0.0110
     24 BR         17.6870  -24.3060   -6.7700 Br      1  UNL1       -0.0510
     25  C         19.8730  -22.5580   -7.3210 C.2     1  UNL1        0.0220
     26  C         21.1100  -22.2090   -7.8740 C.2     1  UNL1        0.0380
     27  N         22.0890  -20.6200  -13.1760 N.pl3   1  UNL1       -0.1070
     28  H         22.3290  -19.7980  -12.6030 H       1  UNL1        0.2080
     29  N         21.0480  -21.3320  -12.6330 N.2     1  UNL1       -0.1720
     30  C         20.1510  -20.6360  -12.0070 C.2     1  UNL1        0.1500
     31  C         18.9600  -21.2650  -11.4030 C.2     1  UNL1       -0.0170
     32  C         17.7740  -20.5430  -11.2330 C.2     1  UNL1        0.0140
     33  C         16.6600  -21.1620  -10.6590 C.2     1  UNL1        0.0200
     34  C         16.7410  -22.4940  -10.2570 C.2     1  UNL1        0.0110
     35 BR         15.2340  -23.3300   -9.4790 Br      1  UNL1       -0.0510
     36  C         17.9230  -23.2170  -10.4240 C.2     1  UNL1        0.0200
     37  C         19.0370  -22.6010  -10.9990 C.2     1  UNL1        0.0140
@<TRIPOS>BOND
     1     1     2    1
     2     4     3    2
     3     3     2   ar
     4     3     5   ar
     5     2     9   ar
     6    13     5    1
     7     5     6   ar
     8     9    10   ar
     9     9     8   ar
    10    10    11   ar
    11     6     8   ar
    12     6     7    2
    13     8    12   ar
    14    11    12   ar
    15    11    27    1
    16    12    14    1
    17    27    29    1
    18    27    28    1
    19    29    30    2
    20    30    31    1
    21    14    15    1
    22    31    32    2
    23    31    37    1
    24    32    33    1
    25    37    36    2
    26    15    16    1
    27    15    18    1
    28    33    34    2
    29    36    34    1
    30    16    17    1
    31    34    35    1
    32    18    19    1
    33    19    20    1
    34    21    20    2
    35    21    22    1
    36    20    26    1
    37    22    23    2
    38    26    25    2
    39    23    25    1
    40    23    24    1
