@<TRIPOS>MOLECULE
68383_out_ligand_01.pdbqt
 32 35 0 0 0
SMALL
GASTEIGER

@<TRIPOS>ATOM
      1  C         21.0060  -21.6910  -12.0100 C.2     1  UNL1        0.0320
      2  C         21.5850  -21.1260  -13.1500 C.2     1  UNL1        0.0190
      3  C         22.9230  -21.3950  -13.4680 C.2     1  UNL1        0.0310
      4  C         23.6900  -22.2420  -12.6640 C.2     1  UNL1        0.0420
      5  C         23.1160  -22.7730  -11.5030 C.2     1  UNL1        0.0310
      6  C         21.7820  -22.5050  -11.1780 C.2     1  UNL1        0.0190
      7  N         25.0750  -22.5050  -12.8710 N.pl3   1  UNL1       -0.2810
      8  H         25.7310  -22.3300  -12.1110 H       1  UNL1        0.1790
      9  S         25.6820  -23.6330  -13.9690 S.O2    1  UNL1        0.2650
     10  O         27.1190  -23.5480  -13.8060 O.2     1  UNL1       -0.2000
     11  O         24.9530  -24.8630  -13.7500 O.2     1  UNL1       -0.2000
     12  C         25.3030  -22.9490  -15.5580 C.2     1  UNL1        0.1090
     13  C         24.6200  -23.7330  -16.5060 C.2     1  UNL1        0.0280
     14  C         24.3390  -23.2110  -17.7620 C.2     1  UNL1        0.0030
     15  C         24.7310  -21.9120  -18.0640 C.2     1  UNL1        0.0140
     16  C         25.3950  -21.1240  -17.1080 C.2     1  UNL1       -0.0060
     17  C         25.7700  -19.8090  -17.4150 C.2     1  UNL1        0.0150
     18  C         25.6900  -21.6340  -15.8210 C.2     1  UNL1        0.0900
     19  C         26.4110  -19.0270  -16.4640 C.2     1  UNL1        0.0200
     20  C         26.6550  -19.5920  -15.2320 C.2     1  UNL1        0.1170
     21  N         26.3080  -20.8550  -14.9060 N.2     1  UNL1       -0.2590
     22  C         19.5930  -21.4260  -11.6250 C.2     1  UNL1        0.2510
     23  O         19.0120  -20.4370  -12.0570 O.2     1  UNL1       -0.2680
     24  N         19.0180  -22.3240  -10.7550 N.am    1  UNL1       -0.3530
     25  H         19.6110  -22.9560  -10.2340 H       1  UNL1        0.1630
     26  C         17.6940  -22.0850  -10.2310 C.3     1  UNL1        0.1610
     27  C         17.4420  -22.9350   -9.0160 C.2     1  UNL1       -0.0410
     28  C         16.1840  -23.5170   -8.8070 C.2     1  UNL1        0.0090
     29  C         15.9550  -24.3270   -7.6940 C.2     1  UNL1        0.0010
     30  C         16.9810  -24.5690   -6.7840 C.2     1  UNL1        0.0000
     31  C         18.2390  -24.0050   -6.9860 C.2     1  UNL1        0.0010
     32  C         18.4700  -23.1930   -8.0990 C.2     1  UNL1        0.0090
@<TRIPOS>BOND
     1    15    14    2
     2    15    16    1
     3    14    13    1
     4    17    16    2
     5    17    19    1
     6    16    18    1
     7    13    12    2
     8    19    20    2
     9    18    12    1
    10    18    21    2
    11    12     9    1
    12    20    21    1
    13     9    10    2
    14     9    11    2
    15     9     7    1
    16     3     2    1
    17     3     4    2
    18     2     1    2
    19     7     4    1
    20     7     8    1
    21     4     5    1
    22    23    22    2
    23     1    22    1
    24     1     6    1
    25    22    24   am
    26     5     6    2
    27    24    25    1
    28    24    26    1
    29    26    27    1
    30    27    28    2
    31    27    32    1
    32    28    29    1
    33    32    31    2
    34    29    30    2
    35    31    30    1
