@<TRIPOS>MOLECULE
68387_out_ligand_01.pdbqt
 44 49 0 0 0
SMALL
GASTEIGER

@<TRIPOS>ATOM
      1  C         19.1960  -22.0790  -11.0400 C.2     1  UNL1        0.0450
      2  C         19.4470  -21.1360  -12.0420 C.2     1  UNL1        0.0300
      3  C         20.7410  -20.8490  -12.4370 C.2     1  UNL1        0.0030
      4  C         21.8140  -21.4820  -11.8150 C.2     1  UNL1        0.0140
      5  C         21.6390  -22.4370  -10.7830 C.2     1  UNL1        0.0030
      6  C         22.7380  -23.0670  -10.1040 C.2     1  UNL1        0.0450
      7  C         22.4920  -24.0380   -9.1270 C.2     1  UNL1        0.0300
      8  C         21.1950  -24.3720   -8.7780 C.2     1  UNL1        0.0030
      9  C         20.1210  -23.7300   -9.3900 C.2     1  UNL1        0.0140
     10  C         20.2960  -22.7570  -10.4070 C.2     1  UNL1        0.0030
     11  N         17.8570  -22.3800  -10.6610 N.am    1  UNL1       -0.3260
     12  C         16.7470  -21.5510  -10.7300 C.2     1  UNL1        0.2310
     13  O         16.7400  -20.3550  -11.0250 O.2     1  UNL1       -0.2720
     14  H         17.7260  -23.2330  -10.1400 H       1  UNL1        0.1690
     15  C         15.4510  -22.2570  -10.3480 C.3     1  UNL1        0.1850
     16  S         15.8300  -23.8910   -9.6620 S.3     1  UNL1       -0.0830
     17  C         16.3130  -23.4720   -8.0580 C.ar    1  UNL1        0.1680
     18  N         15.7060  -24.0010   -6.9560 N.ar    1  UNL1       -0.3330
     19  C         16.3050  -23.4550   -5.8510 C.ar    1  UNL1        0.0630
     20  H         14.9650  -24.6930   -6.9630 H       1  UNL1        0.1680
     21  C         16.0860  -23.6300   -4.4820 C.2     1  UNL1        0.0320
     22  C         17.2680  -22.5970   -6.3730 C.ar    1  UNL1        0.0860
     23  C         16.9070  -22.8930   -3.6190 C.2     1  UNL1        0.0090
     24  C         17.9060  -22.0290   -4.1040 C.2     1  UNL1       -0.0600
     25  C         18.7740  -21.2560   -3.1540 C.3     1  UNL1        0.0480
     26  C         18.0810  -21.8660   -5.4920 C.2     1  UNL1        0.0400
     27  N         17.2540  -22.6140   -7.7470 N.ar    1  UNL1       -0.2230
     28  N         24.0700  -22.6880  -10.4240 N.am    1  UNL1       -0.3260
     29  C         24.8240  -23.0550  -11.5300 C.2     1  UNL1        0.2310
     30  O         24.4390  -23.7240  -12.4860 O.2     1  UNL1       -0.2720
     31  H         24.5320  -22.0700   -9.7700 H       1  UNL1        0.1690
     32  C         26.2760  -22.5950  -11.4330 C.3     1  UNL1        0.1850
     33  S         26.3910  -20.8060  -11.1820 S.3     1  UNL1       -0.0830
     34  C         26.3460  -20.2580  -12.8140 C.ar    1  UNL1        0.1680
     35  N         26.6260  -19.0600  -13.2720 N.ar    1  UNL1       -0.2230
     36  C         26.4040  -19.1580  -14.6330 C.ar    1  UNL1        0.0860
     37  C         26.5140  -18.1820  -15.6400 C.2     1  UNL1        0.0400
     38  C         25.9610  -20.4330  -14.9800 C.ar    1  UNL1        0.0630
     39  C         26.2130  -18.5330  -16.9730 C.2     1  UNL1       -0.0600
     40  C         26.2540  -17.4930  -18.0590 C.3     1  UNL1        0.0480
     41  C         25.7740  -19.8350  -17.2770 C.2     1  UNL1        0.0090
     42  C         25.6490  -20.8200  -16.2870 C.2     1  UNL1        0.0320
     43  N         25.9300  -21.1110  -13.7910 N.ar    1  UNL1       -0.3330
     44  H         25.6240  -22.0620  -13.6470 H       1  UNL1        0.1680
@<TRIPOS>BOND
     1    40    39    1
     2    41    39    2
     3    41    42    1
     4    39    37    1
     5    42    38    2
     6    37    36    2
     7    38    36   ar
     8    38    43   ar
     9    36    35   ar
    10    43    44    1
    11    43    34   ar
    12    35    34   ar
    13    34    33    1
    14    30    29    2
    15     3     2    1
    16     3     4    2
    17     2     1    2
    18     4     5    1
    19    29    32    1
    20    29    28   am
    21    32    33    1
    22     1    11    1
    23     1    10    1
    24    13    12    2
    25     5    10    2
    26     5     6    1
    27    12    11   am
    28    12    15    1
    29    11    14    1
    30    28     6    1
    31    28    31    1
    32    10     9    1
    33    15    16    1
    34     6     7    2
    35    16    17    1
    36     9     8    2
    37     7     8    1
    38    17    27   ar
    39    17    18   ar
    40    27    22   ar
    41    20    18    1
    42    18    19   ar
    43    22    19   ar
    44    22    26    1
    45    19    21    1
    46    26    24    2
    47    21    23    2
    48    24    23    1
    49    24    25    1
