@<TRIPOS>MOLECULE
68386_out_ligand_01.pdbqt
 27 29 0 0 0
SMALL
GASTEIGER

@<TRIPOS>ATOM
      1  N         20.1500  -23.1210   -7.8950 N.am    1  UNL1       -0.3270
      2  C         20.8270  -24.0750   -8.6370 C.2     1  UNL1        0.2260
      3  O         20.5260  -25.2630   -8.7260 O.2     1  UNL1       -0.2730
      4  H         20.5680  -22.1980   -7.8580 H       1  UNL1        0.1690
      5  C         19.0030  -23.3030   -7.0980 C.2     1  UNL1        0.0340
      6  C         18.7750  -22.3590   -6.0860 C.2     1  UNL1        0.0310
      7  C         17.6610  -22.4630   -5.2480 C.2     1  UNL1        0.0270
      8  C         16.7690  -23.5220   -5.4210 C.2     1  UNL1        0.0740
      9  C         16.9700  -24.4590   -6.4350 C.2     1  UNL1        0.0270
     10  C         18.0900  -24.3490   -7.2680 C.2     1  UNL1        0.0310
     11  S         15.3540  -23.6560   -4.3640 S.O2    1  UNL1        0.2390
     12  O         15.7210  -24.4230   -3.1960 O.2     1  UNL1       -0.2060
     13  O         14.2040  -23.9770   -5.1750 O.2     1  UNL1       -0.2060
     14  N         15.1830  -22.0670   -3.8320 N.3     1  UNL1       -0.2250
     15  H         15.8370  -21.8180   -3.0900 H       1  UNL1        0.1360
     16  H         14.2130  -21.9190   -3.5460 H       1  UNL1        0.1360
     17  C         22.0070  -23.5310   -9.4380 C.3     1  UNL1        0.1420
     18  C         21.6410  -22.6640  -10.6290 C.2     1  UNL1       -0.0380
     19  C         20.3700  -22.0590  -10.6350 C.2     1  UNL1        0.0080
     20  C         19.9860  -21.2260  -11.6800 C.2     1  UNL1        0.0010
     21  C         20.8650  -20.9850  -12.7330 C.2     1  UNL1        0.0120
     22  C         22.1360  -21.5780  -12.7610 C.2     1  UNL1       -0.0250
     23  C         23.0040  -21.3240  -13.8360 C.2     1  UNL1        0.0120
     24  C         22.5410  -22.4340  -11.7060 C.2     1  UNL1       -0.0190
     25  C         24.2700  -21.9030  -13.8880 C.2     1  UNL1        0.0010
     26  C         24.6820  -22.7480  -12.8670 C.2     1  UNL1        0.0010
     27  C         23.8300  -23.0120  -11.7920 C.2     1  UNL1        0.0130
@<TRIPOS>BOND
     1    25    23    2
     2    25    26    1
     3    23    22    1
     4    26    27    2
     5    22    21    2
     6    22    24    1
     7    21    20    1
     8    27    24    1
     9    24    18    2
    10    20    19    2
    11    19    18    1
    12    18    17    1
    13    17     2    1
    14     3     2    2
    15     2     1   am
    16     1     4    1
    17     1     5    1
    18    10     5    2
    19    10     9    1
    20     5     6    1
    21     9     8    2
    22     6     7    2
    23     8     7    1
    24     8    11    1
    25    13    11    2
    26    11    14    1
    27    11    12    2
    28    14    16    1
    29    14    15    1
