@<TRIPOS>MOLECULE
68394_out_ligand_01.pdbqt
 30 32 0 0 0
SMALL
GASTEIGER

@<TRIPOS>ATOM
      1  N         26.7250  -24.1030  -15.9120 N.1     1  UNL1       -0.1910
      2  C         26.4730  -23.5130  -14.9450 C.1     1  UNL1        0.0990
      3  C         26.1460  -22.7940  -13.7490 C.2     1  UNL1        0.0460
      4  C         27.1210  -22.0360  -13.0990 C.2     1  UNL1        0.0230
      5  C         26.7930  -21.3420  -11.9360 C.2     1  UNL1        0.0040
      6  C         25.4940  -21.4020  -11.4220 C.2     1  UNL1        0.0290
      7  C         24.5070  -22.1530  -12.0650 C.2     1  UNL1        0.0360
      8  C         24.8440  -22.8500  -13.2330 C.2     1  UNL1        0.0520
      9  N         23.1780  -22.2660  -11.6060 N.am    1  UNL1       -0.3230
     10  C         22.0410  -21.7480  -12.2010 C.2     1  UNL1        0.2560
     11  O         21.9720  -21.1510  -13.2680 O.2     1  UNL1       -0.2670
     12  H         23.0400  -22.8520  -10.7930 H       1  UNL1        0.1690
     13  C         20.7780  -21.9930  -11.4520 C.2     1  UNL1        0.0320
     14  C         20.7990  -22.8980  -10.3840 C.2     1  UNL1        0.0180
     15  C         19.6330  -23.1530   -9.6590 C.2     1  UNL1        0.0180
     16  C         18.4320  -22.5270  -10.0180 C.2     1  UNL1        0.0320
     17  C         18.4070  -21.6250  -11.0900 C.2     1  UNL1        0.0180
     18  C         19.5770  -21.3630  -11.8110 C.2     1  UNL1        0.0180
     19  C         17.2100  -22.8250   -9.2200 C.2     1  UNL1        0.2560
     20  O         16.2160  -23.2220   -9.8150 O.2     1  UNL1       -0.2670
     21  N         17.3310  -22.5820   -7.8640 N.am    1  UNL1       -0.3230
     22  H         18.1790  -22.1240   -7.5550 H       1  UNL1        0.1690
     23  C         16.3560  -22.8090   -6.8670 C.2     1  UNL1        0.0360
     24  C         16.3800  -23.8910   -5.9840 C.2     1  UNL1        0.0290
     25  C         15.3810  -24.0450   -5.0180 C.2     1  UNL1        0.0040
     26  C         14.3470  -23.1150   -4.9240 C.2     1  UNL1        0.0230
     27  C         14.3130  -22.0270   -5.7980 C.2     1  UNL1        0.0460
     28  C         13.2560  -21.0630   -5.7070 C.1     1  UNL1        0.0990
     29  C         15.3160  -21.8760   -6.7650 C.2     1  UNL1        0.0520
     30  N         12.4070  -20.2750   -5.6430 N.1     1  UNL1       -0.1910
@<TRIPOS>BOND
     1     1     2    3
     2     2     3    1
     3     3     8    2
     4     3     4    1
     5    11    10    2
     6     8     7    1
     7     4     5    2
     8    10     9   am
     9    10    13    1
    10     7     9    1
    11     7     6    2
    12     5     6    1
    13    18    13    2
    14    18    17    1
    15     9    12    1
    16    13    14    1
    17    17    16    2
    18    14    15    2
    19    16    15    1
    20    16    19    1
    21    20    19    2
    22    19    21   am
    23    21    22    1
    24    21    23    1
    25    23    29    2
    26    23    24    1
    27    29    27    1
    28    24    25    2
    29    27    28    1
    30    27    26    2
    31    28    30    3
    32    25    26    1
