@<TRIPOS>MOLECULE
68397_out_ligand_01.pdbqt
 32 35 0 0 0
SMALL
GASTEIGER

@<TRIPOS>ATOM
      1  C         21.6220  -22.3590   -9.9150 C.2     1  UNL1        0.0320
      2  C         20.5370  -22.7740  -10.6930 C.2     1  UNL1        0.0190
      3  C         19.3880  -23.2830  -10.0790 C.2     1  UNL1        0.0310
      4  C         19.3040  -23.3780   -8.6850 C.2     1  UNL1        0.0420
      5  C         20.4130  -23.0130   -7.9180 C.2     1  UNL1        0.0310
      6  C         21.5640  -22.4970   -8.5250 C.2     1  UNL1        0.0190
      7  N         18.1270  -23.9790   -8.1520 N.pl3   1  UNL1       -0.2810
      8  H         18.0150  -24.9900   -8.2220 H       1  UNL1        0.1790
      9  S         16.6290  -23.2050   -8.0580 S.O2    1  UNL1        0.2650
     10  O         15.7180  -24.1130   -8.7270 O.2     1  UNL1       -0.2000
     11  O         16.8300  -21.8440   -8.5070 O.2     1  UNL1       -0.2000
     12  C         16.2210  -23.2420   -6.3350 C.2     1  UNL1        0.1090
     13  C         15.0910  -23.9580   -5.9010 C.2     1  UNL1        0.0280
     14  C         14.7780  -24.0070   -4.5490 C.2     1  UNL1        0.0030
     15  C         15.5870  -23.3360   -3.6380 C.2     1  UNL1        0.0140
     16  C         16.7050  -22.6050   -4.0770 C.2     1  UNL1       -0.0060
     17  C         17.5050  -21.9180   -3.1530 C.2     1  UNL1        0.0150
     18  C         17.0420  -22.5410   -5.4490 C.2     1  UNL1        0.0900
     19  C         18.6000  -21.1870   -3.5880 C.2     1  UNL1        0.0200
     20  C         18.8580  -21.1670   -4.9420 C.2     1  UNL1        0.1170
     21  N         18.1080  -21.8190   -5.8560 N.2     1  UNL1       -0.2590
     22  C         22.8290  -21.8200  -10.6000 C.2     1  UNL1        0.2560
     23  O         23.6270  -21.1710   -9.9360 O.2     1  UNL1       -0.2670
     24  N         22.9320  -22.1530  -11.9390 N.am    1  UNL1       -0.3230
     25  H         22.2530  -22.8110  -12.3010 H       1  UNL1        0.1690
     26  C         23.9370  -21.7540  -12.8430 C.2     1  UNL1        0.0350
     27  C         25.3020  -21.9720  -12.6410 C.2     1  UNL1        0.0310
     28  C         26.2400  -21.5380  -13.5860 C.2     1  UNL1        0.0210
     29  C         25.8130  -20.8810  -14.7360 C.2     1  UNL1        0.0110
     30 BR         27.0790  -20.2950  -16.0100 Br      1  UNL1       -0.0510
     31  C         24.4570  -20.6520  -14.9510 C.2     1  UNL1        0.0210
     32  C         23.5240  -21.0870  -14.0050 C.2     1  UNL1        0.0310
@<TRIPOS>BOND
     1    30    29    1
     2    31    29    2
     3    31    32    1
     4    29    28    1
     5    32    26    2
     6    28    27    2
     7    26    27    1
     8    26    24    1
     9    25    24    1
    10    24    22   am
    11     2     3    1
    12     2     1    2
    13    22    23    2
    14    22     1    1
    15     3     4    2
    16     1     6    1
    17    10     9    2
    18     4     7    1
    19     4     5    1
    20     6     5    2
    21    11     9    2
    22     8     7    1
    23     7     9    1
    24     9    12    1
    25    12    13    2
    26    12    18    1
    27    13    14    1
    28    21    18    1
    29    21    20    2
    30    18    16    2
    31    20    19    1
    32    14    15    2
    33    16    15    1
    34    16    17    1
    35    19    17    2
