@<TRIPOS>MOLECULE
68410_out_ligand_01.pdbqt
 35 39 0 0 0
SMALL
GASTEIGER

@<TRIPOS>ATOM
      1  C         17.9730  -21.5400  -10.7800 C.2     1  UNL1        0.2110
      2  N         17.9940  -20.7870  -11.9160 N.2     1  UNL1       -0.1220
      3  N         19.1050  -20.6670  -12.6370 N.pl3   1  UNL1       -0.1430
      4  C         20.2010  -21.3120  -12.1640 C.ar    1  UNL1        0.1370
      5  C         21.5230  -21.4100  -12.6600 C.ar    1  UNL1        0.0250
      6  C         22.1810  -20.8920  -13.7940 C.2     1  UNL1        0.0160
      7  C         23.5310  -21.1880  -14.0010 C.2     1  UNL1        0.0010
      8  C         24.2270  -21.9830  -13.0940 C.2     1  UNL1        0.0020
      9  C         23.5980  -22.5090  -11.9610 C.2     1  UNL1        0.0300
     10  C         22.2380  -22.2170  -11.7630 C.ar    1  UNL1        0.0490
     11  N         21.3580  -22.5930  -10.7610 N.ar    1  UNL1       -0.3290
     12  C         20.1210  -22.0490  -10.9970 C.ar    1  UNL1        0.1650
     13  N         19.0170  -22.2050  -10.2440 N.pl3   1  UNL1       -0.2010
     14  S         16.4110  -21.7140   -9.9470 S.3     1  UNL1       -0.0790
     15  C         16.4380  -23.5100   -9.6530 C.3     1  UNL1        0.1850
     16  C         15.7780  -23.8530   -8.3290 C.2     1  UNL1        0.2270
     17  N         15.6010  -22.7820   -7.4780 N.am    1  UNL1       -0.3520
     18  H         15.7430  -21.8380   -7.8310 H       1  UNL1        0.1630
     19  O         15.4280  -24.9980   -8.0460 O.2     1  UNL1       -0.2730
     20  C         14.9150  -22.9100   -6.2040 C.3     1  UNL1        0.1130
     21  C         13.9220  -21.7650   -6.0020 C.3     1  UNL1        0.0370
     22  C         15.9520  -23.0470   -5.1030 C.2     1  UNL1       -0.0360
     23  C         16.1580  -22.0620   -4.1230 C.2     1  UNL1        0.0090
     24  C         17.1510  -22.2230   -3.1530 C.2     1  UNL1        0.0010
     25  C         17.9630  -23.3550   -3.1610 C.2     1  UNL1        0.0000
     26  C         17.7870  -24.3300   -4.1390 C.2     1  UNL1        0.0010
     27  C         16.7910  -24.1750   -5.1050 C.2     1  UNL1        0.0090
     28  C         21.6470  -23.4770   -9.6430 C.3     1  UNL1        0.1350
     29  C         22.2930  -22.7700   -8.4480 C.3     1  UNL1        0.0580
     30  C         21.2840  -22.1260   -7.5260 C.2     1  UNL1       -0.0570
     31  C         21.6410  -21.0200   -6.7450 C.2     1  UNL1        0.0070
     32  C         20.7160  -20.4430   -5.8730 C.2     1  UNL1        0.0010
     33  C         19.4270  -20.9630   -5.7790 C.2     1  UNL1        0.0000
     34  C         19.0610  -22.0620   -6.5530 C.2     1  UNL1        0.0010
     35  C         19.9860  -22.6450   -7.4210 C.2     1  UNL1        0.0070
@<TRIPOS>BOND
     1     7     6    1
     2     7     8    2
     3     6     5    2
     4     8     9    1
     5     5     4   ar
     6     5    10   ar
     7     3     4    1
     8     3     2    1
     9     4    12   ar
    10     9    10    2
    11     2     1    2
    12    10    11   ar
    13    12    11   ar
    14    12    13    1
    15     1    13    1
    16     1    14    1
    17    11    28    1
    18    14    15    1
    19    15    16    1
    20    28    29    1
    21    29    30    1
    22    16    19    2
    23    16    17   am
    24    18    17    1
    25    30    35    2
    26    30    31    1
    27    17    20    1
    28    35    34    1
    29    31    32    2
    30    34    33    2
    31    20    21    1
    32    20    22    1
    33    32    33    1
    34    27    22    2
    35    27    26    1
    36    22    23    1
    37    26    25    2
    38    23    24    2
    39    25    24    1
