@<TRIPOS>MOLECULE
68426_out_ligand_01.pdbqt
 30 33 0 0 0
SMALL
GASTEIGER

@<TRIPOS>ATOM
      1  C         18.7650  -21.6100  -11.4770 C.3     1  UNL1        0.0090
      2  C         17.3590  -21.0200  -11.4000 C.3     1  UNL1        0.0260
      3  C         16.6180  -21.9990  -10.4790 C.3     1  UNL1        0.1250
      4  N         17.6740  -22.6500   -9.6870 N.pl3   1  UNL1       -0.3650
      5  C         18.9750  -22.0590  -10.0290 C.3     1  UNL1        0.1290
      6  C         17.4320  -22.8980   -8.3370 C.2     1  UNL1        0.1430
      7  N         16.2370  -22.4760   -7.8360 N.2     1  UNL1       -0.2340
      8  C         15.9870  -22.7060   -6.5360 C.2     1  UNL1        0.0430
      9  C         16.8640  -23.3160   -5.6540 C.2     1  UNL1       -0.0320
     10  C         14.7280  -22.2850   -5.8320 C.3     1  UNL1        0.0600
     11  C         18.0950  -23.7140   -6.1190 C.2     1  UNL1        0.0310
     12  C         16.2950  -23.3780   -4.2780 C.3     1  UNL1        0.0410
     13  C         18.3790  -23.5010   -7.4780 C.2     1  UNL1        0.0840
     14  C         14.8030  -23.1480   -4.5650 C.3     1  UNL1        0.0110
     15  C         19.7170  -23.8870   -7.9310 C.2     1  UNL1        0.1800
     16  O         20.0320  -24.9280   -8.4730 O.2     1  UNL1       -0.6460
     17  O         20.6190  -22.9450   -7.5970 O.3     1  UNL1       -0.7730
     18  H         21.2240  -23.3960   -6.9760 H       1  UNL1        0.1670
     19  C         19.8550  -20.7100  -12.0640 C.3     1  UNL1        0.0450
     20  C         21.2500  -21.2830  -12.1460 C.2     1  UNL1       -0.0570
     21  C         22.0050  -21.1630  -13.3190 C.2     1  UNL1        0.0070
     22  C         23.2810  -21.7200  -13.4060 C.2     1  UNL1        0.0020
     23  C         23.8250  -22.3910  -12.3110 C.2     1  UNL1        0.0170
     24  C         23.0980  -22.4960  -11.1210 C.2     1  UNL1        0.0320
     25  C         21.8100  -21.9500  -11.0430 C.2     1  UNL1        0.0240
     26  C         23.7210  -23.2110   -9.9740 C.2     1  UNL1        0.2490
     27  N         25.0730  -23.4130  -10.0200 N.am    1  UNL1       -0.3660
     28  H         25.4470  -24.0150   -9.2980 H       1  UNL1        0.1590
     29  H         25.5880  -23.3550  -10.8870 H       1  UNL1        0.1590
     30  O         23.0560  -23.6410   -9.0410 O.2     1  UNL1       -0.2680
@<TRIPOS>BOND
     1    22    21    1
     2    22    23    2
     3    21    20    2
     4    23    24    1
     5    20    19    1
     6    20    25    1
     7    19     1    1
     8     1     2    1
     9     1     5    1
    10     2     3    1
    11    24    25    2
    12    24    26    1
    13    29    27    1
    14     3     4    1
    15     5     4    1
    16    27    26   am
    17    27    28    1
    18    26    30    2
    19     4     6    1
    20    16    15    2
    21     6     7    2
    22     6    13    1
    23    15    17    1
    24    15    13    1
    25     7     8    1
    26    17    18    1
    27    13    11    2
    28     8    10    1
    29     8     9    2
    30    11     9    1
    31    10    14    1
    32     9    12    1
    33    14    12    1
