@<TRIPOS>MOLECULE
68420_out_ligand_01.pdbqt
 27 29 0 0 0
SMALL
GASTEIGER

@<TRIPOS>ATOM
      1  C         17.1620  -22.5720   -9.6600 C.2     1  UNL1        0.2550
      2  O         16.1270  -22.1620  -10.1780 O.2     1  UNL1       -0.2680
      3  N         17.1740  -23.3000   -8.4940 N.am    1  UNL1       -0.3520
      4  H         18.0490  -23.6500   -8.1220 H       1  UNL1        0.1630
      5  C         18.4750  -22.2660  -10.2950 C.2     1  UNL1        0.0710
      6  C         18.5970  -21.5160  -11.4700 C.2     1  UNL1        0.1320
      7  C         19.8470  -21.2640  -12.0400 C.2     1  UNL1        0.0450
      8  F         17.5160  -21.0200  -12.0920 F       1  UNL1       -0.2050
      9  C         21.0010  -21.7700  -11.4410 C.2     1  UNL1        0.0280
     10  C         20.8900  -22.5320  -10.2730 C.2     1  UNL1        0.0750
     11  C         19.6390  -22.7680   -9.6890 C.2     1  UNL1        0.0450
     12  S         22.3430  -23.1890   -9.5040 S.O2    1  UNL1        0.2390
     13  O         22.9440  -22.1680   -8.6800 O.2     1  UNL1       -0.2060
     14  O         22.0610  -24.5190   -9.0180 O.2     1  UNL1       -0.2060
     15  N         23.3690  -23.3710  -10.8230 N.3     1  UNL1       -0.2250
     16  H         22.8280  -23.6250  -11.6500 H       1  UNL1        0.1360
     17  H         23.9380  -22.5330  -10.9480 H       1  UNL1        0.1360
     18  C         15.9580  -23.6900   -7.8200 C.3     1  UNL1        0.1620
     19  C         16.1420  -23.4320   -6.3580 C.2     1  UNL1       -0.0270
     20  C         15.3800  -24.0170   -5.3580 C.2     1  UNL1        0.0590
     21  S         15.8430  -23.5220   -3.7890 S.3     1  UNL1       -0.1050
     22  C         17.0690  -22.5220   -4.4120 C.2     1  UNL1       -0.0110
     23  C         17.1390  -22.5580   -5.7930 C.2     1  UNL1       -0.0370
     24  C         17.9850  -21.7450   -3.5160 C.3     1  UNL1        0.0460
     25  C         18.1540  -21.7470   -6.5540 C.3     1  UNL1        0.0400
     26  C         19.2910  -21.2630   -5.6420 C.3     1  UNL1        0.0050
     27  C         18.7540  -20.6860   -4.3240 C.3     1  UNL1        0.0050
@<TRIPOS>BOND
     1     8     6    1
     2     7     6    1
     3     7     9    2
     4    16    15    1
     5     6     5    2
     6     9    10    1
     7    17    15    1
     8    15    12    1
     9     5    11    1
    10     5     1    1
    11    10    11    2
    12    10    12    1
    13     2     1    2
    14     1     3   am
    15    12    14    2
    16    12    13    2
    17     3     4    1
    18     3    18    1
    19    18    19    1
    20    25    23    1
    21    25    26    1
    22    19    23    1
    23    19    20    2
    24    23    22    2
    25    26    27    1
    26    20    21    1
    27    22    21    1
    28    22    24    1
    29    27    24    1
