@<TRIPOS>MOLECULE
68428_out_ligand_01.pdbqt
 28 30 0 0 0
SMALL
GASTEIGER

@<TRIPOS>ATOM
      1  C         19.7500  -21.9370  -10.9050 C.2     1  UNL1        0.2550
      2  O         19.2690  -20.8390  -11.1680 O.2     1  UNL1       -0.2680
      3  N         19.0190  -22.9600  -10.3440 N.am    1  UNL1       -0.3530
      4  H         19.4390  -23.8760  -10.2490 H       1  UNL1        0.1630
      5  C         21.1860  -22.1990  -11.2040 C.2     1  UNL1        0.0710
      6  C         22.0120  -22.9660  -10.3760 C.2     1  UNL1        0.1320
      7  C         23.3530  -23.1820  -10.6940 C.2     1  UNL1        0.0450
      8  F         21.5410  -23.5210   -9.2480 F       1  UNL1       -0.2050
      9  C         23.8940  -22.6280  -11.8540 C.2     1  UNL1        0.0280
     10  C         23.0780  -21.8570  -12.6860 C.2     1  UNL1        0.0750
     11  C         21.7300  -21.6460  -12.3740 C.2     1  UNL1        0.0450
     12  S         23.7350  -21.1560  -14.1720 S.O2    1  UNL1        0.2390
     13  O         23.6910  -22.1540  -15.2120 O.2     1  UNL1       -0.2060
     14  O         24.9300  -20.4100  -13.8560 O.2     1  UNL1       -0.2060
     15  N         22.5740  -20.0090  -14.5580 N.3     1  UNL1       -0.2250
     16  H         23.0170  -19.1990  -14.9940 H       1  UNL1        0.1360
     17  H         21.8410  -20.4320  -15.1300 H       1  UNL1        0.1360
     18  C         17.5900  -22.8690  -10.1530 C.3     1  UNL1        0.1610
     19  C         17.2580  -22.7240   -8.6910 C.2     1  UNL1       -0.0400
     20  C         15.9660  -22.9870   -8.2180 C.2     1  UNL1        0.0110
     21  C         15.6670  -22.8290   -6.8640 C.2     1  UNL1        0.0380
     22  C         16.6490  -22.4070   -5.9710 C.2     1  UNL1        0.0750
     23  C         17.9360  -22.1050   -6.4280 C.2     1  UNL1       -0.0240
     24  O         16.2590  -22.2750   -4.6640 O.2     1  UNL1       -0.3510
     25  C         18.2350  -22.2780   -7.7870 C.2     1  UNL1        0.0180
     26  C         18.9980  -21.6270   -5.4820 C.3     1  UNL1        0.0430
     27  C         18.3760  -21.1490   -4.1780 C.3     1  UNL1        0.0310
     28  C         17.3360  -22.1630   -3.7300 C.3     1  UNL1        0.1760
@<TRIPOS>BOND
     1    13    12    2
     2    17    15    1
     3    16    15    1
     4    15    12    1
     5    12    14    2
     6    12    10    1
     7    10    11    1
     8    10     9    2
     9    11     5    2
    10     9     7    1
    11     5     1    1
    12     5     6    1
    13     2     1    2
    14     1     3   am
    15     7     6    2
    16     6     8    1
    17     3     4    1
    18     3    18    1
    19    18    19    1
    20    19    20    2
    21    19    25    1
    22    20    21    1
    23    25    23    2
    24    21    22    2
    25    23    22    1
    26    23    26    1
    27    22    24    1
    28    26    27    1
    29    24    28    1
    30    27    28    1
