@<TRIPOS>MOLECULE
68424_out_ligand_01.pdbqt
 28 31 0 0 0
SMALL
GASTEIGER

@<TRIPOS>ATOM
      1  C         16.8180  -22.9800   -9.0740 C.3     1  UNL1        0.0040
      2  C         15.7650  -24.0490   -9.3530 C.3     1  UNL1        0.0210
      3  C         15.5170  -24.6160   -7.9630 C.3     1  UNL1        0.0990
      4  N         15.5380  -23.4290   -7.0940 N.pl3   1  UNL1       -0.2500
      5  C         16.3310  -22.3670   -7.7510 C.3     1  UNL1        0.1030
      6  C         16.9460  -21.9710  -10.2160 C.3     1  UNL1        0.0440
      7  C         18.3650  -21.8320  -10.7120 C.2     1  UNL1       -0.0570
      8  C         18.6980  -20.8660  -11.6710 C.2     1  UNL1        0.0070
      9  C         20.0170  -20.7210  -12.1020 C.2     1  UNL1        0.0020
     10  C         21.0200  -21.5460  -11.5880 C.2     1  UNL1        0.0170
     11  C         20.7010  -22.5270  -10.6430 C.2     1  UNL1        0.0320
     12  C         19.3780  -22.6580  -10.2010 C.2     1  UNL1        0.0240
     13  C         21.7280  -23.4340  -10.0620 C.2     1  UNL1        0.2490
     14  N         23.0000  -23.3510  -10.5600 N.am    1  UNL1       -0.3660
     15  H         23.2010  -22.9160  -11.4470 H       1  UNL1        0.1590
     16  H         23.6420  -24.0650  -10.2370 H       1  UNL1        0.1590
     17  O         21.4480  -24.2510   -9.1950 O.2     1  UNL1       -0.2680
     18  C         15.7710  -23.6500   -5.7600 C.ar    1  UNL1        0.2170
     19  N         14.9580  -24.2250   -4.8940 N.ar    1  UNL1       -0.1290
     20  N         15.6700  -24.4170   -3.7450 N.ar    1  UNL1        0.0190
     21  N         16.8980  -23.9410   -3.8600 N.ar    1  UNL1        0.0030
     22  N         16.9590  -23.3420   -5.0790 N.ar    1  UNL1       -0.2130
     23  C         18.0710  -22.5330   -5.4340 C.2     1  UNL1        0.0570
     24  C         18.2720  -21.3120   -4.7710 C.2     1  UNL1        0.0310
     25  C         19.3540  -20.4950   -5.1090 C.2     1  UNL1        0.0020
     26  C         20.2320  -20.8820   -6.1180 C.2     1  UNL1        0.0000
     27  C         20.0260  -22.0810   -6.7980 C.2     1  UNL1        0.0020
     28  C         18.9460  -22.9030   -6.4640 C.2     1  UNL1        0.0310
@<TRIPOS>BOND
     1     9     8    1
     2     9    10    2
     3     8     7    2
     4    10    11    1
     5    15    14    1
     6     7     6    1
     7     7    12    1
     8    11    12    2
     9    11    13    1
    10    14    16    1
    11    14    13   am
    12     6     1    1
    13    13    17    2
    14     2     1    1
    15     2     3    1
    16     1     5    1
    17     3     4    1
    18     5     4    1
    19     4    18    1
    20    27    28    1
    21    27    26    2
    22    28    23    2
    23    26    25    1
    24    18    22   ar
    25    18    19   ar
    26    23    22    1
    27    23    24    1
    28    25    24    2
    29    22    21   ar
    30    19    20   ar
    31    21    20   ar
