@<TRIPOS>MOLECULE
6847_out_ligand_01.pdbqt
 33 36 0 0 0
SMALL
GASTEIGER

@<TRIPOS>ATOM
      1  C         21.2600  -22.9530  -10.0550 C.2     1  UNL1        0.1060
      2  C         22.5280  -23.5060   -9.7410 C.2     1  UNL1        0.0670
      3  C         23.4630  -22.8330  -10.5110 C.2     1  UNL1        0.1060
      4  O         22.8050  -21.9050  -11.2790 O.2     1  UNL1       -0.3110
      5  C         21.4760  -21.9680  -10.9890 C.2     1  UNL1        0.0720
      6  C         20.6040  -21.0140  -11.7020 C.3     1  UNL1        0.0780
      7  C         24.8800  -23.0000  -10.5760 C.2     1  UNL1        0.1010
      8  N         25.5600  -24.0030   -9.9380 N.pl3   1  UNL1       -0.2750
      9  N         26.8890  -23.9730  -10.1300 N.2     1  UNL1       -0.1860
     10  H         25.1800  -24.7400   -9.3540 H       1  UNL1        0.1890
     11  C         27.0690  -22.8820  -10.8770 C.2     1  UNL1        0.1580
     12  C         25.8530  -22.2550  -11.2240 C.2     1  UNL1        0.0820
     13  C         25.6880  -21.0420  -11.9980 C.2     1  UNL1        0.2570
     14  O         25.8160  -19.9490  -11.4550 O.2     1  UNL1       -0.2670
     15  N         25.4320  -21.1740  -13.3650 N.am    1  UNL1       -0.3480
     16  C         25.3760  -22.4460  -14.0900 C.3     1  UNL1        0.1260
     17  C         25.2590  -19.9510  -14.1460 C.3     1  UNL1        0.1260
     18  C         24.4580  -22.3600  -15.3030 C.3     1  UNL1        0.0200
     19  C         24.8890  -21.2650  -16.2790 C.3     1  UNL1        0.0030
     20  C         25.6670  -20.1370  -15.6020 C.3     1  UNL1        0.0200
     21  S         19.7460  -23.4090   -9.3920 S.O2    1  UNL1        0.2480
     22  O         20.0210  -24.6580   -8.7220 O.2     1  UNL1       -0.2050
     23  O         18.8280  -23.2940  -10.5040 O.2     1  UNL1       -0.2050
     24  N         19.3200  -22.2080   -8.2640 N.pl3   1  UNL1       -0.1810
     25  H         19.1730  -21.3390   -8.7790 H       1  UNL1        0.1460
     26  C         18.1890  -22.5470   -7.4530 C.2     1  UNL1        0.0250
     27  C         16.8960  -22.4100   -7.9630 C.2     1  UNL1        0.0250
     28  C         15.7970  -22.7870   -7.1870 C.2     1  UNL1        0.0110
     29  C         15.9850  -23.3070   -5.9000 C.2     1  UNL1       -0.0230
     30  C         14.8190  -23.7560   -5.0750 C.3     1  UNL1        0.0510
     31  C         17.2900  -23.4650   -5.4250 C.2     1  UNL1        0.1240
     32  C         18.3910  -23.0930   -6.1900 C.2     1  UNL1        0.0670
     33  F         17.4960  -23.9870   -4.2070 F       1  UNL1       -0.2060
@<TRIPOS>BOND
     1    19    20    1
     2    19    18    1
     3    20    17    1
     4    18    16    1
     5    17    15    1
     6    16    15    1
     7    15    13   am
     8    13    14    2
     9    13    12    1
    10     6     5    1
    11     4     5    1
    12     4     3    1
    13    12    11    1
    14    12     7    2
    15     5     1    2
    16    11     9    2
    17     7     3    1
    18     7     8    1
    19     3     2    2
    20    23    21    2
    21     9     8    1
    22     1     2    1
    23     1    21    1
    24     8    10    1
    25    21    22    2
    26    21    24    1
    27    25    24    1
    28    24    26    1
    29    27    26    2
    30    27    28    1
    31    26    32    1
    32    28    29    2
    33    32    31    2
    34    29    31    1
    35    29    30    1
    36    31    33    1
