@<TRIPOS>MOLECULE
68481_out_ligand_01.pdbqt
 26 28 0 0 0
SMALL
GASTEIGER

@<TRIPOS>ATOM
      1  C         21.7840  -22.3040  -11.4560 C.2     1  UNL1       -0.0190
      2  C         23.0950  -22.8040  -11.4470 C.2     1  UNL1        0.0120
      3  C         23.9860  -22.4640  -12.4660 C.2     1  UNL1        0.0250
      4  C         23.5650  -21.6230  -13.5010 C.2     1  UNL1        0.0770
      5  C         22.2700  -21.1060  -13.5190 C.2     1  UNL1        0.0670
      6  C         21.3940  -21.4550  -12.4990 C.2     1  UNL1        0.1240
      7  F         20.1480  -20.9620  -12.5240 F       1  UNL1       -0.2060
      8  C         20.8160  -22.6660  -10.3550 C.3     1  UNL1        0.0480
      9  C         21.4990  -23.1840   -9.0680 C.3     1  UNL1        0.0190
     10  C         21.0440  -24.6110   -8.7560 C.3     1  UNL1        0.1800
     11  O         19.6360  -24.7050   -8.5200 O.2     1  UNL1       -0.3500
     12  C         19.1410  -23.7760   -7.6440 C.2     1  UNL1        0.0770
     13  C         19.8260  -22.6110   -7.2890 C.2     1  UNL1       -0.0240
     14  C         17.8640  -24.0230   -7.1410 C.2     1  UNL1        0.0740
     15  C         19.2280  -21.7210   -6.3900 C.2     1  UNL1        0.0120
     16  C         21.1960  -22.3280   -7.8340 C.3     1  UNL1        0.0480
     17  C         17.9520  -21.9770   -5.8750 C.2     1  UNL1        0.0370
     18  C         17.2630  -23.1300   -6.2530 C.2     1  UNL1        0.0700
     19  O         16.0130  -23.4930   -5.8310 O.2     1  UNL1       -0.3560
     20  C         15.0530  -22.4550   -5.6870 C.3     1  UNL1        0.2100
     21  S         24.7050  -21.1820  -14.7830 S.O2    1  UNL1        0.2390
     22  O         26.0070  -21.6990  -14.4330 O.2     1  UNL1       -0.2060
     23  O         24.0800  -21.4380  -16.0580 O.2     1  UNL1       -0.2060
     24  N         24.8090  -19.5140  -14.5800 N.3     1  UNL1       -0.2250
     25  H         25.6380  -19.3010  -14.0210 H       1  UNL1        0.1360
     26  H         23.9660  -19.0950  -14.1910 H       1  UNL1        0.1360
@<TRIPOS>BOND
     1    23    21    2
     2    21    24    1
     3    21    22    2
     4    21     4    1
     5    24    26    1
     6    24    25    1
     7     5     4    2
     8     5     6    1
     9     4     3    1
    10     7     6    1
    11     6     1    2
    12     3     2    2
    13     1     2    1
    14     1     8    1
    15     8     9    1
    16     9    10    1
    17     9    16    1
    18    10    11    1
    19    11    12    1
    20    16    13    1
    21    12    13    2
    22    12    14    1
    23    13    15    1
    24    14    18    2
    25    15    17    2
    26    18    17    1
    27    18    19    1
    28    19    20    1
