@<TRIPOS>MOLECULE
6848_out_ligand_01.pdbqt
 32 35 0 0 0
SMALL
GASTEIGER

@<TRIPOS>ATOM
      1  C         19.1370  -22.9390   -9.8590 C.2     1  UNL1       -0.0040
      2  C         18.9080  -21.8390  -10.8880 C.2     1  UNL1        0.0580
      3  C         17.5220  -21.2430  -11.0240 C.3     1  UNL1        0.0720
      4  N         19.8160  -21.3550  -11.6830 N.2     1  UNL1       -0.0650
      5  C         21.0660  -21.8740  -11.5840 C.cat   1  UNL1        0.7520
      6  N         22.1560  -21.5390  -12.2400 N.2     1  UNL1       -0.0330
      7  C         23.0880  -22.3840  -11.7430 C.2     1  UNL1        0.2270
      8  N         22.6790  -23.2270  -10.7990 N.pl3   1  UNL1       -0.1240
      9  N         21.3670  -22.8970  -10.6820 N.pl3   1  UNL1       -0.0610
     10  C         20.4010  -23.4270   -9.8130 C.3     1  UNL1        0.0590
     11  C         20.8810  -24.5170   -8.8940 C.3     1  UNL1        0.0720
     12  S         24.7720  -22.3110  -12.1800 S.3     1  UNL1       -0.0790
     13  C         24.6100  -22.5770  -13.9700 C.3     1  UNL1        0.1850
     14  C         24.5860  -21.2990  -14.8090 C.2     1  UNL1        0.2310
     15  O         23.5160  -20.8930  -15.2590 O.2     1  UNL1       -0.2720
     16  N         25.8210  -20.7240  -15.0490 N.am    1  UNL1       -0.3270
     17  H         26.6050  -21.1540  -14.5670 H       1  UNL1        0.1690
     18  C         26.1080  -19.5390  -15.7510 C.2     1  UNL1        0.0340
     19  C         26.4770  -18.4230  -14.9850 C.2     1  UNL1        0.0310
     20  C         26.7710  -17.2010  -15.5990 C.2     1  UNL1        0.0210
     21  C         26.6960  -17.0910  -16.9830 C.2     1  UNL1        0.0110
     22 BR         27.0860  -15.4410  -17.8180 Br      1  UNL1       -0.0510
     23  C         26.3340  -18.1910  -17.7560 C.2     1  UNL1        0.0210
     24  C         26.0410  -19.4130  -17.1390 C.2     1  UNL1        0.0310
     25  C         17.9950  -23.3530   -8.9590 C.3     1  UNL1        0.0820
     26  C         18.0750  -22.8410   -7.5300 C.2     1  UNL1       -0.0480
     27  C         19.0760  -21.9180   -7.1700 C.2     1  UNL1        0.0080
     28  C         19.1660  -21.4160   -5.8720 C.2     1  UNL1        0.0010
     29  C         18.2480  -21.8160   -4.9100 C.2     1  UNL1        0.0010
     30  C         17.2320  -22.7060   -5.2500 C.2     1  UNL1        0.0070
     31  C         17.1220  -23.2160   -6.5560 C.2     1  UNL1       -0.0550
     32  C         15.9890  -24.1590   -6.8590 C.3     1  UNL1        0.0490
@<TRIPOS>BOND
     1    22    21    1
     2    23    24    1
     3    23    21    2
     4    24    18    2
     5    21    20    1
     6    18    16    1
     7    18    19    1
     8    20    19    2
     9    15    14    2
    10    16    14   am
    11    16    17    1
    12    14    13    1
    13    13    12    1
    14     6     7    2
    15     6     5    1
    16    12     7    1
    17     7     8    1
    18     4     5    2
    19     4     2    1
    20     5     9    1
    21     3     2    1
    22     2     1    2
    23     8     9    1
    24     9    10    1
    25     1    10    1
    26     1    25    1
    27    10    11    1
    28    25    26    1
    29    26    27    2
    30    26    31    1
    31    27    28    1
    32    32    31    1
    33    31    30    2
    34    28    29    2
    35    30    29    1
