@<TRIPOS>MOLECULE
6849_out_ligand_01.pdbqt
 28 30 0 0 0
SMALL
GASTEIGER

@<TRIPOS>ATOM
      1  C         17.8870  -22.9020   -9.3590 C.2     1  UNL1        0.2580
      2  O         17.2180  -22.5930  -10.3410 O.2     1  UNL1       -0.2670
      3  N         19.2740  -23.1430   -9.3340 N.am    1  UNL1       -0.3130
      4  C         19.8750  -23.9290   -8.2440 C.3     1  UNL1        0.1330
      5  C         20.9790  -24.8510   -8.7250 C.3     1  UNL1        0.0250
      6  C         22.0790  -24.0200   -9.3500 C.3     1  UNL1        0.0420
      7  C         21.5190  -23.0750  -10.3790 C.2     1  UNL1       -0.0300
      8  C         22.4030  -22.5770  -11.3560 C.2     1  UNL1        0.0260
      9  C         21.9670  -21.6830  -12.3360 C.2     1  UNL1        0.0320
     10  C         20.6290  -21.2940  -12.3430 C.2     1  UNL1        0.0190
     11  C         19.7490  -21.7730  -11.3630 C.2     1  UNL1        0.0310
     12  C         20.1660  -22.6690  -10.3650 C.2     1  UNL1        0.0430
     13  C         17.1310  -23.0360   -8.0890 C.2     1  UNL1        0.0320
     14  C         17.2390  -22.0640   -7.0890 C.2     1  UNL1        0.0170
     15  C         16.5040  -22.1990   -5.9100 C.2     1  UNL1        0.0070
     16  C         15.6570  -23.3010   -5.7240 C.2     1  UNL1       -0.0620
     17  C         14.8390  -23.4240   -4.4710 C.3     1  UNL1        0.0480
     18  C         15.5260  -24.2480   -6.7490 C.2     1  UNL1        0.0070
     19  C         16.2590  -24.1160   -7.9300 C.2     1  UNL1        0.0170
     20  C         22.9490  -21.1970  -13.3450 C.2     1  UNL1        0.2510
     21  O         22.5630  -20.5670  -14.3230 O.2     1  UNL1       -0.2680
     22  N         24.2710  -21.5270  -13.1280 N.am    1  UNL1       -0.3570
     23  H         24.4990  -22.2130  -12.4210 H       1  UNL1        0.1620
     24  C         25.3030  -21.1850  -14.0870 C.3     1  UNL1        0.1230
     25  C         25.9420  -22.4370  -14.6910 C.3     1  UNL1        0.0230
     26  C         25.6370  -23.7210  -13.8980 C.3     1  UNL1       -0.0210
     27  C         26.7960  -24.1310  -12.9870 C.3     1  UNL1        0.0090
     28  C         25.3120  -24.8620  -14.8640 C.3     1  UNL1        0.0090
@<TRIPOS>BOND
     1    28    26    1
     2    25    24    1
     3    25    26    1
     4    21    20    2
     5    24    22    1
     6    26    27    1
     7    20    22   am
     8    20     9    1
     9    22    23    1
    10    10     9    2
    11    10    11    1
    12     9     8    1
    13    11    12    2
    14     8     7    2
    15     7    12    1
    16     7     6    1
    17    12     3    1
    18     2     1    2
    19     1     3   am
    20     1    13    1
    21     6     5    1
    22     3     4    1
    23     5     4    1
    24    13    19    2
    25    13    14    1
    26    19    18    1
    27    14    15    2
    28    18    16    2
    29    15    16    1
    30    16    17    1
