@<TRIPOS>MOLECULE
68496_out_ligand_01.pdbqt
 34 37 0 0 0
SMALL
GASTEIGER

@<TRIPOS>ATOM
      1  C         24.8090  -22.0730  -11.1170 C.2     1  UNL1        0.0500
      2  C         26.0460  -22.5390  -10.6520 C.2     1  UNL1        0.0300
      3  C         27.1210  -22.7150  -11.5280 C.2     1  UNL1        0.0020
      4  C         26.9800  -22.4230  -12.8820 C.2     1  UNL1        0.0010
      5  C         25.7550  -21.9680  -13.3680 C.2     1  UNL1        0.0190
      6  C         24.6630  -21.8060  -12.4980 C.2     1  UNL1        0.0580
      7  N         23.7210  -21.8310  -10.2410 N.am    1  UNL1       -0.3260
      8  C         23.1930  -22.6790   -9.2860 C.2     1  UNL1        0.2220
      9  O         23.4610  -23.8690   -9.1610 O.2     1  UNL1       -0.2730
     10  H         23.2760  -20.9170  -10.3580 H       1  UNL1        0.1690
     11  C         22.1190  -22.0000   -8.4510 C.3     1  UNL1        0.1080
     12  C         20.9190  -22.9040   -8.1480 C.3     1  UNL1        0.0480
     13  C         20.0010  -22.3320   -7.0770 C.2     1  UNL1       -0.0470
     14  C         20.4220  -21.1430   -6.4480 C.2     1  UNL1        0.0080
     15  C         19.6580  -20.5480   -5.4510 C.2     1  UNL1        0.0010
     16  C         18.4590  -21.1330   -5.0620 C.2     1  UNL1        0.0120
     17  C         18.0020  -22.3130   -5.6640 C.2     1  UNL1       -0.0250
     18  C         16.7810  -22.8770   -5.2510 C.2     1  UNL1        0.0120
     19  C         18.7680  -22.9330   -6.6870 C.2     1  UNL1       -0.0200
     20  C         16.2980  -24.0480   -5.8300 C.2     1  UNL1        0.0010
     21  C         17.0280  -24.6680   -6.8320 C.2     1  UNL1        0.0010
     22  C         18.2420  -24.1170   -7.2540 C.2     1  UNL1        0.0130
     23  C         23.3460  -21.3660  -13.0490 C.2     1  UNL1        0.2530
     24  O         23.2970  -20.5340  -13.9490 O.2     1  UNL1       -0.2680
     25  N         22.2240  -21.8990  -12.4400 N.am    1  UNL1       -0.3560
     26  H         22.3490  -22.3020  -11.5200 H       1  UNL1        0.1620
     27  C         20.8970  -21.4030  -12.7680 C.3     1  UNL1        0.1270
     28  C         20.2750  -20.6560  -11.5890 C.3     1  UNL1        0.0580
     29  C         18.9960  -21.2990  -11.1180 C.2     1  UNL1       -0.0570
     30  C         17.8000  -20.5690  -11.0960 C.2     1  UNL1        0.0070
     31  C         16.6150  -21.1690  -10.6670 C.2     1  UNL1        0.0010
     32  C         16.6130  -22.5030  -10.2610 C.2     1  UNL1        0.0000
     33  C         17.7960  -23.2400  -10.2870 C.2     1  UNL1        0.0010
     34  C         18.9820  -22.6430  -10.7170 C.2     1  UNL1        0.0070
@<TRIPOS>BOND
     1    24    23    2
     2     5     4    2
     3     5     6    1
     4    23     6    1
     5    23    25   am
     6     4     3    1
     7    27    25    1
     8    27    28    1
     9     6     1    2
    10    25    26    1
    11    28    29    1
    12     3     2    2
    13    29    30    2
    14    29    34    1
    15     1     2    1
    16     1     7    1
    17    30    31    1
    18    34    33    2
    19    31    32    2
    20    10     7    1
    21    33    32    1
    22     7     8   am
    23     8     9    2
    24     8    11    1
    25    11    12    1
    26    12    13    1
    27    22    21    2
    28    22    19    1
    29    13    19    2
    30    13    14    1
    31    21    20    1
    32    19    17    1
    33    14    15    2
    34    20    18    2
    35    17    18    1
    36    17    16    2
    37    15    16    1
