@<TRIPOS>MOLECULE
68502_out_ligand_01.pdbqt
 30 33 0 0 0
SMALL
GASTEIGER

@<TRIPOS>ATOM
      1  C         20.3930  -23.5200   -8.8560 C.2     1  UNL1        0.2580
      2  O         21.1070  -24.5170   -8.7640 O.2     1  UNL1       -0.2670
      3  N         20.3650  -22.6160   -9.9350 N.am    1  UNL1       -0.3130
      4  C         19.1810  -21.7780  -10.1780 C.3     1  UNL1        0.1330
      5  C         18.8470  -21.6540  -11.6530 C.3     1  UNL1        0.0250
      6  C         20.0170  -21.0180  -12.3750 C.3     1  UNL1        0.0420
      7  C         21.3030  -21.7280  -12.0470 C.2     1  UNL1       -0.0300
      8  C         22.3800  -21.5770  -12.9410 C.2     1  UNL1        0.0260
      9  C         23.6070  -22.1980  -12.7000 C.2     1  UNL1        0.0330
     10  C         23.7740  -22.9400  -11.5330 C.2     1  UNL1        0.0190
     11  C         22.7090  -23.0820  -10.6330 C.2     1  UNL1        0.0310
     12  C         21.4560  -22.4950  -10.8710 C.2     1  UNL1        0.0430
     13  C         24.7110  -22.0110  -13.6860 C.2     1  UNL1        0.2560
     14  O         25.7980  -22.5190  -13.4420 O.2     1  UNL1       -0.2670
     15  N         24.3860  -21.2350  -14.7800 N.am    1  UNL1       -0.3220
     16  H         23.4810  -20.7750  -14.7780 H       1  UNL1        0.1690
     17  C         25.2000  -20.9100  -15.8920 C.2     1  UNL1        0.0520
     18  C         26.0040  -19.7680  -15.9400 C.2     1  UNL1        0.0310
     19  C         26.7930  -19.4980  -17.0640 C.2     1  UNL1        0.0020
     20  C         26.7910  -20.3660  -18.1530 C.2     1  UNL1        0.0020
     21  C         26.0000  -21.5110  -18.1200 C.2     1  UNL1        0.0210
     22  C         25.2110  -21.7810  -16.9980 C.2     1  UNL1        0.0370
     23 BR         24.1570  -23.3660  -17.0210 Br      1  UNL1       -0.0490
     24  C         19.4720  -23.2800   -7.7170 C.2     1  UNL1        0.0330
     25  C         18.4870  -24.2300   -7.4310 C.2     1  UNL1        0.0170
     26  C         17.6200  -24.0200   -6.3600 C.2     1  UNL1        0.0020
     27  C         17.7500  -22.8770   -5.5670 C.2     1  UNL1        0.0070
     28  C         18.7610  -21.9400   -5.8230 C.2     1  UNL1       -0.0610
     29  C         18.8890  -20.7100   -4.9740 C.3     1  UNL1        0.0480
     30  C         19.6210  -22.1470   -6.9080 C.2     1  UNL1        0.0230
@<TRIPOS>BOND
     1    20    21    2
     2    20    19    1
     3    21    22    1
     4    19    18    2
     5    23    22    1
     6    22    17    2
     7    18    17    1
     8    17    15    1
     9    15    16    1
    10    15    13   am
    11    13    14    2
    12    13     9    1
    13     8     9    1
    14     8     7    2
    15     9    10    2
    16     6     7    1
    17     6     5    1
    18     7    12    1
    19     5     4    1
    20    10    11    1
    21    12    11    2
    22    12     3    1
    23     4     3    1
    24     3     1   am
    25     1     2    2
    26     1    24    1
    27    24    25    2
    28    24    30    1
    29    25    26    1
    30    30    28    2
    31    26    27    2
    32    28    27    1
    33    28    29    1
