@<TRIPOS>MOLECULE
68504_out_ligand_01.pdbqt
 33 36 0 0 0
SMALL
GASTEIGER

@<TRIPOS>ATOM
      1  C         21.9420  -23.1430  -10.0770 C.2     1  UNL1        0.0330
      2  C         21.4690  -22.3760  -11.1400 C.2     1  UNL1        0.0190
      3  C         22.3660  -21.8700  -12.0900 C.2     1  UNL1        0.0310
      4  C         23.7470  -22.1150  -12.0090 C.2     1  UNL1        0.0430
      5  C         24.2190  -22.8330  -10.8890 C.2     1  UNL1       -0.0300
      6  C         23.3150  -23.3540   -9.9430 C.2     1  UNL1        0.0260
      7  C         25.6860  -23.0940  -10.6840 C.3     1  UNL1        0.0420
      8  C         26.4960  -21.9840  -11.3190 C.3     1  UNL1        0.0250
      9  C         26.1020  -21.8520  -12.7780 C.3     1  UNL1        0.1330
     10  N         24.6680  -21.6050  -12.9970 N.am    1  UNL1       -0.3130
     11  C         24.2260  -21.2130  -14.2790 C.2     1  UNL1        0.2580
     12  O         23.1200  -21.4300  -14.7710 O.2     1  UNL1       -0.2670
     13  C         21.0220  -23.7090   -9.0510 C.2     1  UNL1        0.2560
     14  N         20.1350  -22.7960   -8.5110 N.am    1  UNL1       -0.3230
     15  H         20.1160  -21.8740   -8.9280 H       1  UNL1        0.1690
     16  O         21.0990  -24.9060   -8.8010 O.2     1  UNL1       -0.2670
     17  C         19.1840  -23.0250   -7.4950 C.2     1  UNL1        0.0350
     18  C         18.3620  -24.1500   -7.4340 C.2     1  UNL1        0.0300
     19  C         17.4490  -24.3060   -6.3850 C.2     1  UNL1        0.0090
     20  C         17.3410  -23.3410   -5.3770 C.2     1  UNL1       -0.0580
     21  C         18.1680  -22.2140   -5.4380 C.2     1  UNL1        0.0090
     22  C         19.0810  -22.0600   -6.4860 C.2     1  UNL1        0.0300
     23  C         16.3590  -23.5180   -4.2460 C.3     1  UNL1        0.0380
     24  C         15.1480  -22.5790   -4.3250 C.3     1  UNL1        0.0040
     25  C         14.6550  -22.2650   -5.7420 C.3     1  UNL1       -0.0040
     26  C         13.4380  -21.3530   -5.7720 C.3     1  UNL1        0.0050
     27  C         25.1730  -20.4770  -15.1450 C.2     1  UNL1        0.0330
     28  C         25.6060  -21.0440  -16.3490 C.2     1  UNL1        0.0170
     29  C         26.5160  -20.3520  -17.1450 C.2     1  UNL1        0.0020
     30  C         27.0030  -19.1080  -16.7310 C.2     1  UNL1        0.0070
     31  C         26.5900  -18.5450  -15.5140 C.2     1  UNL1       -0.0610
     32  C         27.1180  -17.2160  -15.0570 C.3     1  UNL1        0.0480
     33  C         25.6750  -19.2440  -14.7160 C.2     1  UNL1        0.0230
@<TRIPOS>BOND
     1    29    30    2
     2    29    28    1
     3    30    31    1
     4    28    27    2
     5    31    32    1
     6    31    33    2
     7    27    33    1
     8    27    11    1
     9    12    11    2
    10    11    10   am
    11    10     9    1
    12    10     4    1
    13     9     8    1
    14     3     4    2
    15     3     2    1
    16     4     5    1
    17     8     7    1
    18     2     1    2
    19     5     7    1
    20     5     6    2
    21     1     6    1
    22     1    13    1
    23    13    16    2
    24    13    14   am
    25    15    14    1
    26    14    17    1
    27    17    18    2
    28    17    22    1
    29    18    19    1
    30    22    21    2
    31    19    20    2
    32    26    25    1
    33    25    24    1
    34    21    20    1
    35    20    23    1
    36    24    23    1
