@<TRIPOS>MOLECULE
68506_out_ligand_01.pdbqt
 33 37 0 0 0
SMALL
GASTEIGER

@<TRIPOS>ATOM
      1  C         22.6530  -22.2030  -11.7540 C.2     1  UNL1        0.0330
      2  C         22.6140  -22.9920  -10.6060 C.2     1  UNL1        0.0190
      3  C         21.4310  -23.0890   -9.8610 C.2     1  UNL1        0.0310
      4  C         20.2620  -22.4040  -10.2350 C.2     1  UNL1        0.0430
      5  C         20.2950  -21.6680  -11.4380 C.2     1  UNL1       -0.0300
      6  C         21.4900  -21.5580  -12.1760 C.2     1  UNL1        0.0260
      7  C         19.0790  -20.9510  -11.9550 C.3     1  UNL1        0.0420
      8  C         17.8300  -21.6720  -11.4960 C.3     1  UNL1        0.0250
      9  C         17.8580  -21.8000   -9.9850 C.3     1  UNL1        0.1330
     10  N         19.0500  -22.4840   -9.4550 N.am    1  UNL1       -0.3130
     11  C         19.0710  -22.8870   -8.1020 C.2     1  UNL1        0.2580
     12  O         20.0640  -23.0570   -7.3980 O.2     1  UNL1       -0.2670
     13  C         23.8930  -22.0560  -12.5670 C.2     1  UNL1        0.2560
     14  O         24.8330  -22.8020  -12.3220 O.2     1  UNL1       -0.2670
     15  N         23.8190  -21.0970  -13.5610 N.am    1  UNL1       -0.3220
     16  H         22.9100  -20.6870  -13.7050 H       1  UNL1        0.1690
     17  C         24.8380  -20.6840  -14.4620 C.2     1  UNL1        0.0460
     18  C         25.6440  -19.5740  -14.1820 C.2     1  UNL1        0.0300
     19  C         26.6330  -19.1620  -15.0710 C.2     1  UNL1        0.0030
     20  C         26.8300  -19.8540  -16.2590 C.2     1  UNL1        0.0120
     21  C         26.0440  -20.9660  -16.5800 C.2     1  UNL1       -0.0240
     22  C         26.2710  -21.6390  -17.7930 C.2     1  UNL1        0.0120
     23  C         25.0300  -21.4060  -15.6870 C.2     1  UNL1        0.0010
     24  C         25.5140  -22.7500  -18.1530 C.2     1  UNL1        0.0010
     25  C         24.5200  -23.2040  -17.3020 C.2     1  UNL1        0.0010
     26  C         24.2820  -22.5460  -16.0900 C.2     1  UNL1        0.0140
     27  C         17.7770  -23.1180   -7.4230 C.2     1  UNL1        0.0320
     28  C         17.3970  -22.2710   -6.3750 C.2     1  UNL1        0.0200
     29  C         16.1920  -22.5020   -5.7090 C.2     1  UNL1        0.0430
     30  C         15.3960  -23.5800   -6.0860 C.2     1  UNL1        0.1160
     31  F         14.2400  -23.7990   -5.4460 F       1  UNL1       -0.2060
     32  C         15.7810  -24.4400   -7.1110 C.2     1  UNL1        0.0430
     33  C         16.9840  -24.2160   -7.7820 C.2     1  UNL1        0.0200
@<TRIPOS>BOND
     1    24    22    2
     2    24    25    1
     3    22    21    1
     4    25    26    2
     5    21    20    2
     6    21    23    1
     7    20    19    1
     8    26    23    1
     9    23    17    2
    10    19    18    2
    11    17    18    1
    12    17    15    1
    13    16    15    1
    14    15    13   am
    15    13    14    2
    16    13     1    1
    17     6     1    2
    18     6     5    1
    19     7     8    1
    20     7     5    1
    21     1     2    1
    22     8     9    1
    23     5     4    2
    24     2     3    2
    25     4     3    1
    26     4    10    1
    27     9    10    1
    28    10    11   am
    29    11    27    1
    30    11    12    2
    31    33    27    2
    32    33    32    1
    33    27    28    1
    34    32    30    2
    35    28    29    2
    36    30    29    1
    37    30    31    1
