@<TRIPOS>MOLECULE
68507_out_ligand_01.pdbqt
 33 36 0 0 0
SMALL
GASTEIGER

@<TRIPOS>ATOM
      1  C         21.4300  -21.6910  -11.9920 C.2     1  UNL1        0.0330
      2  C         21.7660  -22.1230  -10.7100 C.2     1  UNL1        0.0190
      3  C         20.7610  -22.3510   -9.7610 C.2     1  UNL1        0.0310
      4  C         19.4020  -22.1580  -10.0610 C.2     1  UNL1        0.0430
      5  C         19.0810  -21.6530  -11.3380 C.2     1  UNL1       -0.0300
      6  C         20.0920  -21.4400  -12.2960 C.2     1  UNL1        0.0260
      7  C         17.6610  -21.3570  -11.7330 C.3     1  UNL1        0.0420
      8  C         16.8610  -20.9790  -10.5050 C.3     1  UNL1        0.0250
      9  C         16.9800  -22.0850   -9.4740 C.3     1  UNL1        0.1330
     10  N         18.3630  -22.4130   -9.0890 N.am    1  UNL1       -0.3130
     11  C         18.5920  -23.2370   -7.9670 C.2     1  UNL1        0.2580
     12  O         19.5830  -23.9300   -7.7470 O.2     1  UNL1       -0.2670
     13  C         22.4620  -21.4470  -13.0390 C.2     1  UNL1        0.2560
     14  O         22.2240  -20.6140  -13.9040 O.2     1  UNL1       -0.2670
     15  N         23.5920  -22.2380  -12.9360 N.am    1  UNL1       -0.3230
     16  H         23.5720  -22.9740  -12.2410 H       1  UNL1        0.1690
     17  C         24.7400  -22.2010  -13.7560 C.2     1  UNL1        0.0350
     18  C         26.0310  -21.9700  -13.2800 C.2     1  UNL1        0.0290
     19  C         27.1200  -21.9590  -14.1570 C.2     1  UNL1        0.0030
     20  C         26.9280  -22.1800  -15.5190 C.2     1  UNL1        0.0160
     21  C         25.6410  -22.4100  -16.0210 C.2     1  UNL1        0.0500
     22  C         24.5560  -22.4270  -15.1260 C.2     1  UNL1        0.0450
     23  C         25.4210  -22.6730  -17.4890 C.3     1  UNL1        0.4170
     24  F         26.5740  -22.9670  -18.1530 F       1  UNL1       -0.1660
     25  F         24.5780  -23.7160  -17.7310 F       1  UNL1       -0.1660
     26  F         24.8840  -21.6000  -18.1310 F       1  UNL1       -0.1660
     27  C         17.5350  -23.3190   -6.9340 C.2     1  UNL1        0.0320
     28  C         16.5170  -24.2740   -7.0500 C.2     1  UNL1        0.0200
     29  C         15.5090  -24.3210   -6.0860 C.2     1  UNL1        0.0430
     30  C         15.5210  -23.4080   -5.0340 C.2     1  UNL1        0.1160
     31  F         14.5530  -23.4560   -4.1110 F       1  UNL1       -0.2060
     32  C         16.5190  -22.4420   -4.9280 C.2     1  UNL1        0.0430
     33  C         17.5300  -22.3880   -5.8880 C.2     1  UNL1        0.0200
@<TRIPOS>BOND
     1    24    23    1
     2    26    23    1
     3    25    23    1
     4    23    21    1
     5    21    20    2
     6    21    22    1
     7    20    19    1
     8    22    17    2
     9    19    18    2
    10    14    13    2
    11    17    18    1
    12    17    15    1
    13    13    15   am
    14    13     1    1
    15    15    16    1
    16     6     1    2
    17     6     5    1
    18     1     2    1
    19     7     5    1
    20     7     8    1
    21     5     4    2
    22     2     3    2
    23     8     9    1
    24     4     3    1
    25     4    10    1
    26     9    10    1
    27    10    11   am
    28    11    12    2
    29    11    27    1
    30    28    27    2
    31    28    29    1
    32    27    33    1
    33    29    30    2
    34    33    32    2
    35    30    32    1
    36    30    31    1
