@<TRIPOS>MOLECULE
68503_out_ligand_01.pdbqt
 30 33 0 0 0
SMALL
GASTEIGER

@<TRIPOS>ATOM
      1  C         17.4590  -22.7430   -9.0720 C.2     1  UNL1        0.2580
      2  O         16.8520  -22.7350  -10.1410 O.2     1  UNL1       -0.2670
      3  N         18.8300  -22.4860   -8.8560 N.am    1  UNL1       -0.3130
      4  C         19.4250  -22.7710   -7.5390 C.3     1  UNL1        0.1330
      5  C         20.7860  -22.1410   -7.3070 C.3     1  UNL1        0.0250
      6  C         21.7250  -22.5750   -8.4100 C.3     1  UNL1        0.0420
      7  C         21.1300  -22.2130   -9.7440 C.2     1  UNL1       -0.0300
      8  C         22.0140  -21.9530  -10.8090 C.2     1  UNL1        0.0260
      9  C         21.5310  -21.6090  -12.0730 C.2     1  UNL1        0.0330
     10  C         20.1560  -21.4920  -12.2620 C.2     1  UNL1        0.0190
     11  C         19.2750  -21.7700  -11.2070 C.2     1  UNL1        0.0310
     12  C         19.7320  -22.1650   -9.9400 C.2     1  UNL1        0.0430
     13  C         22.5070  -21.3370  -13.1660 C.2     1  UNL1        0.2560
     14  O         22.2360  -20.4600  -13.9780 O.2     1  UNL1       -0.2670
     15  N         23.6610  -22.0970  -13.1190 N.am    1  UNL1       -0.3230
     16  H         23.7890  -22.6840  -12.3040 H       1  UNL1        0.1690
     17  C         24.7340  -22.0850  -14.0360 C.2     1  UNL1        0.0360
     18  C         26.0610  -21.8260  -13.6820 C.2     1  UNL1        0.0290
     19  C         27.0690  -21.8250  -14.6520 C.2     1  UNL1        0.0040
     20  C         26.7610  -22.0800  -15.9860 C.2     1  UNL1        0.0190
     21  C         25.4390  -22.3330  -16.3430 C.2     1  UNL1        0.0130
     22 BR         25.0090  -22.6750  -18.1530 Br      1  UNL1       -0.0510
     23  C         24.4290  -22.3360  -15.3800 C.2     1  UNL1        0.0480
     24  C         16.6300  -23.0910   -7.8990 C.2     1  UNL1        0.0330
     25  C         16.8010  -24.3330   -7.2840 C.2     1  UNL1        0.0170
     26  C         16.0170  -24.6580   -6.1780 C.2     1  UNL1        0.0020
     27  C         15.0840  -23.7380   -5.6870 C.2     1  UNL1        0.0070
     28  C         14.9370  -22.4750   -6.2830 C.2     1  UNL1       -0.0610
     29  C         13.9230  -21.5020   -5.7610 C.3     1  UNL1        0.0480
     30  C         15.7150  -22.1570   -7.4020 C.2     1  UNL1        0.0230
@<TRIPOS>BOND
     1    22    21    1
     2    21    20    2
     3    21    23    1
     4    20    19    1
     5    23    17    2
     6    19    18    2
     7    17    18    1
     8    17    15    1
     9    14    13    2
    10    13    15   am
    11    13     9    1
    12    15    16    1
    13    10     9    2
    14    10    11    1
    15     9     8    1
    16    11    12    2
    17     8     7    2
    18     2     1    2
    19    12     7    1
    20    12     3    1
    21     7     6    1
    22     1     3   am
    23     1    24    1
    24     3     4    1
    25     6     5    1
    26    24    30    2
    27    24    25    1
    28     4     5    1
    29    30    28    1
    30    25    26    2
    31    28    29    1
    32    28    27    2
    33    26    27    1
