@<TRIPOS>MOLECULE
68505_out_ligand_01.pdbqt
 33 36 0 0 0
SMALL
GASTEIGER

@<TRIPOS>ATOM
      1  C         21.3980  -22.4420   -9.9410 C.2     1  UNL1        0.0330
      2  C         20.9110  -21.9950  -11.1660 C.2     1  UNL1        0.0190
      3  C         21.7870  -21.8140  -12.2450 C.2     1  UNL1        0.0310
      4  C         23.1630  -22.0650  -12.1290 C.2     1  UNL1        0.0430
      5  C         23.6430  -22.5370  -10.8870 C.2     1  UNL1       -0.0300
      6  C         22.7550  -22.7360   -9.8110 C.2     1  UNL1        0.0260
      7  C         25.0920  -22.8770  -10.6670 C.3     1  UNL1        0.0420
      8  C         25.9750  -22.1610  -11.6680 C.3     1  UNL1        0.0250
      9  C         25.4370  -22.4020  -13.0660 C.3     1  UNL1        0.1330
     10  N         24.0680  -21.8950  -13.2410 N.am    1  UNL1       -0.3130
     11  C         23.6890  -21.2380  -14.4260 C.2     1  UNL1        0.2580
     12  O         22.7400  -20.4680  -14.5620 O.2     1  UNL1       -0.2670
     13  C         20.5030  -22.6480   -8.7680 C.2     1  UNL1        0.2560
     14  N         19.1910  -22.9400   -9.0930 N.am    1  UNL1       -0.3230
     15  H         18.9380  -22.8840  -10.0700 H       1  UNL1        0.1690
     16  O         20.9770  -22.5050   -7.6480 O.2     1  UNL1       -0.2670
     17  C         18.1300  -23.2060   -8.2020 C.2     1  UNL1        0.0350
     18  C         18.1650  -24.1950   -7.2200 C.2     1  UNL1        0.0300
     19  C         17.0680  -24.3980   -6.3760 C.2     1  UNL1        0.0090
     20  C         15.9160  -23.6120   -6.4980 C.2     1  UNL1       -0.0580
     21  C         15.8770  -22.6270   -7.4890 C.2     1  UNL1        0.0090
     22  C         16.9730  -22.4270   -8.3340 C.2     1  UNL1        0.0300
     23  C         14.7330  -23.8390   -5.5900 C.3     1  UNL1        0.0380
     24  C         15.1530  -23.9190   -4.1200 C.3     1  UNL1        0.0040
     25  C         15.4750  -22.5530   -3.5090 C.3     1  UNL1       -0.0040
     26  C         16.9620  -22.3170   -3.2960 C.3     1  UNL1        0.0050
     27  C         24.5020  -21.4650  -15.6440 C.2     1  UNL1        0.0340
     28  C         24.4770  -22.7290  -16.2480 C.2     1  UNL1        0.0170
     29  C         25.2550  -22.9680  -17.3820 C.2     1  UNL1        0.0030
     30  C         26.0640  -21.9540  -17.8960 C.2     1  UNL1        0.0240
     31  C         26.1010  -20.7060  -17.2720 C.2     1  UNL1        0.0350
     32 CL         27.1210  -19.4690  -17.9000 Cl      1  UNL1       -0.0840
     33  C         25.3280  -20.4530  -16.1420 C.2     1  UNL1        0.0410
@<TRIPOS>BOND
     1    32    31    1
     2    30    29    2
     3    30    31    1
     4    29    28    1
     5    31    33    2
     6    28    27    2
     7    33    27    1
     8    27    11    1
     9    12    11    2
    10    11    10   am
    11    10     9    1
    12    10     4    1
    13     9     8    1
    14     3     4    2
    15     3     2    1
    16     4     5    1
    17     8     7    1
    18     2     1    2
    19     5     7    1
    20     5     6    2
    21    15    14    1
    22     1     6    1
    23     1    13    1
    24    14    13   am
    25    14    17    1
    26    13    16    2
    27    22    17    2
    28    22    21    1
    29    17    18    1
    30    21    20    2
    31    18    19    2
    32    20    19    1
    33    20    23    1
    34    23    24    1
    35    24    25    1
    36    25    26    1
