@<TRIPOS>MOLECULE
68508_out_ligand_01.pdbqt
 33 36 0 0 0
SMALL
GASTEIGER

@<TRIPOS>ATOM
      1  C         22.3040  -22.3620  -11.5370 C.2     1  UNL1        0.0330
      2  C         22.3410  -23.1090  -10.3610 C.2     1  UNL1        0.0190
      3  C         21.1850  -23.2470   -9.5820 C.2     1  UNL1        0.0310
      4  C         19.9670  -22.6570   -9.9550 C.2     1  UNL1        0.0430
      5  C         19.9450  -21.8860  -11.1390 C.2     1  UNL1       -0.0300
      6  C         21.1150  -21.7330  -11.9100 C.2     1  UNL1        0.0260
      7  C         18.7050  -21.1730  -11.6060 C.3     1  UNL1        0.0420
      8  C         17.4620  -21.8170  -11.0270 C.3     1  UNL1        0.0250
      9  C         17.6250  -21.9480   -9.5240 C.3     1  UNL1        0.1330
     10  N         18.7780  -22.7830   -9.1480 N.am    1  UNL1       -0.3130
     11  C         18.6880  -23.6870   -8.0740 C.2     1  UNL1        0.2580
     12  O         19.3990  -24.6740   -7.8940 O.2     1  UNL1       -0.2670
     13  C         23.5090  -22.1870  -12.3930 C.2     1  UNL1        0.2560
     14  N         23.3250  -21.3570  -13.4830 N.am    1  UNL1       -0.3230
     15  H         22.4410  -20.8660  -13.5390 H       1  UNL1        0.1690
     16  O         24.5470  -22.7420  -12.0520 O.2     1  UNL1       -0.2670
     17  C         24.2690  -21.0290  -14.4810 C.2     1  UNL1        0.0370
     18  C         25.0800  -19.9150  -14.2470 C.2     1  UNL1        0.0320
     19  C         26.0430  -19.5230  -15.1820 C.2     1  UNL1        0.0420
     20  C         26.2060  -20.2390  -16.3690 C.2     1  UNL1        0.1010
     21  C         25.3800  -21.3510  -16.6230 C.2     1  UNL1        0.1030
     22  C         24.4220  -21.7370  -15.6740 C.2     1  UNL1        0.0690
     23  O         27.1210  -19.9240  -17.3440 O.2     1  UNL1       -0.3530
     24  C         27.0450  -18.6280  -17.9180 C.3     1  UNL1        0.2100
     25  O         25.5930  -21.9950  -17.8180 O.2     1  UNL1       -0.3530
     26  C         24.7210  -23.0670  -18.1510 C.3     1  UNL1        0.2100
     27  C         17.6410  -23.4590   -7.0460 C.2     1  UNL1        0.0320
     28  C         16.4500  -24.1930   -7.1180 C.2     1  UNL1        0.0200
     29  C         15.4660  -24.0110   -6.1450 C.2     1  UNL1        0.0430
     30  C         15.6860  -23.1130   -5.1060 C.2     1  UNL1        0.1160
     31  F         14.7380  -22.9380   -4.1760 F       1  UNL1       -0.2060
     32  C         16.8780  -22.3980   -5.0120 C.2     1  UNL1        0.0430
     33  C         17.8670  -22.5770   -5.9800 C.2     1  UNL1        0.0200
@<TRIPOS>BOND
     1    26    25    1
     2    24    23    1
     3    25    21    1
     4    23    20    1
     5    21    20    2
     6    21    22    1
     7    20    19    1
     8    22    17    2
     9    19    18    2
    10    17    18    1
    11    17    14    1
    12    15    14    1
    13    14    13   am
    14    13    16    2
    15    13     1    1
    16     6     1    2
    17     6     5    1
    18     7     5    1
    19     7     8    1
    20     1     2    1
    21     5     4    2
    22     8     9    1
    23     2     3    2
    24     4     3    1
    25     4    10    1
    26     9    10    1
    27    10    11   am
    28    11    12    2
    29    11    27    1
    30    28    27    2
    31    28    29    1
    32    27    33    1
    33    29    30    2
    34    33    32    2
    35    30    32    1
    36    30    31    1
