@<TRIPOS>MOLECULE
68515_out_ligand_01.pdbqt
 31 34 0 0 0
SMALL
GASTEIGER

@<TRIPOS>ATOM
      1  C         22.3290  -22.2390  -11.5490 C.2     1  UNL1        0.0330
      2  C         22.3700  -22.7910  -10.2700 C.2     1  UNL1        0.0190
      3  C         21.1890  -22.9320   -9.5280 C.2     1  UNL1        0.0310
      4  C         19.9430  -22.5290  -10.0360 C.2     1  UNL1        0.0430
      5  C         19.9250  -21.9060  -11.3010 C.2     1  UNL1       -0.0300
      6  C         21.1100  -21.7820  -12.0520 C.2     1  UNL1        0.0260
      7  C         18.6490  -21.3860  -11.9030 C.3     1  UNL1        0.0420
      8  C         17.7000  -20.9730  -10.8000 C.3     1  UNL1        0.0250
      9  C         17.4860  -22.1470   -9.8630 C.3     1  UNL1        0.1330
     10  N         18.7220  -22.6960   -9.2820 N.am    1  UNL1       -0.3130
     11  C         18.6360  -23.6190   -8.2170 C.2     1  UNL1        0.2580
     12  O         19.4750  -24.4570   -7.8940 O.2     1  UNL1       -0.2670
     13  C         23.5550  -22.0810  -12.3820 C.2     1  UNL1        0.2560
     14  N         23.4090  -21.2550  -13.4820 N.am    1  UNL1       -0.3230
     15  H         22.5420  -20.7370  -13.5520 H       1  UNL1        0.1690
     16  O         24.5810  -22.6440  -12.0180 O.2     1  UNL1       -0.2670
     17  C         24.3770  -20.9630  -14.4670 C.2     1  UNL1        0.0360
     18  C         25.2370  -19.8870  -14.2170 C.2     1  UNL1        0.0290
     19  C         26.2140  -19.5300  -15.1450 C.2     1  UNL1        0.0040
     20  C         26.3410  -20.2480  -16.3320 C.2     1  UNL1        0.0180
     21  C         25.4950  -21.3300  -16.5980 C.2     1  UNL1        0.0020
     22  C         24.5050  -21.6690  -15.6660 C.2     1  UNL1        0.0480
     23  S         25.7030  -22.1920  -18.1510 S.3     1  UNL1       -0.1340
     24  C         24.2440  -23.2720  -18.1530 C.3     1  UNL1        0.0950
     25  C         17.4080  -23.6230   -7.3950 C.2     1  UNL1        0.0340
     26  C         16.3120  -24.3860   -7.8100 C.2     1  UNL1        0.0170
     27  C         15.1580  -24.4160   -7.0270 C.2     1  UNL1        0.0030
     28  C         15.1110  -23.6980   -5.8300 C.2     1  UNL1        0.0240
     29  C         16.2200  -22.9590   -5.4130 C.2     1  UNL1        0.0350
     30 CL         16.1560  -22.0870   -3.9330 Cl      1  UNL1       -0.0840
     31  C         17.3780  -22.9210   -6.1860 C.2     1  UNL1        0.0410
@<TRIPOS>BOND
     1    24    23    1
     2    23    21    1
     3    21    20    2
     4    21    22    1
     5    20    19    1
     6    22    17    2
     7    19    18    2
     8    17    18    1
     9    17    14    1
    10    15    14    1
    11    14    13   am
    12    13    16    2
    13    13     1    1
    14     6     1    2
    15     6     5    1
    16     7     5    1
    17     7     8    1
    18     1     2    1
    19     5     4    2
    20     8     9    1
    21     2     3    2
    22     4     3    1
    23     4    10    1
    24     9    10    1
    25    10    11   am
    26    11    12    2
    27    11    25    1
    28    26    25    2
    29    26    27    1
    30    25    31    1
    31    27    28    2
    32    31    29    2
    33    28    29    1
    34    29    30    1
