@<TRIPOS>MOLECULE
68512_out_ligand_01.pdbqt
 33 36 0 0 0
SMALL
GASTEIGER

@<TRIPOS>ATOM
      1  C         23.1730  -22.1690  -12.2490 C.2     1  UNL1        0.0330
      2  C         23.3130  -22.8470  -11.0400 C.2     1  UNL1        0.0190
      3  C         22.2330  -22.9300  -10.1510 C.2     1  UNL1        0.0310
      4  C         20.9910  -22.3390  -10.4380 C.2     1  UNL1        0.0430
      5  C         20.8410  -21.7150  -11.6950 C.2     1  UNL1       -0.0300
      6  C         21.9330  -21.6190  -12.5790 C.2     1  UNL1        0.0260
      7  C         19.5330  -21.1060  -12.1220 C.3     1  UNL1        0.0420
      8  C         18.3870  -21.8270  -11.4440 C.3     1  UNL1        0.0250
      9  C         18.6090  -21.8080   -9.9440 C.3     1  UNL1        0.1330
     10  N         19.8820  -22.4100   -9.5150 N.am    1  UNL1       -0.3130
     11  C         20.0810  -22.7030   -8.1490 C.2     1  UNL1        0.2580
     12  O         21.1540  -22.7360   -7.5520 O.2     1  UNL1       -0.2670
     13  C         24.2980  -22.0450  -13.2190 C.2     1  UNL1        0.2560
     14  N         24.0270  -21.2570  -14.3270 N.am    1  UNL1       -0.3220
     15  H         23.0460  -21.2070  -14.5610 H       1  UNL1        0.1690
     16  O         25.3260  -22.6800  -13.0150 O.2     1  UNL1       -0.2670
     17  C         24.9290  -21.0590  -15.4030 C.2     1  UNL1        0.0470
     18  C         24.9490  -21.8860  -16.5540 C.2     1  UNL1       -0.0270
     19  C         25.8630  -21.5770  -17.5830 C.2     1  UNL1        0.0100
     20  C         26.7640  -20.5220  -17.4670 C.2     1  UNL1        0.0010
     21  C         26.7820  -19.7570  -16.3090 C.2     1  UNL1        0.0090
     22  C         25.8780  -20.0140  -15.2680 C.2     1  UNL1       -0.0350
     23  C         25.9340  -19.1260  -14.0510 C.3     1  UNL1        0.0500
     24  C         24.1220  -23.1630  -16.6940 C.3     1  UNL1        0.0130
     25  C         23.7560  -23.4570  -18.1530 C.3     1  UNL1        0.0150
     26  C         24.8490  -24.3650  -16.0750 C.3     1  UNL1        0.0150
     27  C         18.8900  -22.9910   -7.3180 C.2     1  UNL1        0.0320
     28  C         18.5460  -22.1050   -6.2880 C.2     1  UNL1        0.0200
     29  C         17.4420  -22.3840   -5.4830 C.2     1  UNL1        0.0430
     30  C         16.7080  -23.5470   -5.7030 C.2     1  UNL1        0.1160
     31  F         15.6470  -23.8110   -4.9290 F       1  UNL1       -0.2060
     32  C         17.0610  -24.4450   -6.7070 C.2     1  UNL1        0.0430
     33  C         18.1640  -24.1730   -7.5170 C.2     1  UNL1        0.0200
@<TRIPOS>BOND
     1    25    24    1
     2    19    20    2
     3    19    18    1
     4    20    21    1
     5    24    18    1
     6    24    26    1
     7    18    17    2
     8    21    22    2
     9    17    22    1
    10    17    14    1
    11    22    23    1
    12    15    14    1
    13    14    13   am
    14    13    16    2
    15    13     1    1
    16     6     1    2
    17     6     5    1
    18     1     2    1
    19     7     5    1
    20     7     8    1
    21     5     4    2
    22     8     9    1
    23     2     3    2
    24     4     3    1
    25     4    10    1
    26     9    10    1
    27    10    11   am
    28    11    12    2
    29    11    27    1
    30    33    27    2
    31    33    32    1
    32    27    28    1
    33    32    30    2
    34    28    29    2
    35    30    29    1
    36    30    31    1
