@<TRIPOS>MOLECULE
68513_out_ligand_01.pdbqt
 31 34 0 0 0
SMALL
GASTEIGER

@<TRIPOS>ATOM
      1  C         22.5520  -22.1750  -11.7240 C.2     1  UNL1        0.0330
      2  C         22.6180  -22.9890  -10.5950 C.2     1  UNL1        0.0190
      3  C         21.4720  -23.2100   -9.8220 C.2     1  UNL1        0.0310
      4  C         20.2340  -22.6320  -10.1510 C.2     1  UNL1        0.0430
      5  C         20.1830  -21.7920  -11.2850 C.2     1  UNL1       -0.0300
      6  C         21.3420  -21.5620  -12.0520 C.2     1  UNL1        0.0260
      7  C         18.9200  -21.0860  -11.6990 C.3     1  UNL1        0.0420
      8  C         17.6990  -21.7880  -11.1440 C.3     1  UNL1        0.0250
      9  C         17.8850  -22.0040   -9.6530 C.3     1  UNL1        0.1330
     10  N         19.0570  -22.8360   -9.3440 N.am    1  UNL1       -0.3130
     11  C         18.9970  -23.8120   -8.3310 C.2     1  UNL1        0.2580
     12  O         19.7240  -24.7980   -8.2290 O.2     1  UNL1       -0.2670
     13  C         23.7470  -21.9060  -12.5740 C.2     1  UNL1        0.2560
     14  N         23.4620  -21.3970  -13.8290 N.am    1  UNL1       -0.3230
     15  H         22.4980  -21.1540  -14.0160 H       1  UNL1        0.1690
     16  O         24.8540  -22.1180  -12.0960 O.2     1  UNL1       -0.2670
     17  C         24.3760  -21.0870  -14.8580 C.2     1  UNL1        0.0350
     18  C         24.4920  -22.0060  -15.9040 C.2     1  UNL1        0.0300
     19  C         25.3810  -21.7790  -16.9580 C.2     1  UNL1        0.0090
     20  C         26.1780  -20.6280  -16.9870 C.2     1  UNL1       -0.0560
     21  C         27.1210  -20.4100  -18.1370 C.3     1  UNL1        0.0490
     22  C         26.0650  -19.6920  -15.9410 C.2     1  UNL1       -0.0540
     23  C         25.1670  -19.9390  -14.8830 C.2     1  UNL1        0.0370
     24  C         26.8960  -18.4380  -15.9160 C.3     1  UNL1        0.0490
     25  C         17.9600  -23.6720   -7.2810 C.2     1  UNL1        0.0340
     26  C         16.6940  -24.2460   -7.4510 C.2     1  UNL1        0.0170
     27  C         15.7220  -24.0820   -6.4630 C.2     1  UNL1        0.0030
     28  C         16.0110  -23.3340   -5.3200 C.2     1  UNL1        0.0240
     29  C         17.2670  -22.7430   -5.1720 C.2     1  UNL1        0.0350
     30 CL         17.6080  -21.8100   -3.7670 Cl      1  UNL1       -0.0840
     31  C         18.2450  -22.9000   -6.1510 C.2     1  UNL1        0.0410
@<TRIPOS>BOND
     1    21    20    1
     2    20    19    2
     3    20    22    1
     4    19    18    1
     5    22    24    1
     6    22    23    2
     7    18    17    2
     8    23    17    1
     9    17    14    1
    10    15    14    1
    11    14    13   am
    12    13    16    2
    13    13     1    1
    14     6     1    2
    15     6     5    1
    16     1     2    1
    17     7     5    1
    18     7     8    1
    19     5     4    2
    20     8     9    1
    21     2     3    2
    22     4     3    1
    23     4    10    1
    24     9    10    1
    25    10    11   am
    26    11    12    2
    27    11    25    1
    28    26    25    2
    29    26    27    1
    30    25    31    1
    31    27    28    2
    32    31    29    2
    33    28    29    1
    34    29    30    1
