@<TRIPOS>MOLECULE
68510_out_ligand_01.pdbqt
 32 35 0 0 0
SMALL
GASTEIGER

@<TRIPOS>ATOM
      1  C         22.5660  -22.3320  -11.6220 C.2     1  UNL1        0.0330
      2  C         22.5920  -23.0790  -10.4460 C.2     1  UNL1        0.0190
      3  C         21.4240  -23.2380   -9.6890 C.2     1  UNL1        0.0310
      4  C         20.2030  -22.6650  -10.0830 C.2     1  UNL1        0.0430
      5  C         20.1920  -21.8910  -11.2630 C.2     1  UNL1       -0.0300
      6  C         21.3730  -21.7200  -12.0120 C.2     1  UNL1        0.0260
      7  C         18.9500  -21.1920  -11.7470 C.3     1  UNL1        0.0420
      8  C         17.7050  -21.8470  -11.1840 C.3     1  UNL1        0.0250
      9  C         17.8510  -21.9810   -9.6790 C.3     1  UNL1        0.1330
     10  N         19.0020  -22.8110   -9.2960 N.am    1  UNL1       -0.3130
     11  C         18.8990  -23.7430   -8.2470 C.2     1  UNL1        0.2580
     12  O         19.6130  -24.7320   -8.0830 O.2     1  UNL1       -0.2670
     13  C         23.7800  -22.1310  -12.4610 C.2     1  UNL1        0.2560
     14  O         24.8410  -22.5990  -12.0660 O.2     1  UNL1       -0.2670
     15  N         23.5810  -21.3840  -13.6090 N.am    1  UNL1       -0.3230
     16  H         22.6600  -20.9800  -13.7350 H       1  UNL1        0.1690
     17  C         24.5350  -21.0600  -14.5970 C.2     1  UNL1        0.0370
     18  C         25.2970  -19.8860  -14.5900 C.2     1  UNL1        0.0290
     19  C         26.2310  -19.6300  -15.6000 C.2     1  UNL1        0.0050
     20  C         26.4190  -20.5460  -16.6330 C.2     1  UNL1        0.0360
     21  C         25.6630  -21.7220  -16.6440 C.2     1  UNL1        0.1050
     22  C         24.7220  -21.9810  -15.6330 C.2     1  UNL1        0.0650
     23  N         25.8540  -22.6990  -17.7210 N.pl3   1  UNL1       -0.1160
     24  O         27.0040  -22.8650  -18.1530 O.2     1  UNL1       -0.5320
     25  O         24.8540  -23.3030  -18.1350 O.2     1  UNL1       -0.5320
     26  C         17.8280  -23.5540   -7.2380 C.2     1  UNL1        0.0320
     27  C         16.6220  -24.2510   -7.3910 C.2     1  UNL1        0.0200
     28  C         15.6130  -24.1060   -6.4390 C.2     1  UNL1        0.0430
     29  C         15.8230  -23.2810   -5.3380 C.2     1  UNL1        0.1160
     30  F         14.8540  -23.1450   -4.4230 F       1  UNL1       -0.2060
     31  C         17.0280  -22.6050   -5.1630 C.2     1  UNL1        0.0430
     32  C         18.0420  -22.7480   -6.1100 C.2     1  UNL1        0.0200
@<TRIPOS>BOND
     1    24    23    2
     2    25    23    2
     3    23    21    1
     4    21    20    2
     5    21    22    1
     6    20    19    1
     7    22    17    2
     8    19    18    2
     9    17    18    1
    10    17    15    1
    11    16    15    1
    12    15    13   am
    13    13    14    2
    14    13     1    1
    15     6     1    2
    16     6     5    1
    17     7     5    1
    18     7     8    1
    19     1     2    1
    20     5     4    2
    21     8     9    1
    22     2     3    2
    23     4     3    1
    24     4    10    1
    25     9    10    1
    26    10    11   am
    27    11    12    2
    28    11    26    1
    29    27    26    2
    30    27    28    1
    31    26    32    1
    32    28    29    2
    33    32    31    2
    34    29    31    1
    35    29    30    1
