@<TRIPOS>MOLECULE
68525_out_ligand_01.pdbqt
 31 34 0 0 0
SMALL
GASTEIGER

@<TRIPOS>ATOM
      1  O         22.9110  -23.1610   -8.8990 O.2     1  UNL1       -0.2670
      2  C         22.6560  -22.7260  -10.0210 C.2     1  UNL1        0.2580
      3  N         21.3760  -22.4480  -10.5430 N.am    1  UNL1       -0.3130
      4  C         21.2260  -21.3750  -11.5380 C.3     1  UNL1        0.1330
      5  C         19.8600  -21.3140  -12.1940 C.3     1  UNL1        0.0250
      6  C         18.8010  -21.1760  -11.1220 C.3     1  UNL1        0.0420
      7  C         18.9330  -22.3030  -10.1340 C.2     1  UNL1       -0.0300
      8  C         17.7800  -22.7210   -9.4460 C.2     1  UNL1        0.0340
      9  C         17.8540  -23.7730   -8.5350 C.2     1  UNL1        0.0800
     10  C         19.0620  -24.4260   -8.3120 C.2     1  UNL1        0.0270
     11  C         20.2130  -23.9920   -8.9780 C.2     1  UNL1        0.0320
     12  C         20.1830  -22.9070   -9.8720 C.2     1  UNL1        0.0430
     13  S         16.4160  -24.2740   -7.6270 S.O2    1  UNL1        0.2590
     14  O         16.8700  -24.8440   -6.3790 O.2     1  UNL1       -0.2010
     15  O         15.5290  -24.9860   -8.5200 O.2     1  UNL1       -0.2010
     16  N         15.7130  -22.8110   -7.2720 N.3     1  UNL1       -0.3100
     17  H         15.9000  -22.0460   -7.9180 H       1  UNL1        0.1720
     18  C         15.4070  -22.4770   -5.8840 C.3     1  UNL1        0.1910
     19  C         16.6450  -22.0110   -5.1470 C.2     1  UNL1        0.0520
     20  C         17.7110  -21.4570   -5.8530 C.2     1  UNL1        0.0290
     21  C         18.8560  -21.0800   -5.1560 C.2     1  UNL1        0.0030
     22  C         18.9090  -21.2710   -3.7810 C.2     1  UNL1        0.0190
     23  C         17.8110  -21.8390   -3.1570 C.2     1  UNL1        0.1170
     24  N         16.6880  -22.2170   -3.8050 N.2     1  UNL1       -0.2640
     25  C         23.8330  -22.4550  -10.8770 C.2     1  UNL1        0.0320
     26  C         24.6890  -21.3870  -10.5780 C.2     1  UNL1        0.0200
     27  C         25.7780  -21.1240  -11.4120 C.2     1  UNL1        0.0430
     28  C         25.9880  -21.9160  -12.5370 C.2     1  UNL1        0.1160
     29  F         27.0320  -21.6620  -13.3350 F       1  UNL1       -0.2060
     30  C         25.1270  -22.9640  -12.8520 C.2     1  UNL1        0.0430
     31  C         24.0360  -23.2320  -12.0240 C.2     1  UNL1        0.0200
@<TRIPOS>BOND
     1    29    28    1
     2    30    28    2
     3    30    31    1
     4    28    27    1
     5     5     4    1
     6     5     6    1
     7    31    25    2
     8     4     3    1
     9    27    26    2
    10     6     7    1
    11    25    26    1
    12    25     2    1
    13     3     2   am
    14     3    12    1
    15     7    12    2
    16     7     8    1
    17     2     1    2
    18    12    11    1
    19     8     9    2
    20    11    10    2
    21     9    10    1
    22     9    13    1
    23    15    13    2
    24    17    16    1
    25    13    16    1
    26    13    14    2
    27    16    18    1
    28    18    19    1
    29    20    21    1
    30    20    19    2
    31    21    22    2
    32    19    24    1
    33    24    23    2
    34    22    23    1
