@<TRIPOS>MOLECULE
68527_out_ligand_01.pdbqt
 32 35 0 0 0
SMALL
GASTEIGER

@<TRIPOS>ATOM
      1  O         23.0970  -22.6520   -8.9310 O.2     1  UNL1       -0.2670
      2  C         22.7700  -22.4450  -10.0970 C.2     1  UNL1        0.2580
      3  N         21.4620  -22.2520  -10.5780 N.am    1  UNL1       -0.3130
      4  C         21.2300  -21.5550  -11.8510 C.3     1  UNL1        0.1330
      5  C         20.0310  -20.6250  -11.8010 C.3     1  UNL1        0.0250
      6  C         18.7900  -21.4370  -11.4930 C.3     1  UNL1        0.0420
      7  C         19.0030  -22.3070  -10.2830 C.2     1  UNL1       -0.0300
      8  C         17.8570  -22.7670   -9.6050 C.2     1  UNL1        0.0340
      9  C         17.9870  -23.5950   -8.4920 C.2     1  UNL1        0.0750
     10  C         19.2500  -23.9660   -8.0390 C.2     1  UNL1        0.0270
     11  C         20.3880  -23.5210   -8.7210 C.2     1  UNL1        0.0320
     12  C         20.2950  -22.6860   -9.8480 C.2     1  UNL1        0.0430
     13  S         16.5490  -24.1580   -7.6220 S.O2    1  UNL1        0.2460
     14  O         15.5590  -24.4950   -8.6230 O.2     1  UNL1       -0.2060
     15  O         16.9540  -25.1120   -6.6120 O.2     1  UNL1       -0.2060
     16  N         15.9850  -22.7470   -6.8690 N.pl3   1  UNL1       -0.1750
     17  H         14.9630  -22.7760   -6.8450 H       1  UNL1        0.1460
     18  C         16.6100  -22.3950   -5.6240 C.2     1  UNL1        0.1000
     19  C         16.0520  -22.8580   -4.4310 C.2     1  UNL1        0.1410
     20  F         14.9180  -23.5740   -4.4630 F       1  UNL1       -0.2040
     21  C         16.6460  -22.5860   -3.2000 C.2     1  UNL1        0.0440
     22  C         17.8250  -21.8420   -3.1530 C.2     1  UNL1        0.0060
     23  C         18.3980  -21.3760   -4.3380 C.2     1  UNL1        0.0440
     24  C         17.7920  -21.6570   -5.5610 C.2     1  UNL1        0.1410
     25  F         18.3610  -21.1830   -6.6790 F       1  UNL1       -0.2040
     26  C         23.8900  -22.3880  -11.0680 C.2     1  UNL1        0.0320
     27  C         24.9030  -21.4370  -10.8820 C.2     1  UNL1        0.0200
     28  C         25.9750  -21.3860  -11.7730 C.2     1  UNL1        0.0430
     29  C         26.0340  -22.2920  -12.8280 C.2     1  UNL1        0.1160
     30  F         27.0640  -22.2420  -13.6820 F       1  UNL1       -0.2060
     31  C         25.0460  -23.2570  -13.0070 C.2     1  UNL1        0.0430
     32  C         23.9700  -23.3130  -12.1190 C.2     1  UNL1        0.0200
@<TRIPOS>BOND
     1    30    29    1
     2    31    29    2
     3    31    32    1
     4    29    28    1
     5    32    26    2
     6     4     5    1
     7     4     3    1
     8     5     6    1
     9    28    27    2
    10     6     7    1
    11    26    27    1
    12    26     2    1
    13     3     2   am
    14     3    12    1
    15     7    12    2
    16     7     8    1
    17     2     1    2
    18    12    11    1
    19     8     9    2
    20    11    10    2
    21    14    13    2
    22     9    10    1
    23     9    13    1
    24    13    16    1
    25    13    15    2
    26    16    17    1
    27    16    18    1
    28    25    24    1
    29    18    24    2
    30    18    19    1
    31    24    23    1
    32    20    19    1
    33    19    21    2
    34    23    22    2
    35    21    22    1
