@<TRIPOS>MOLECULE
68526_out_ligand_01.pdbqt
 31 34 0 0 0
SMALL
GASTEIGER

@<TRIPOS>ATOM
      1  O         23.1780  -22.6900   -9.0100 O.2     1  UNL1       -0.2670
      2  C         22.7850  -22.4800  -10.1550 C.2     1  UNL1        0.2580
      3  N         21.4490  -22.3190  -10.5680 N.am    1  UNL1       -0.3130
      4  C         21.1370  -21.6480  -11.8390 C.3     1  UNL1        0.1330
      5  C         19.9090  -20.7610  -11.7510 C.3     1  UNL1        0.0250
      6  C         18.7130  -21.6110  -11.3780 C.3     1  UNL1        0.0420
      7  C         19.0070  -22.4420  -10.1580 C.2     1  UNL1       -0.0300
      8  C         17.9080  -22.9170   -9.4170 C.2     1  UNL1        0.0340
      9  C         18.1130  -23.7100   -8.2890 C.2     1  UNL1        0.0800
     10  C         19.4040  -24.0210   -7.8790 C.2     1  UNL1        0.0270
     11  C         20.4960  -23.5630   -8.6240 C.2     1  UNL1        0.0320
     12  C         20.3290  -22.7690   -9.7730 C.2     1  UNL1        0.0430
     13  S         16.7230  -24.3080   -7.3560 S.O2    1  UNL1        0.2630
     14  O         15.6730  -24.6320   -8.2960 O.2     1  UNL1       -0.2000
     15  O         17.2070  -25.2820   -6.4010 O.2     1  UNL1       -0.2000
     16  N         16.2040  -22.9270   -6.5310 N.pl3   1  UNL1       -0.2810
     17  H         15.6870  -22.2960   -7.1390 H       1  UNL1        0.1790
     18  C         17.0270  -22.3620   -5.5170 C.2     1  UNL1        0.0450
     19  C         16.7510  -22.6700   -4.1800 C.2     1  UNL1        0.0300
     20  C         17.5210  -22.1100   -3.1580 C.2     1  UNL1        0.0050
     21  C         18.5680  -21.2470   -3.4740 C.2     1  UNL1        0.0420
     22  C         18.8370  -20.9540   -4.8070 C.2     1  UNL1        0.1180
     23  F         19.8450  -20.1230   -5.1050 F       1  UNL1       -0.2060
     24  C         18.0770  -21.5040   -5.8320 C.2     1  UNL1        0.0720
     25  C         23.8540  -22.3820  -11.1800 C.2     1  UNL1        0.0320
     26  C         24.8210  -21.3760  -11.0580 C.2     1  UNL1        0.0200
     27  C         25.8450  -21.2860  -12.0000 C.2     1  UNL1        0.0430
     28  C         25.9040  -22.2080  -13.0400 C.2     1  UNL1        0.1160
     29  F         26.8890  -22.1200  -13.9430 F       1  UNL1       -0.2060
     30  C         24.9620  -23.2260  -13.1560 C.2     1  UNL1        0.0430
     31  C         23.9340  -23.3220  -12.2170 C.2     1  UNL1        0.0200
@<TRIPOS>BOND
     1    29    28    1
     2    30    28    2
     3    30    31    1
     4    28    27    1
     5    31    25    2
     6    27    26    2
     7     4     5    1
     8     4     3    1
     9     5     6    1
    10     6     7    1
    11    25    26    1
    12    25     2    1
    13     3     2   am
    14     3    12    1
    15     7    12    2
    16     7     8    1
    17     2     1    2
    18    12    11    1
    19     8     9    2
    20    11    10    2
    21    14    13    2
    22     9    10    1
    23     9    13    1
    24    13    16    1
    25    13    15    2
    26    17    16    1
    27    16    18    1
    28    24    18    2
    29    24    22    1
    30    18    19    1
    31    23    22    1
    32    22    21    2
    33    19    20    2
    34    21    20    1
