@<TRIPOS>MOLECULE
68529_out_ligand_01.pdbqt
 30 33 0 0 0
SMALL
GASTEIGER

@<TRIPOS>ATOM
      1  C         17.8720  -23.6280   -8.4880 C.2     1  UNL1        0.0750
      2  C         19.1260  -23.9750   -7.9970 C.2     1  UNL1        0.0270
      3  C         20.2760  -23.5120   -8.6480 C.2     1  UNL1        0.0320
      4  C         20.2010  -22.6840   -9.7800 C.2     1  UNL1        0.0430
      5  C         18.9160  -22.3280  -10.2540 C.2     1  UNL1       -0.0300
      6  C         17.7590  -22.8050   -9.6080 C.2     1  UNL1        0.0340
      7  C         18.7280  -21.4560  -11.4670 C.3     1  UNL1        0.0420
      8  C         19.9670  -20.6300  -11.7410 C.3     1  UNL1        0.0250
      9  C         21.1770  -21.5450  -11.7590 C.3     1  UNL1        0.1330
     10  N         21.3820  -22.2320  -10.4750 N.am    1  UNL1       -0.3130
     11  C         22.6770  -22.3880   -9.9460 C.2     1  UNL1        0.2580
     12  O         22.9660  -22.5690   -8.7660 O.2     1  UNL1       -0.2670
     13  S         16.4170  -24.2110   -7.6460 S.O2    1  UNL1        0.2470
     14  O         15.5100  -24.7110   -8.6550 O.2     1  UNL1       -0.2050
     15  O         16.8540  -25.0420   -6.5420 O.2     1  UNL1       -0.2050
     16  N         15.8680  -22.7700   -6.9580 N.pl3   1  UNL1       -0.1590
     17  H         16.3570  -22.0080   -7.4340 H       1  UNL1        0.1480
     18  C         16.1830  -22.6720   -5.5490 C.2     1  UNL1        0.1590
     19  S         15.1150  -23.0990   -4.2890 S.3     1  UNL1       -0.0670
     20  C         16.2760  -22.5470   -3.1530 C.2     1  UNL1        0.0790
     21  C         17.3750  -22.0270   -3.8140 C.2     1  UNL1        0.0390
     22  C         18.5910  -21.4480   -3.1900 C.3     1  UNL1        0.0710
     23  N         17.2960  -22.0780   -5.1990 N.2     1  UNL1       -0.2330
     24  C         23.8280  -22.3230  -10.8810 C.2     1  UNL1        0.0320
     25  C         23.9490  -23.2530  -11.9240 C.2     1  UNL1        0.0200
     26  C         25.0530  -23.1910  -12.7750 C.2     1  UNL1        0.0430
     27  C         26.0250  -22.2150  -12.5700 C.2     1  UNL1        0.1160
     28  F         27.0830  -22.1600  -13.3900 F       1  UNL1       -0.2060
     29  C         25.9260  -21.3080  -11.5180 C.2     1  UNL1        0.0430
     30  C         24.8260  -21.3650  -10.6620 C.2     1  UNL1        0.0200
@<TRIPOS>BOND
     1    28    27    1
     2    26    27    2
     3    26    25    1
     4    27    29    1
     5    25    24    2
     6     9     8    1
     7     9    10    1
     8     8     7    1
     9    29    30    2
    10     7     5    1
    11    24    30    1
    12    24    11    1
    13    10    11   am
    14    10     4    1
    15     5     4    2
    16     5     6    1
    17    11    12    2
    18     4     3    1
    19     6     1    2
    20    14    13    2
    21     3     2    2
    22     1     2    1
    23     1    13    1
    24    13    16    1
    25    13    15    2
    26    17    16    1
    27    16    18    1
    28    18    23    2
    29    18    19    1
    30    23    21    1
    31    19    20    1
    32    21    22    1
    33    21    20    2
