@<TRIPOS>MOLECULE
68524_out_ligand_01.pdbqt
 34 37 0 0 0
SMALL
GASTEIGER

@<TRIPOS>ATOM
      1  C         23.6050  -22.8200   -9.6740 C.2     1  UNL1        0.0800
      2  C         23.1880  -21.6490   -9.0140 C.2     1  UNL1        0.0270
      3  C         21.9770  -21.6360   -8.3180 C.2     1  UNL1        0.0320
      4  C         21.2030  -22.7870   -8.3120 C.2     1  UNL1        0.0430
      5  C         21.5970  -23.9240   -9.0180 C.2     1  UNL1       -0.0280
      6  C         22.7960  -23.9620   -9.7110 C.2     1  UNL1        0.0340
      7  C         20.6310  -25.0490   -8.8240 C.2     1  UNL1        0.0610
      8  C         19.4920  -24.3570   -8.0620 C.2     1  UNL1        0.1370
      9  N         19.9800  -23.0230   -7.6590 N.am    1  UNL1       -0.3130
     10  C         19.4060  -22.1880   -6.7150 C.2     1  UNL1        0.2580
     11  O         19.9410  -21.2050   -6.2070 O.2     1  UNL1       -0.2670
     12  S         25.2450  -22.8860  -10.3680 S.O2    1  UNL1        0.2630
     13  O         25.9730  -23.9250   -9.6700 O.2     1  UNL1       -0.2000
     14  O         25.7540  -21.5350  -10.4570 O.2     1  UNL1       -0.2000
     15  N         24.9570  -23.4780  -11.9390 N.pl3   1  UNL1       -0.2810
     16  H         24.6740  -24.4570  -11.9090 H       1  UNL1        0.1790
     17  C         24.2570  -22.6220  -12.8410 C.2     1  UNL1        0.0440
     18  C         24.9010  -22.1260  -13.9700 C.2     1  UNL1        0.0300
     19  C         24.2610  -21.1740  -14.7620 C.2     1  UNL1        0.0040
     20  C         22.9970  -20.6920  -14.4030 C.2     1  UNL1        0.0290
     21  C         22.3560  -21.1650  -13.2560 C.2     1  UNL1        0.0360
     22  C         22.9820  -22.1610  -12.4970 C.2     1  UNL1        0.0590
     23  N         21.1230  -20.6760  -12.7790 N.am    1  UNL1       -0.3270
     24  C         20.2030  -21.3430  -11.9910 C.2     1  UNL1        0.2180
     25  C         18.9760  -20.5070  -11.7280 C.3     1  UNL1        0.1170
     26  O         20.2960  -22.4830  -11.5520 O.2     1  UNL1       -0.2740
     27  H         20.8400  -19.7650  -13.1230 H       1  UNL1        0.1690
     28  C         18.0460  -22.5340   -6.2440 C.2     1  UNL1        0.0320
     29  C         16.9440  -22.1440   -7.0070 C.2     1  UNL1        0.0170
     30  C         15.6560  -22.4740   -6.5810 C.2     1  UNL1        0.0070
     31  C         15.4640  -23.1950   -5.3950 C.2     1  UNL1       -0.0620
     32  C         14.0810  -23.5820   -4.9570 C.3     1  UNL1        0.0480
     33  C         16.5810  -23.6150   -4.6570 C.2     1  UNL1        0.0070
     34  C         17.8700  -23.2890   -5.0800 C.2     1  UNL1        0.0170
@<TRIPOS>BOND
     1    19    20    2
     2    19    18    1
     3    20    21    1
     4    18    17    2
     5    21    23    1
     6    21    22    2
     7    27    23    1
     8    17    22    1
     9    17    15    1
    10    23    24   am
    11    24    25    1
    12    24    26    2
    13    15    16    1
    14    15    12    1
    15    14    12    2
    16    12     1    1
    17    12    13    2
    18     6     1    2
    19     6     5    1
    20     1     2    1
    21     5     7    1
    22     5     4    2
    23     2     3    2
    24     7     8    2
    25     3     4    1
    26     4     9    1
    27     8     9    1
    28     9    10   am
    29    29    30    1
    30    29    28    2
    31    10    28    1
    32    10    11    2
    33    30    31    2
    34    28    34    1
    35    31    32    1
    36    31    33    1
    37    34    33    2
