@<TRIPOS>MOLECULE
68528_out_ligand_01.pdbqt
 29 32 0 0 0
SMALL
GASTEIGER

@<TRIPOS>ATOM
      1  O         21.1720  -22.1940   -7.3770 O.2     1  UNL1       -0.2670
      2  C         20.1400  -22.3880   -8.0160 C.2     1  UNL1        0.2580
      3  N         19.9580  -22.1780   -9.3960 N.am    1  UNL1       -0.3130
      4  C         18.6110  -21.9820   -9.9510 C.3     1  UNL1        0.1330
      5  C         18.5710  -20.9210  -11.0330 C.3     1  UNL1        0.0250
      6  C         19.4760  -21.3430  -12.1710 C.3     1  UNL1        0.0420
      7  C         20.8440  -21.7130  -11.6630 C.2     1  UNL1       -0.0300
      8  C         21.9090  -21.6850  -12.5830 C.2     1  UNL1        0.0340
      9  C         23.1960  -22.0320  -12.1760 C.2     1  UNL1        0.0750
     10  C         23.4380  -22.4040  -10.8590 C.2     1  UNL1        0.0270
     11  C         22.3750  -22.4490   -9.9490 C.2     1  UNL1        0.0320
     12  C         21.0640  -22.1050  -10.3220 C.2     1  UNL1        0.0430
     13  S         24.5290  -21.9650  -13.3510 S.O2    1  UNL1        0.2470
     14  O         25.0430  -23.3080  -13.5140 O.2     1  UNL1       -0.2050
     15  O         25.3800  -20.8630  -12.9600 O.2     1  UNL1       -0.2050
     16  N         23.6610  -21.6090  -14.7590 N.pl3   1  UNL1       -0.1590
     17  H         22.8090  -22.1700  -14.7250 H       1  UNL1        0.1480
     18  C         24.3750  -22.0260  -15.9500 C.2     1  UNL1        0.1580
     19  N         23.8200  -22.9200  -16.7270 N.2     1  UNL1       -0.2400
     20  C         24.6310  -23.1230  -17.8270 C.2     1  UNL1        0.1260
     21  C         25.7610  -22.3340  -17.8880 C.2     1  UNL1        0.0720
     22  S         25.8080  -21.2950  -16.5230 S.3     1  UNL1       -0.0680
     23  C         18.9860  -22.8800   -7.2230 C.2     1  UNL1        0.0320
     24  C         18.4930  -24.1780   -7.4140 C.2     1  UNL1        0.0200
     25  C         17.4230  -24.6300   -6.6400 C.2     1  UNL1        0.0430
     26  C         16.8700  -23.7910   -5.6760 C.2     1  UNL1        0.1160
     27  F         15.8440  -24.2280   -4.9360 F       1  UNL1       -0.2060
     28  C         17.3700  -22.5090   -5.4640 C.2     1  UNL1        0.0430
     29  C         18.4400  -22.0520   -6.2340 C.2     1  UNL1        0.0200
@<TRIPOS>BOND
     1    21    20    2
     2    21    22    1
     3    20    19    1
     4    19    18    2
     5    22    18    1
     6    18    16    1
     7    16    17    1
     8    16    13    1
     9    14    13    2
    10    13    15    2
    11    13     9    1
    12     8     9    1
    13     8     7    2
    14     9    10    2
    15     6     7    1
    16     6     5    1
    17     7    12    1
    18     5     4    1
    19    10    11    1
    20    12    11    2
    21    12     3    1
    22     4     3    1
    23     3     2   am
    24     2     1    2
    25     2    23    1
    26    24    23    2
    27    24    25    1
    28    23    29    1
    29    25    26    2
    30    29    28    2
    31    26    28    1
    32    26    27    1
