@<TRIPOS>MOLECULE
68536_out_ligand_01.pdbqt
 30 32 0 0 0
SMALL
GASTEIGER

@<TRIPOS>ATOM
      1  C         16.2150  -23.3560   -9.0320 C.2     1  UNL1        0.0680
      2  C         15.5290  -22.4840   -9.8460 C.2     1  UNL1        0.0370
      3  C         16.5110  -21.7520  -10.5610 C.2     1  UNL1        0.0450
      4  C         17.7480  -22.2110  -10.1370 C.2     1  UNL1        0.1430
      5  O         17.5570  -23.1990   -9.2060 O.2     1  UNL1       -0.3080
      6  C         15.7840  -24.3850   -8.0460 C.3     1  UNL1        0.1720
      7  N         15.6120  -23.7280   -6.7210 N.3     1  UNL1       -0.2040
      8  C         15.4510  -22.2580   -6.8650 C.3     1  UNL1        0.1300
      9  S         16.8020  -24.2150   -5.6020 S.O2    1  UNL1        0.2430
     10  O         16.1790  -24.3270   -4.3000 O.2     1  UNL1       -0.2060
     11  O         17.5130  -25.3320   -6.1880 O.2     1  UNL1       -0.2060
     12  C         17.8920  -22.8160   -5.5400 C.2     1  UNL1        0.0740
     13  C         18.8340  -22.6130   -6.5510 C.2     1  UNL1        0.0250
     14  C         19.6830  -21.5080   -6.4840 C.2     1  UNL1        0.0080
     15  C         19.5920  -20.6030   -5.4160 C.2     1  UNL1       -0.0620
     16  C         20.5310  -19.4360   -5.3290 C.3     1  UNL1        0.0480
     17  C         18.6570  -20.8350   -4.3970 C.2     1  UNL1        0.0080
     18  C         17.8050  -21.9380   -4.4570 C.2     1  UNL1        0.0250
     19  C         19.1210  -21.8600  -10.4830 C.2     1  UNL1        0.2800
     20  O         19.4190  -20.7630  -10.9440 O.2     1  UNL1       -0.2650
     21  N         20.0200  -22.9000  -10.3060 N.am    1  UNL1       -0.3160
     22  H         19.6320  -23.8300  -10.2190 H       1  UNL1        0.1690
     23  C         21.4250  -22.8600  -10.4690 C.2     1  UNL1        0.1130
     24  C         22.1930  -23.2170   -9.3530 C.2     1  UNL1        0.1460
     25  F         21.5710  -23.5730   -8.2160 F       1  UNL1       -0.2040
     26  C         23.5870  -23.2280   -9.3840 C.2     1  UNL1        0.0450
     27  C         24.2490  -22.8600  -10.5510 C.2     1  UNL1        0.0060
     28  C         23.5090  -22.4680  -11.6650 C.2     1  UNL1        0.0450
     29  C         22.1110  -22.4610  -11.6210 C.2     1  UNL1        0.1460
     30  F         21.4720  -21.9760  -12.6920 F       1  UNL1       -0.2040
@<TRIPOS>BOND
     1    30    29    1
     2    28    29    1
     3    28    27    2
     4    29    23    2
     5    20    19    2
     6     3     4    2
     7     3     2    1
     8    27    26    1
     9    19    21   am
    10    19     4    1
    11    23    21    1
    12    23    24    1
    13    21    22    1
    14     4     5    1
    15     2     1    2
    16    26    24    2
    17    24    25    1
    18     5     1    1
    19     1     6    1
    20     6     7    1
    21     8     7    1
    22     7     9    1
    23    13    14    1
    24    13    12    2
    25    14    15    2
    26    11     9    2
    27     9    12    1
    28     9    10    2
    29    12    18    1
    30    15    16    1
    31    15    17    1
    32    18    17    2
