@<TRIPOS>MOLECULE
68547_out_ligand_01.pdbqt
 30 32 0 0 0
SMALL
GASTEIGER

@<TRIPOS>ATOM
      1  C         21.0230  -22.1350  -11.3130 C.2     1  UNL1        0.0720
      2  C         20.4570  -21.1990  -12.1490 C.2     1  UNL1        0.0370
      3  C         19.1210  -21.0280  -11.7090 C.2     1  UNL1        0.0450
      4  C         18.9390  -21.8700  -10.6220 C.2     1  UNL1        0.1430
      5  O         20.1120  -22.5450  -10.3890 O.2     1  UNL1       -0.3080
      6  C         22.3790  -22.7420  -11.2270 C.3     1  UNL1        0.1990
      7  N         23.3110  -21.7700  -10.6110 N.3     1  UNL1       -0.3050
      8  C         23.0610  -21.5530   -9.1700 C.3     1  UNL1        0.1630
      9  S         24.9350  -21.9070  -11.0870 S.O2    1  UNL1        0.2600
     10  O         25.4790  -23.1170  -10.5060 O.2     1  UNL1       -0.2000
     11  O         25.5780  -20.6280  -10.8660 O.2     1  UNL1       -0.2000
     12  C         24.8270  -22.1600  -12.8460 C.2     1  UNL1        0.0790
     13  C         24.3720  -21.1250  -13.6670 C.2     1  UNL1        0.0260
     14  C         24.3070  -21.3210  -15.0470 C.2     1  UNL1        0.0080
     15  C         24.6980  -22.5430  -15.6120 C.2     1  UNL1       -0.0620
     16  C         24.6620  -22.7370  -17.0990 C.3     1  UNL1        0.0480
     17  C         25.1890  -23.5570  -14.7790 C.2     1  UNL1        0.0080
     18  C         25.2570  -23.3690  -13.3980 C.2     1  UNL1        0.0260
     19  C         17.8140  -22.1530   -9.7350 C.2     1  UNL1        0.2800
     20  O         16.6530  -22.0280  -10.1120 O.2     1  UNL1       -0.2650
     21  N         18.1920  -22.5630   -8.4620 N.am    1  UNL1       -0.3210
     22  H         19.1830  -22.6050   -8.2930 H       1  UNL1        0.1690
     23  C         17.3670  -22.9230   -7.3650 C.2     1  UNL1        0.0410
     24  C         16.2480  -23.7500   -7.5150 C.2     1  UNL1        0.0300
     25  C         15.4540  -24.0900   -6.4210 C.2     1  UNL1        0.0030
     26  C         15.7650  -23.6080   -5.1570 C.2     1  UNL1        0.0070
     27  C         16.8780  -22.7760   -4.9630 C.2     1  UNL1       -0.0540
     28  C         17.1590  -22.2880   -3.5670 C.3     1  UNL1        0.0490
     29  C         17.6920  -22.4270   -6.0720 C.2     1  UNL1       -0.0290
     30  C         18.8950  -21.5310   -5.8790 C.3     1  UNL1        0.0510
@<TRIPOS>BOND
     1    16    15    1
     2    15    14    2
     3    15    17    1
     4    14    13    1
     5    17    18    2
     6    13    12    2
     7    18    12    1
     8    12     9    1
     9     2     3    1
    10     2     1    2
    11     3     4    2
    12     1     6    1
    13     1     5    1
    14     6     7    1
    15     9    11    2
    16     9     7    1
    17     9    10    2
    18     4     5    1
    19     4    19    1
    20     7     8    1
    21    20    19    2
    22    19    21   am
    23    21    22    1
    24    21    23    1
    25    24    23    2
    26    24    25    1
    27    23    29    1
    28    25    26    2
    29    29    30    1
    30    29    27    2
    31    26    27    1
    32    27    28    1
