@<TRIPOS>MOLECULE
68544_out_ligand_01.pdbqt
 31 34 0 0 0
SMALL
GASTEIGER

@<TRIPOS>ATOM
      1  C         17.5440  -23.2280   -9.1430 C.2     1  UNL1        0.0800
      2  C         18.6150  -23.7530   -8.3980 C.2     1  UNL1        0.0270
      3  C         19.9310  -23.5160   -8.8020 C.2     1  UNL1        0.0320
      4  C         20.1480  -22.7410   -9.9300 C.2     1  UNL1        0.0430
      5  C         19.0810  -22.1720  -10.6290 C.2     1  UNL1       -0.0280
      6  C         17.7670  -22.4040  -10.2520 C.2     1  UNL1        0.0340
      7  C         19.5600  -21.3680  -11.7950 C.2     1  UNL1        0.0610
      8  C         21.0840  -21.5070  -11.6820 C.2     1  UNL1        0.1370
      9  N         21.3660  -22.4090  -10.5500 N.am    1  UNL1       -0.3130
     10  C         22.6000  -22.9470  -10.2260 C.2     1  UNL1        0.2580
     11  O         22.8180  -23.8220   -9.3950 O.2     1  UNL1       -0.2670
     12  S         15.8730  -23.6490   -8.6910 S.O2    1  UNL1        0.2630
     13  O         15.0380  -23.4980   -9.8640 O.2     1  UNL1       -0.2000
     14  O         15.9220  -24.8970   -7.9570 O.2     1  UNL1       -0.2000
     15  N         15.4770  -22.4500   -7.5570 N.pl3   1  UNL1       -0.2810
     16  H         14.5770  -22.0210   -7.7690 H       1  UNL1        0.1790
     17  C         15.7730  -22.7030   -6.1860 C.2     1  UNL1        0.0430
     18  C         14.8890  -23.4430   -5.4040 C.2     1  UNL1        0.0300
     19  C         15.1290  -23.5930   -4.0380 C.2     1  UNL1        0.0040
     20  C         16.2400  -22.9810   -3.4520 C.2     1  UNL1        0.0180
     21  C         17.1160  -22.2190   -4.2310 C.2     1  UNL1        0.0020
     22  C         16.8930  -22.1020   -5.6060 C.2     1  UNL1        0.0480
     23  S         18.5120  -21.3790   -3.5030 S.3     1  UNL1       -0.1340
     24  C         19.2160  -20.6280   -5.0010 C.3     1  UNL1        0.0950
     25  C         23.7580  -22.4470  -10.9920 C.2     1  UNL1        0.0320
     26  C         24.5670  -21.4420  -10.4600 C.2     1  UNL1        0.0170
     27  C         25.6610  -20.9810  -11.1940 C.2     1  UNL1        0.0070
     28  C         25.9550  -21.5310  -12.4500 C.2     1  UNL1       -0.0620
     29  C         27.1210  -21.0140  -13.2420 C.3     1  UNL1        0.0480
     30  C         25.1320  -22.5390  -12.9720 C.2     1  UNL1        0.0070
     31  C         24.0380  -23.0060  -12.2420 C.2     1  UNL1        0.0170
@<TRIPOS>BOND
     1    29    28    1
     2    30    28    2
     3    30    31    1
     4    28    27    1
     5    31    25    2
     6     7     8    2
     7     7     5    1
     8     8     9    1
     9    27    26    2
    10    25    26    1
    11    25    10    1
    12     5     6    1
    13     5     4    2
    14     9    10   am
    15     9     4    1
    16     6     1    2
    17    10    11    2
    18     4     3    1
    19    13    12    2
    20     1    12    1
    21     1     2    1
    22     3     2    2
    23    12    14    2
    24    12    15    1
    25    16    15    1
    26    15    17    1
    27    17    22    2
    28    17    18    1
    29    22    21    1
    30    18    19    2
    31    24    23    1
    32    21    23    1
    33    21    20    2
    34    19    20    1
