@<TRIPOS>MOLECULE
68579_out_ligand_01.pdbqt
 37 41 0 0 0
SMALL
GASTEIGER

@<TRIPOS>ATOM
      1  C         23.1960  -21.9870  -11.7940 C.2     1  UNL1        0.0750
      2  C         23.3360  -22.0830  -10.4070 C.2     1  UNL1        0.0270
      3  C         22.2020  -22.0220   -9.5900 C.2     1  UNL1        0.0310
      4  C         20.9320  -21.8580  -10.1490 C.2     1  UNL1        0.0340
      5  C         20.8090  -21.7520  -11.5410 C.2     1  UNL1        0.0310
      6  C         21.9360  -21.8120  -12.3660 C.2     1  UNL1        0.0270
      7  N         19.7430  -21.7820   -9.3970 N.am    1  UNL1       -0.3260
      8  C         19.4010  -22.5040   -8.2630 C.2     1  UNL1        0.2350
      9  O         20.0870  -23.3730   -7.7260 O.2     1  UNL1       -0.2720
     10  H         19.0550  -21.1120   -9.7220 H       1  UNL1        0.1690
     11  C         18.0220  -22.1390   -7.6820 C.2     1  UNL1        0.1490
     12  C         16.9490  -23.0830   -8.1760 C.2     1  UNL1       -0.0070
     13  C         16.6060  -23.1290   -9.5370 C.3     1  UNL1        0.0110
     14  C         16.3030  -23.9410   -7.2830 C.2     1  UNL1        0.0830
     15  C         15.6390  -24.0260   -9.9910 C.2     1  UNL1        0.0010
     16  C         15.0060  -24.8840   -9.0940 C.2     1  UNL1        0.0030
     17  C         15.3400  -24.8410   -7.7400 C.2     1  UNL1        0.0380
     18  O         16.5680  -23.9700   -5.9360 O.2     1  UNL1       -0.3100
     19  C         17.3540  -22.9790   -5.4000 C.2     1  UNL1        0.0830
     20  C         17.4190  -22.9310   -4.0060 C.2     1  UNL1        0.0380
     21  C         18.0680  -22.0600   -6.1720 C.2     1  UNL1       -0.0070
     22  C         18.1910  -21.9570   -3.3740 C.2     1  UNL1        0.0030
     23  C         18.9000  -21.0310   -4.1360 C.2     1  UNL1        0.0010
     24  C         18.8410  -21.0810   -5.5290 C.2     1  UNL1        0.0110
     25  S         24.6440  -22.0320  -12.8200 S.O2    1  UNL1        0.2480
     26  O         25.7350  -21.3670  -12.1380 O.2     1  UNL1       -0.2050
     27  O         24.7950  -23.4070  -13.2550 O.2     1  UNL1       -0.2050
     28  N         24.2050  -21.1720  -14.1700 N.pl3   1  UNL1       -0.1480
     29  H         23.2350  -20.8780  -14.1690 H       1  UNL1        0.1490
     30  C         24.6320  -21.6530  -15.4000 C.cat   1  UNL1        0.2160
     31  N         25.6710  -21.0720  -15.9990 N.2     1  UNL1       -0.2230
     32  C         25.9370  -21.4840  -17.2520 C.2     1  UNL1        0.0360
     33  C         25.1580  -22.4220  -17.9030 C.2     1  UNL1        0.0530
     34  C         27.1210  -20.8740  -17.9400 C.3     1  UNL1        0.0700
     35  C         24.0720  -22.9190  -17.2060 C.2     1  UNL1        0.0360
     36  C         23.1620  -23.9260  -17.8410 C.3     1  UNL1        0.0700
     37  N         23.7800  -22.5250  -15.9500 N.2     1  UNL1       -0.2230
@<TRIPOS>BOND
     1    34    32    1
     2    33    32    2
     3    33    35    1
     4    36    35    1
     5    32    31    1
     6    35    37    2
     7    31    30    2
     8    37    30    1
     9    30    28    1
    10    28    29    1
    11    28    25    1
    12    27    25    2
    13    25    26    2
    14    25     1    1
    15     6     1    2
    16     6     5    1
    17     1     2    1
    18     5     4    2
    19     2     3    2
    20     4     3    1
    21     4     7    1
    22    15    13    1
    23    15    16    2
    24    10     7    1
    25    13    12    1
    26     7     8   am
    27    16    17    1
    28     8     9    2
    29     8    11    1
    30    12    11    2
    31    12    14    1
    32    17    14    2
    33    11    21    1
    34    14    18    1
    35    21    24    1
    36    21    19    2
    37    18    19    1
    38    24    23    2
    39    19    20    1
    40    23    22    1
    41    20    22    2
