@<TRIPOS>MOLECULE
6858_out_ligand_01.pdbqt
 33 36 0 0 0
SMALL
GASTEIGER

@<TRIPOS>ATOM
      1  C         20.1610  -21.8060  -10.9470 C.2     1  UNL1        0.0910
      2  C         20.7200  -21.3250  -12.1360 C.2     1  UNL1        0.0390
      3  C         22.0060  -21.7060  -12.5330 C.2     1  UNL1        0.0110
      4  C         22.7650  -22.5850  -11.7530 C.2     1  UNL1       -0.0380
      5  C         22.2200  -23.0570  -10.5530 C.2     1  UNL1        0.0370
      6  C         20.9230  -22.6790  -10.1570 C.2     1  UNL1        0.1130
      7  S         20.3210  -23.3000   -8.6000 S.O2    1  UNL1        0.2660
      8  O         20.9390  -24.5980   -8.3970 O.2     1  UNL1       -0.2000
      9  O         20.4260  -22.3000   -7.5620 O.2     1  UNL1       -0.2000
     10  N         18.6970  -23.6530   -8.9220 N.pl3   1  UNL1       -0.2800
     11  H         18.6180  -24.4690   -9.5260 H       1  UNL1        0.1790
     12  C         17.7420  -23.5120   -7.8770 C.2     1  UNL1        0.0490
     13  C         18.1760  -23.7350   -6.5660 C.2     1  UNL1        0.0370
     14  C         17.2870  -23.6350   -5.4910 C.2     1  UNL1       -0.0600
     15  C         17.7500  -23.9170   -4.0930 C.3     1  UNL1        0.0480
     16  C         15.9470  -23.3320   -5.7490 C.2     1  UNL1        0.0070
     17  C         15.5130  -23.1030   -7.0570 C.2     1  UNL1        0.0090
     18  C         16.4070  -23.1740   -8.1380 C.2     1  UNL1       -0.0350
     19  C         15.8780  -22.9520   -9.5260 C.3     1  UNL1        0.0500
     20  O         18.9060  -21.4870  -10.5180 O.2     1  UNL1       -0.3540
     21  C         18.0190  -20.8460  -11.4220 C.3     1  UNL1        0.2100
     22  C         24.1670  -22.9670  -12.1700 C.3     1  UNL1        0.1740
     23  N         24.8200  -21.8840  -12.8690 N.am    1  UNL1       -0.2740
     24  C         24.8930  -21.7860  -14.2290 C.2     1  UNL1        0.2630
     25  O         24.4140  -22.5110  -15.0800 O.2     1  UNL1       -0.2670
     26  C         25.6680  -20.5890  -14.5210 C.2     1  UNL1        0.0670
     27  C         26.0600  -20.0100  -15.7080 C.2     1  UNL1        0.0210
     28  C         26.0190  -20.0150  -13.3240 C.2     1  UNL1        0.1400
     29  C         26.8120  -18.8370  -15.6120 C.2     1  UNL1        0.0200
     30  C         27.1210  -18.3220  -14.3440 C.2     1  UNL1        0.1170
     31  N         26.7360  -18.8870  -13.1740 N.2     1  UNL1       -0.2540
     32  C         25.4660  -20.8490  -12.2460 C.2     1  UNL1        0.2800
     33  O         25.5680  -20.6430  -11.0500 O.2     1  UNL1       -0.2650
@<TRIPOS>BOND
     1    27    29    1
     2    27    26    2
     3    29    30    2
     4    25    24    2
     5    26    24    1
     6    26    28    1
     7    30    31    1
     8    24    23   am
     9    28    31    2
    10    28    32    1
    11    23    32   am
    12    23    22    1
    13     3     2    1
    14     3     4    2
    15    32    33    2
    16    22     4    1
    17     2     1    2
    18     4     5    1
    19    21    20    1
    20     1    20    1
    21     1     6    1
    22     5     6    2
    23     6     7    1
    24    19    18    1
    25    11    10    1
    26    10     7    1
    27    10    12    1
    28     7     8    2
    29     7     9    2
    30    18    12    2
    31    18    17    1
    32    12    13    1
    33    17    16    2
    34    13    14    2
    35    16    14    1
    36    14    15    1
