@<TRIPOS>MOLECULE
68591_out_ligand_01.pdbqt
 32 34 0 0 0
SMALL
GASTEIGER

@<TRIPOS>ATOM
      1  C         19.2010  -22.2580   -9.6010 C.2     1  UNL1       -0.0080
      2  C         19.2200  -22.1880   -8.2100 C.2     1  UNL1        0.0130
      3  C         20.4120  -22.4430   -7.5380 C.2     1  UNL1        0.0030
      4  C         21.5710  -22.7620   -8.2580 C.2     1  UNL1        0.0290
      5  C         21.5540  -22.8260   -9.6550 C.2     1  UNL1        0.0350
      6  C         20.3550  -22.5720  -10.3280 C.2     1  UNL1        0.0430
      7  C         17.9390  -22.0090  -10.3230 C.2     1  UNL1        0.0610
      8  N         16.7580  -21.9390   -9.7840 N.2     1  UNL1       -0.1760
      9  C         18.0470  -21.8310  -11.8180 C.3     1  UNL1        0.0730
     10  N         16.6290  -22.1370   -8.4420 N.am    1  UNL1       -0.2430
     11  C         16.0060  -23.2830   -7.9700 C.2     1  UNL1        0.2710
     12  O         15.5180  -24.1690   -8.6650 O.2     1  UNL1       -0.2660
     13  H         16.9060  -21.4030   -7.8030 H       1  UNL1        0.1920
     14  C         15.9090  -23.3900   -6.4870 C.2     1  UNL1        0.0360
     15  C         14.7930  -23.9550   -5.8550 C.2     1  UNL1        0.0170
     16  C         14.7540  -24.0360   -4.4630 C.2     1  UNL1        0.0040
     17  C         15.8200  -23.5460   -3.7070 C.2     1  UNL1        0.0370
     18  C         16.9270  -22.9600   -4.3270 C.2     1  UNL1        0.0690
     19  C         16.9680  -22.8810   -5.7190 C.2     1  UNL1        0.0530
     20  O         17.8920  -22.5130   -3.4670 O.2     1  UNL1       -0.3560
     21  C         18.5010  -21.2650   -3.7790 C.3     1  UNL1        0.2100
     22  N         22.6810  -23.1450  -10.4450 N.am    1  UNL1       -0.3230
     23  C         23.8110  -22.3710  -10.6390 C.2     1  UNL1        0.2560
     24  O         24.0130  -21.2420  -10.2070 O.2     1  UNL1       -0.2670
     25  H         22.6160  -24.0030  -10.9770 H       1  UNL1        0.1690
     26  C         24.8590  -22.9890  -11.5010 C.2     1  UNL1        0.0350
     27  C         26.1130  -23.2640  -10.9370 C.2     1  UNL1        0.0170
     28  C         27.1210  -23.8470  -11.7090 C.2     1  UNL1        0.0040
     29  C         26.8730  -24.1680  -13.0420 C.2     1  UNL1        0.0420
     30  C         25.6200  -23.9100  -13.5890 C.2     1  UNL1        0.1170
     31  F         25.3800  -24.2330  -14.8660 F       1  UNL1       -0.2060
     32  C         24.6070  -23.3270  -12.8340 C.2     1  UNL1        0.0590
@<TRIPOS>BOND
     1    31    30    1
     2    30    29    2
     3    30    32    1
     4    29    28    1
     5    32    26    2
     6     9     7    1
     7    28    27    2
     8    26    27    1
     9    26    23    1
    10    25    22    1
    11    23    22   am
    12    23    24    2
    13    22     5    1
    14     6     5    1
    15     6     1    2
    16     7     8    2
    17     7     1    1
    18     8    10    1
    19     5     4    2
    20     1     2    1
    21    12    11    2
    22    10    11   am
    23    10    13    1
    24     4     3    1
    25     2     3    2
    26    11    14    1
    27    14    15    2
    28    14    19    1
    29    15    16    1
    30    19    18    2
    31    16    17    2
    32    18    17    1
    33    18    20    1
    34    21    20    1
