@<TRIPOS>MOLECULE
68613_out_ligand_01.pdbqt
 26 28 0 0 0
SMALL
GASTEIGER

@<TRIPOS>ATOM
      1  N         20.7650  -22.7620   -9.8790 N.am    1  UNL1       -0.3230
      2  C         20.9870  -22.5650   -8.5280 C.2     1  UNL1        0.2570
      3  O         22.0050  -22.1540   -7.9880 O.2     1  UNL1       -0.2670
      4  H         19.8670  -23.1590  -10.1330 H       1  UNL1        0.1690
      5  C         21.6520  -22.4970  -10.9410 C.2     1  UNL1        0.0350
      6  C         22.9410  -23.0290  -11.0290 C.2     1  UNL1        0.0310
      7  C         23.7660  -22.7200  -12.1160 C.2     1  UNL1        0.0270
      8  C         23.3000  -21.8630  -13.1140 C.2     1  UNL1        0.0740
      9  C         22.0120  -21.3320  -13.0470 C.2     1  UNL1        0.0270
     10  C         21.1930  -21.6500  -11.9590 C.2     1  UNL1        0.0310
     11  S         24.3400  -21.4710  -14.4950 S.O2    1  UNL1        0.2390
     12  O         23.7520  -22.0340  -15.6870 O.2     1  UNL1       -0.2060
     13  O         25.7140  -21.7090  -14.1180 O.2     1  UNL1       -0.2060
     14  N         24.1700  -19.7980  -14.5770 N.3     1  UNL1       -0.2250
     15  H         23.3380  -19.5270  -14.0500 H       1  UNL1        0.1360
     16  H         24.1470  -19.4420  -15.5320 H       1  UNL1        0.1360
     17  C         19.8440  -22.9640   -7.6720 C.2     1  UNL1        0.0430
     18  C         19.1960  -24.1560   -8.0250 C.2     1  UNL1        0.0180
     19  C         18.0760  -24.5710   -7.3150 C.2     1  UNL1        0.0020
     20  C         17.6060  -23.8000   -6.2530 C.2     1  UNL1        0.0120
     21  C         18.2570  -22.6150   -5.8680 C.2     1  UNL1       -0.0250
     22  C         17.7750  -21.8650   -4.7830 C.2     1  UNL1        0.0120
     23  C         19.4080  -22.1800   -6.5710 C.2     1  UNL1       -0.0100
     24  C         18.4210  -20.6990   -4.3720 C.2     1  UNL1        0.0010
     25  C         19.5650  -20.2730   -5.0340 C.2     1  UNL1        0.0010
     26  C         20.0550  -21.0040   -6.1170 C.2     1  UNL1        0.0130
@<TRIPOS>BOND
     1    12    11    2
     2    16    14    1
     3    14    11    1
     4    14    15    1
     5    11    13    2
     6    11     8    1
     7     8     9    2
     8     8     7    1
     9     9    10    1
    10     7     6    2
    11    10     5    2
    12     6     5    1
    13     5     1    1
    14     4     1    1
    15     1     2   am
    16     2     3    2
    17     2    17    1
    18    18    17    2
    19    18    19    1
    20    17    23    1
    21    19    20    2
    22    23    26    1
    23    23    21    2
    24    20    21    1
    25    26    25    2
    26    21    22    1
    27    25    24    1
    28    22    24    2
