@<TRIPOS>MOLECULE
68666_out_ligand_01.pdbqt
 30 32 0 0 0
SMALL
GASTEIGER

@<TRIPOS>ATOM
      1  N         21.5210  -23.0890   -8.6990 N.am    1  UNL1       -0.3560
      2  C         20.5640  -24.0810   -8.6620 C.2     1  UNL1        0.2310
      3  O         20.8590  -25.2710   -8.7880 O.2     1  UNL1       -0.2720
      4  H         21.2300  -22.1200   -8.6800 H       1  UNL1        0.1620
      5  C         22.9120  -23.3670   -8.9670 C.3     1  UNL1        0.1610
      6  C         23.3490  -22.6860  -10.2390 C.2     1  UNL1       -0.0400
      7  C         24.5540  -21.9650  -10.2720 C.2     1  UNL1        0.0100
      8  C         24.9820  -21.3510  -11.4490 C.2     1  UNL1        0.0250
      9  C         24.2070  -21.4700  -12.6060 C.2     1  UNL1        0.0740
     10  C         23.0040  -22.1800  -12.5910 C.2     1  UNL1        0.0250
     11  C         22.5820  -22.7930  -11.4090 C.2     1  UNL1        0.0100
     12  S         24.7530  -20.6870  -14.0990 S.O2    1  UNL1        0.2390
     13  O         25.3210  -21.6930  -14.9640 O.2     1  UNL1       -0.2060
     14  O         25.4540  -19.4710  -13.7520 O.2     1  UNL1       -0.2060
     15  N         23.2910  -20.1870  -14.7700 N.3     1  UNL1       -0.2250
     16  H         23.0630  -20.6690  -15.6380 H       1  UNL1        0.1360
     17  H         22.5560  -20.2910  -14.0670 H       1  UNL1        0.1360
     18  C         19.0950  -23.6230   -8.5170 C.3     1  UNL1        0.1430
     19  C         18.6270  -22.7310   -9.6690 C.2     1  UNL1       -0.0410
     20  C         17.2820  -22.3220   -9.7120 C.2     1  UNL1        0.0080
     21  C         16.8190  -21.4910  -10.7340 C.2     1  UNL1        0.0010
     22  C         17.6920  -21.0540  -11.7260 C.2     1  UNL1        0.0000
     23  C         19.0280  -21.4440  -11.6970 C.2     1  UNL1        0.0010
     24  C         19.4960  -22.2730  -10.6740 C.2     1  UNL1        0.0080
     25  C         18.7580  -23.0800   -7.1240 C.2     1  UNL1       -0.0410
     26  C         19.2150  -21.8320   -6.6670 C.2     1  UNL1        0.0080
     27  C         18.9150  -21.3920   -5.3760 C.2     1  UNL1        0.0010
     28  C         18.1630  -22.1950   -4.5210 C.2     1  UNL1        0.0000
     29  C         17.7070  -23.4370   -4.9550 C.2     1  UNL1        0.0010
     30  C         18.0040  -23.8780   -6.2450 C.2     1  UNL1        0.0080
@<TRIPOS>BOND
     1    16    15    1
     2    13    12    2
     3    15    12    1
     4    15    17    1
     5    12    14    2
     6    12     9    1
     7     9    10    2
     8     9     8    1
     9    10    11    1
    10    22    23    2
    11    22    21    1
    12    23    24    1
    13     8     7    2
    14    11     6    2
    15    21    20    2
    16    24    19    2
    17     7     6    1
    18     6     5    1
    19    20    19    1
    20    19    18    1
    21     5     1    1
    22     3     2    2
    23     1     4    1
    24     1     2   am
    25     2    18    1
    26    18    25    1
    27    25    26    2
    28    25    30    1
    29    26    27    1
    30    30    29    2
    31    27    28    2
    32    29    28    1
