@<TRIPOS>MOLECULE
68673_out_ligand_01.pdbqt
 33 36 0 0 0
SMALL
GASTEIGER

@<TRIPOS>ATOM
      1  O         21.1460  -22.1630   -7.4050 O.2     1  UNL1       -0.2720
      2  C         20.2730  -22.7730   -8.0150 C.2     1  UNL1        0.2350
      3  N         20.3520  -23.1440   -9.3570 N.am    1  UNL1       -0.3260
      4  H         19.6040  -23.7350   -9.7040 H       1  UNL1        0.1690
      5  C         21.3960  -22.8820  -10.2670 C.2     1  UNL1        0.0340
      6  C         22.7030  -23.3520  -10.1150 C.2     1  UNL1        0.0310
      7  C         23.6860  -23.0460  -11.0640 C.2     1  UNL1        0.0270
      8  C         23.3570  -22.2670  -12.1740 C.2     1  UNL1        0.0750
      9  C         22.0590  -21.7760  -12.3320 C.2     1  UNL1        0.0270
     10  C         21.0850  -22.0870  -11.3800 C.2     1  UNL1        0.0310
     11  S         24.5950  -21.8470  -13.3730 S.O2    1  UNL1        0.2470
     12  O         25.3210  -23.0570  -13.7020 O.2     1  UNL1       -0.2050
     13  O         25.3010  -20.6720  -12.9100 O.2     1  UNL1       -0.2050
     14  N         23.6580  -21.5170  -14.7310 N.pl3   1  UNL1       -0.1590
     15  H         22.7550  -21.9740  -14.6330 H       1  UNL1        0.1480
     16  C         24.3370  -21.8210  -15.9660 C.2     1  UNL1        0.1580
     17  N         23.9710  -22.8420  -16.7010 N.2     1  UNL1       -0.2400
     18  C         24.8060  -22.9260  -17.7990 C.2     1  UNL1        0.1260
     19  C         25.8160  -21.9870  -17.8530 C.2     1  UNL1        0.0720
     20  S         25.7200  -20.9640  -16.4790 S.3     1  UNL1       -0.0680
     21  C         18.9300  -23.2030   -7.3710 C.3     1  UNL1        0.1440
     22  C         18.6830  -22.5460   -6.0100 C.2     1  UNL1       -0.0410
     23  C         18.0540  -23.2350   -4.9610 C.2     1  UNL1        0.0080
     24  C         17.8370  -22.6120   -3.7310 C.2     1  UNL1        0.0010
     25  C         18.2540  -21.2980   -3.5290 C.2     1  UNL1        0.0000
     26  C         18.8940  -20.6060   -4.5560 C.2     1  UNL1        0.0010
     27  C         19.1110  -21.2270   -5.7880 C.2     1  UNL1        0.0080
     28  C         17.7140  -23.0880   -8.2880 C.2     1  UNL1       -0.0410
     29  C         16.6380  -23.9810   -8.1370 C.2     1  UNL1        0.0080
     30  C         15.5040  -23.8760   -8.9460 C.2     1  UNL1        0.0010
     31  C         15.4250  -22.8770   -9.9120 C.2     1  UNL1        0.0000
     32  C         16.4790  -21.9810  -10.0700 C.2     1  UNL1        0.0010
     33  C         17.6130  -22.0840   -9.2620 C.2     1  UNL1        0.0080
@<TRIPOS>BOND
     1    19    18    2
     2    19    20    1
     3    18    17    1
     4    17    16    2
     5    20    16    1
     6    16    14    1
     7    14    15    1
     8    14    11    1
     9    12    11    2
    10    11    13    2
    11    11     8    1
    12     9     8    2
    13     9    10    1
    14     8     7    1
    15    10     5    2
    16     7     6    2
    17     5     6    1
    18     5     3    1
    19    32    31    2
    20    32    33    1
    21    31    30    1
    22     4     3    1
    23     3     2   am
    24    33    28    2
    25    30    29    2
    26    28    29    1
    27    28    21    1
    28     2     1    2
    29     2    21    1
    30    21    22    1
    31    22    27    2
    32    22    23    1
    33    27    26    1
    34    23    24    2
    35    26    25    2
    36    24    25    1
