@<TRIPOS>MOLECULE
68677_out_ligand_01.pdbqt
 34 37 0 0 0
SMALL
GASTEIGER

@<TRIPOS>ATOM
      1  C         21.5700  -22.2430   -9.8890 C.2     1  UNL1        0.0340
      2  C         22.8070  -21.9330   -9.3180 C.2     1  UNL1        0.0310
      3  C         23.9290  -21.7130  -10.1260 C.2     1  UNL1        0.0270
      4  C         23.8150  -21.8160  -11.5120 C.2     1  UNL1        0.0750
      5  C         22.5830  -22.1090  -12.1000 C.2     1  UNL1        0.0270
      6  C         21.4670  -22.3230  -11.2860 C.2     1  UNL1        0.0310
      7  N         20.3930  -22.4700   -9.1500 N.am    1  UNL1       -0.3260
      8  C         20.0270  -23.6180   -8.4580 C.2     1  UNL1        0.2350
      9  O         20.6960  -24.6500   -8.3980 O.2     1  UNL1       -0.2720
     10  H         19.7160  -21.7170   -9.1650 H       1  UNL1        0.1690
     11  C         18.6910  -23.5130   -7.6820 C.3     1  UNL1        0.1440
     12  C         18.7640  -22.5770   -6.4740 C.2     1  UNL1       -0.0410
     13  C         19.6170  -21.4620   -6.4270 C.2     1  UNL1        0.0080
     14  C         19.6300  -20.6210   -5.3110 C.2     1  UNL1        0.0010
     15  C         18.7880  -20.8760   -4.2300 C.2     1  UNL1        0.0000
     16  C         17.9320  -21.9730   -4.2630 C.2     1  UNL1        0.0010
     17  C         17.9180  -22.8160   -5.3750 C.2     1  UNL1        0.0080
     18  C         17.4770  -23.2910   -8.5920 C.2     1  UNL1       -0.0410
     19  C         16.3300  -24.1020   -8.5360 C.2     1  UNL1        0.0080
     20  C         15.2300  -23.8360   -9.3540 C.2     1  UNL1        0.0010
     21  C         15.2560  -22.7550  -10.2330 C.2     1  UNL1        0.0000
     22  C         16.3820  -21.9400  -10.2970 C.2     1  UNL1        0.0010
     23  C         17.4840  -22.2030   -9.4820 C.2     1  UNL1        0.0080
     24  S         25.2230  -21.5060  -12.5500 S.O2    1  UNL1        0.2480
     25  O         25.9260  -20.3850  -11.9560 O.2     1  UNL1       -0.2050
     26  O         25.9230  -22.7480  -12.7990 O.2     1  UNL1       -0.2050
     27  N         24.5600  -20.9270  -13.9580 N.pl3   1  UNL1       -0.1480
     28  H         24.5530  -19.9160  -14.0160 H       1  UNL1        0.1490
     29  C         24.9530  -21.5360  -15.1440 C.cat   1  UNL1        0.2150
     30  N         26.0550  -20.9980  -15.6760 N.2     1  UNL1       -0.2300
     31  C         26.3920  -21.4630  -16.8940 C.2     1  UNL1        0.1210
     32  C         25.6500  -22.3920  -17.5840 C.2     1  UNL1        0.0390
     33  C         24.5080  -22.8270  -16.9530 C.2     1  UNL1        0.1210
     34  N         24.1240  -22.3950  -15.7380 N.2     1  UNL1       -0.2300
@<TRIPOS>BOND
     1    32    33    1
     2    32    31    2
     3    33    34    2
     4    31    30    1
     5    34    29    1
     6    30    29    2
     7    29    27    1
     8    28    27    1
     9    27    24    1
    10    26    24    2
    11    24    25    2
    12    24     4    1
    13     5     4    2
    14     5     6    1
    15     4     3    1
    16     6     1    2
    17    22    21    2
    18    22    23    1
    19    21    20    1
    20     3     2    2
    21     1     2    1
    22     1     7    1
    23    23    18    2
    24    20    19    2
    25    10     7    1
    26     7     8   am
    27    18    19    1
    28    18    11    1
    29     8     9    2
    30     8    11    1
    31    11    12    1
    32    12    13    2
    33    12    17    1
    34    13    14    1
    35    17    16    2
    36    14    15    2
    37    16    15    1
