@<TRIPOS>MOLECULE
6867_out_ligand_01.pdbqt
 33 36 0 0 0
SMALL
GASTEIGER

@<TRIPOS>ATOM
      1  C         26.7530  -23.5140  -10.6390 C.3     1  UNL1        0.0480
      2  C         25.4620  -22.9120  -11.1130 C.2     1  UNL1       -0.0610
      3  C         25.4610  -21.9540  -12.1310 C.2     1  UNL1        0.0090
      4  C         24.2760  -21.3560  -12.5700 C.2     1  UNL1        0.0310
      5  C         23.0850  -21.7420  -11.9450 C.ar    1  UNL1        0.0430
      6  N         21.7950  -21.3260  -12.1680 N.ar    1  UNL1       -0.3520
      7  C         20.9250  -21.9670  -11.3230 C.ar    1  UNL1        0.0950
      8  C         19.5190  -21.7100  -11.3670 C.2     1  UNL1        0.2230
      9  N         18.6320  -22.2840  -10.5800 N.2     1  UNL1       -0.2030
     10  C         17.4480  -21.7430  -11.0110 C.2     1  UNL1        0.1580
     11  N         17.5680  -20.8610  -12.0120 N.4     1  UNL1       -0.1110
     12  O         18.9390  -20.8380  -12.2550 O.2     1  UNL1       -0.1890
     13  C         21.6680  -22.8220  -10.5200 C.ar    1  UNL1       -0.0180
     14  C         21.1420  -23.7160   -9.4520 C.3     1  UNL1        0.0520
     15  C         23.0400  -22.6810  -10.9170 C.ar    1  UNL1       -0.0010
     16  C         24.2520  -23.2680  -10.4930 C.2     1  UNL1        0.0210
     17  H         21.5290  -20.6390  -12.8610 H       1  UNL1        0.1660
     18  C         16.1410  -22.0890  -10.4000 C.3     1  UNL1        0.1030
     19  C         16.1980  -23.3280   -9.4990 C.3     1  UNL1        0.1330
     20  N         16.2140  -23.0400   -8.0590 N.am    1  UNL1       -0.3520
     21  C         15.4220  -21.9030   -7.6010 C.3     1  UNL1        0.1520
     22  C         17.2520  -23.6000   -7.3150 C.2     1  UNL1        0.2540
     23  O         18.0990  -24.3590   -7.7760 O.2     1  UNL1       -0.2670
     24  C         17.3630  -23.2650   -5.8820 C.2     1  UNL1        0.0470
     25  C         16.5310  -23.9370   -4.9770 C.2     1  UNL1        0.0180
     26  C         16.6370  -23.6740   -3.6120 C.2     1  UNL1        0.0010
     27  C         17.5810  -22.7560   -3.1540 C.2     1  UNL1        0.0010
     28  C         18.4220  -22.1020   -4.0580 C.2     1  UNL1        0.0170
     29  C         18.3260  -22.3480   -5.4380 C.2     1  UNL1        0.0630
     30  C         19.2500  -21.6550   -6.4060 C.3     1  UNL1        0.4180
     31  F         18.6350  -21.2730   -7.5590 F       1  UNL1       -0.1660
     32  F         19.7720  -20.5020   -5.8880 F       1  UNL1       -0.1660
     33  F         20.3220  -22.4070   -6.7620 F       1  UNL1       -0.1660
@<TRIPOS>BOND
     1    17     6    1
     2     4     3    1
     3     4     5    2
     4    12    11    1
     5    12     8    1
     6     6     5   ar
     7     6     7   ar
     8     3     2    2
     9    11    10    1
    10     5    15   ar
    11     8     7    1
    12     8     9    2
    13     7    13   ar
    14     2     1    1
    15     2    16    1
    16    10     9    2
    17    10    18    1
    18    15    13   ar
    19    15    16    2
    20    13    14    1
    21    18    19    1
    22    19    20    1
    23    20    21    1
    24    20    22   am
    25    23    22    2
    26    31    30    1
    27    22    24    1
    28    33    30    1
    29    30    32    1
    30    30    29    1
    31    24    29    2
    32    24    25    1
    33    29    28    1
    34    25    26    2
    35    28    27    2
    36    26    27    1
