@<TRIPOS>MOLECULE
68683_out_ligand_01.pdbqt
 40 44 0 0 0
SMALL
GASTEIGER

@<TRIPOS>ATOM
      1  N         22.2360  -23.2220   -9.6700 N.am    1  UNL1       -0.3230
      2  C         22.3800  -22.3650  -10.7450 C.2     1  UNL1        0.2570
      3  O         21.5830  -21.5290  -11.1520 O.2     1  UNL1       -0.2670
      4  H         22.9420  -23.9400   -9.5610 H       1  UNL1        0.1690
      5  C         21.1760  -23.2480   -8.7400 C.2     1  UNL1        0.0350
      6  C         20.2470  -24.2890   -8.6520 C.2     1  UNL1        0.0310
      7  C         19.2080  -24.2370   -7.7160 C.2     1  UNL1        0.0270
      8  C         19.1000  -23.1390   -6.8600 C.2     1  UNL1        0.0750
      9  C         20.0270  -22.0980   -6.9290 C.2     1  UNL1        0.0270
     10  C         21.0550  -22.1520   -7.8760 C.2     1  UNL1        0.0310
     11  S         17.7860  -23.0680   -5.6700 S.O2    1  UNL1        0.2470
     12  O         18.2570  -22.3240   -4.5220 O.2     1  UNL1       -0.2050
     13  O         17.2440  -24.4050   -5.5260 O.2     1  UNL1       -0.2050
     14  N         16.5830  -22.2220   -6.5050 N.pl3   1  UNL1       -0.1650
     15  H         16.7490  -21.2260   -6.3710 H       1  UNL1        0.1470
     16  C         16.4200  -22.6140   -7.8560 C.2     1  UNL1        0.1200
     17  C         15.6800  -23.7260   -8.1790 C.2     1  UNL1        0.0720
     18  C         15.5410  -23.9750   -9.5270 C.2     1  UNL1        0.0360
     19  C         14.7460  -25.1550  -10.0010 C.3     1  UNL1        0.0700
     20  N         16.0940  -23.1790  -10.4660 N.2     1  UNL1       -0.2390
     21  C         16.7900  -22.1070  -10.0350 C.2     1  UNL1        0.1240
     22  N         16.9770  -21.7840   -8.7450 N.2     1  UNL1       -0.2210
     23  C         17.3720  -21.2020  -11.0780 C.3     1  UNL1        0.0930
     24  C         23.6250  -22.5770  -11.5160 C.2     1  UNL1        0.0470
     25  C         23.6080  -22.1460  -12.8410 C.2     1  UNL1        0.0500
     26  C         24.7330  -22.3750  -13.6090 C.2     1  UNL1        0.0690
     27  N         25.8360  -22.9840  -13.1160 N.2     1  UNL1       -0.2470
     28  C         25.8570  -23.3730  -11.8300 C.2     1  UNL1        0.0680
     29  C         27.0070  -23.9820  -11.3470 C.2     1  UNL1        0.0320
     30  C         24.7680  -23.1910  -10.9570 C.2     1  UNL1        0.0080
     31  C         27.1200  -24.4050  -10.0200 C.2     1  UNL1        0.0020
     32  C         26.0610  -24.2120   -9.1440 C.2     1  UNL1        0.0010
     33  C         24.8940  -23.6050   -9.6060 C.2     1  UNL1        0.0150
     34  C         24.8020  -21.9720  -15.0190 C.2     1  UNL1       -0.0010
     35  C         24.4690  -22.9130  -16.0120 C.2     1  UNL1        0.0140
     36  C         24.5410  -22.5890  -17.3660 C.2     1  UNL1        0.0010
     37  C         24.9460  -21.3160  -17.7540 C.2     1  UNL1        0.0010
     38  C         25.2710  -20.3640  -16.7880 C.2     1  UNL1        0.0070
     39  C         25.1930  -20.6720  -15.4190 C.2     1  UNL1       -0.0500
     40  C         25.5370  -19.6070  -14.4130 C.3     1  UNL1        0.0490
@<TRIPOS>BOND
     1    37    36    2
     2    37    38    1
     3    36    35    1
     4    38    39    2
     5    35    34    2
     6    39    34    1
     7    39    40    1
     8    34    26    1
     9    26    27    2
    10    26    25    1
    11    27    28    1
    12    25    24    2
    13    28    29    2
    14    28    30    1
    15    24    30    1
    16    24     2    1
    17    29    31    1
    18     3     2    2
    19    23    21    1
    20    30    33    2
    21     2     1   am
    22    20    21    2
    23    20    18    1
    24    21    22    1
    25    31    32    2
    26    19    18    1
    27     1     4    1
    28     1     5    1
    29    33    32    1
    30    18    17    2
    31    22    16    2
    32     5     6    2
    33     5    10    1
    34     6     7    1
    35    17    16    1
    36    10     9    2
    37    16    14    1
    38     7     8    2
    39     9     8    1
    40     8    11    1
    41    14    15    1
    42    14    11    1
    43    11    13    2
    44    11    12    2
