@<TRIPOS>MOLECULE
68681_out_ligand_01.pdbqt
 27 29 0 0 0
SMALL
GASTEIGER

@<TRIPOS>ATOM
      1  N         19.5940  -22.3590   -9.1720 N.am    1  UNL1       -0.3220
      2  C         19.4050  -23.5520   -8.4990 C.2     1  UNL1        0.2570
      3  O         20.0430  -24.5880   -8.6350 O.2     1  UNL1       -0.2670
      4  H         19.0940  -21.5610   -8.8010 H       1  UNL1        0.1690
      5  C         20.4710  -22.1160  -10.2530 C.2     1  UNL1        0.0420
      6  C         21.8520  -22.3110  -10.1380 C.2     1  UNL1        0.0540
      7  C         22.6940  -22.0380  -11.2210 C.2     1  UNL1        0.0760
      8  C         22.1780  -21.5910  -12.4340 C.2     1  UNL1        0.0250
      9  C         20.8020  -21.4210  -12.5650 C.2     1  UNL1        0.0100
     10  C         19.9360  -21.6820  -11.4860 C.2     1  UNL1       -0.0350
     11  C         18.4580  -21.4730  -11.6920 C.3     1  UNL1        0.0500
     12  S         24.4390  -22.2770  -11.0340 S.O2    1  UNL1        0.2390
     13  O         25.0110  -21.0570  -10.5100 O.2     1  UNL1       -0.2060
     14  O         24.9310  -22.9170  -12.2290 O.2     1  UNL1       -0.2060
     15  N         24.5270  -23.3760   -9.7620 N.3     1  UNL1       -0.2250
     16  H         23.7070  -23.9840   -9.7840 H       1  UNL1        0.1360
     17  H         25.4020  -23.9010   -9.7260 H       1  UNL1        0.1360
     18  C         18.3700  -23.4850   -7.4350 C.2     1  UNL1        0.0430
     19  C         17.3120  -24.3980   -7.5460 C.2     1  UNL1        0.0180
     20  C         16.3360  -24.4510   -6.5590 C.2     1  UNL1        0.0020
     21  C         16.4140  -23.5910   -5.4630 C.2     1  UNL1        0.0120
     22  C         17.4520  -22.6520   -5.3470 C.2     1  UNL1       -0.0250
     23  C         17.4980  -21.7850   -4.2440 C.2     1  UNL1        0.0120
     24  C         18.4510  -22.5720   -6.3490 C.2     1  UNL1       -0.0100
     25  C         18.5040  -20.8270   -4.1230 C.2     1  UNL1        0.0010
     26  C         19.4750  -20.7170   -5.1080 C.2     1  UNL1        0.0010
     27  C         19.4470  -21.5740   -6.2100 C.2     1  UNL1        0.0130
@<TRIPOS>BOND
     1     9     8    2
     2     9    10    1
     3     8     7    1
     4    14    12    2
     5    11    10    1
     6    10     5    2
     7     7    12    1
     8     7     6    2
     9    12    13    2
    10    12    15    1
    11     5     6    1
    12     5     1    1
    13    16    15    1
    14    15    17    1
    15     1     4    1
    16     1     2   am
    17     3     2    2
    18     2    18    1
    19    19    18    2
    20    19    20    1
    21    18    24    1
    22    20    21    2
    23    24    27    1
    24    24    22    2
    25    27    26    2
    26    21    22    1
    27    22    23    1
    28    26    25    1
    29    23    25    2
