@<TRIPOS>MOLECULE
68696_out_ligand_01.pdbqt
 29 31 0 0 0
SMALL
GASTEIGER

@<TRIPOS>ATOM
      1  N         20.8440  -22.9090   -9.3800 N.am    1  UNL1       -0.3270
      2  C         20.4770  -24.1720   -8.9470 C.2     1  UNL1        0.2230
      3  O         20.7180  -25.2330   -9.5160 O.2     1  UNL1       -0.2730
      4  H         20.5830  -22.1310   -8.7880 H       1  UNL1        0.1690
      5  C         19.6560  -24.1370   -7.6660 C.3     1  UNL1        0.1170
      6  C         18.8910  -22.8070   -7.5180 C.3     1  UNL1        0.0600
      7  C         18.6110  -22.3950   -6.0700 C.2     1  UNL1       -0.0490
      8  C         17.8960  -23.1980   -5.1650 C.2     1  UNL1        0.0080
      9  C         17.6670  -22.7660   -3.8550 C.2     1  UNL1        0.0010
     10  C         18.1410  -21.5280   -3.4310 C.2     1  UNL1        0.0000
     11  C         18.8430  -20.7150   -4.3160 C.2     1  UNL1        0.0010
     12  C         19.0740  -21.1430   -5.6250 C.2     1  UNL1        0.0080
     13  C         17.6190  -22.8450   -8.3690 C.2     1  UNL1       -0.0490
     14  C         17.4640  -21.9310   -9.4240 C.2     1  UNL1        0.0080
     15  C         16.3280  -21.9630  -10.2350 C.2     1  UNL1        0.0010
     16  C         15.3310  -22.9080  -10.0020 C.2     1  UNL1        0.0000
     17  C         15.4710  -23.8230   -8.9610 C.2     1  UNL1        0.0010
     18  C         16.6080  -23.7950   -8.1520 C.2     1  UNL1        0.0080
     19  C         21.5810  -22.5770  -10.5360 C.2     1  UNL1        0.0340
     20  C         22.9040  -22.9610  -10.7590 C.2     1  UNL1        0.0300
     21  C         23.5620  -22.5900  -11.9390 C.2     1  UNL1        0.0190
     22  C         22.9080  -21.8200  -12.9050 C.2     1  UNL1        0.0320
     23  C         21.5780  -21.4420  -12.6940 C.2     1  UNL1        0.0190
     24  C         20.9230  -21.8180  -11.5150 C.2     1  UNL1        0.0300
     25  C         23.6470  -21.4520  -14.1410 C.2     1  UNL1        0.2490
     26  N         23.2540  -20.3150  -14.7920 N.am    1  UNL1       -0.3660
     27  H         23.8660  -20.0160  -15.5420 H       1  UNL1        0.1590
     28  H         22.7260  -19.5950  -14.3210 H       1  UNL1        0.1590
     29  O         24.5920  -22.1130  -14.5500 O.2     1  UNL1       -0.2680
@<TRIPOS>BOND
     1    27    26    1
     2    26    28    1
     3    26    25   am
     4    29    25    2
     5    25    22    1
     6    22    23    2
     7    22    21    1
     8    23    24    1
     9    21    20    2
    10    24    19    2
    11    20    19    1
    12    19     1    1
    13    15    16    2
    14    15    14    1
    15    16    17    1
    16     3     2    2
    17    14    13    2
    18     1     2   am
    19     1     4    1
    20    17    18    2
    21     2     5    1
    22    13    18    1
    23    13     6    1
    24     5     6    1
    25     6     7    1
    26     7    12    2
    27     7     8    1
    28    12    11    1
    29     8     9    2
    30    11    10    2
    31     9    10    1
