@<TRIPOS>MOLECULE
68704_out_ligand_01.pdbqt
 33 36 0 0 0
SMALL
GASTEIGER

@<TRIPOS>ATOM
      1  N         20.0420  -23.4500   -9.2730 N.pl3   1  UNL1       -0.3460
      2  C         21.3390  -23.4330   -9.7080 C.2     1  UNL1        0.1050
      3  C         21.4240  -22.5940  -10.8040 C.2     1  UNL1        0.0110
      4  C         20.1100  -22.0740  -11.0290 C.2     1  UNL1        0.0040
      5  C         19.5580  -21.1830  -11.9750 C.2     1  UNL1        0.0140
      6  C         18.1940  -20.8740  -11.9260 C.2     1  UNL1        0.0010
      7  C         17.3780  -21.4380  -10.9530 C.2     1  UNL1        0.0020
      8  C         17.8950  -22.3210  -10.0020 C.2     1  UNL1        0.0300
      9  C         19.2650  -22.6230  -10.0580 C.2     1  UNL1        0.0450
     10  C         22.6240  -22.3090  -11.5630 C.3     1  UNL1        0.1460
     11  N         23.6960  -23.0070  -11.3470 N.3     1  UNL1       -0.2070
     12  N         24.7820  -22.6550  -12.1200 N.pl3   1  UNL1       -0.1640
     13  H         24.8980  -21.6340  -12.1560 H       1  UNL1        0.1570
     14  C         24.8470  -23.1500  -13.4620 C.2     1  UNL1        0.1550
     15  N         25.2390  -24.4370  -13.6730 N.2     1  UNL1       -0.2450
     16  C         25.3770  -24.8850  -14.9420 C.2     1  UNL1        0.1180
     17  C         25.1670  -24.1030  -16.0620 C.2     1  UNL1        0.0220
     18  C         24.7910  -22.7810  -15.8690 C.2     1  UNL1        0.0410
     19  C         24.6330  -22.3070  -14.5580 C.2     1  UNL1        0.1440
     20  N         24.2280  -20.9290  -14.3650 N.pl3   1  UNL1       -0.1120
     21  O         25.0750  -20.1380  -13.9240 O.2     1  UNL1       -0.5320
     22  O         23.0530  -20.6370  -14.6280 O.2     1  UNL1       -0.5320
     23  C         19.5640  -24.2430   -8.1490 C.3     1  UNL1        0.2310
     24  C         18.7940  -23.4370   -7.1160 C.2     1  UNL1        0.2400
     25  O         19.3500  -22.5050   -6.5360 O.2     1  UNL1       -0.2710
     26  N         17.5100  -23.8980   -6.8680 N.am    1  UNL1       -0.3260
     27  H         17.1690  -24.6480   -7.4600 H       1  UNL1        0.1690
     28  C         16.5760  -23.3930   -5.9400 C.2     1  UNL1        0.0340
     29  C         15.4780  -22.6940   -6.4610 C.2     1  UNL1        0.0290
     30  C         14.5020  -22.1640   -5.6140 C.2     1  UNL1        0.0020
     31  C         14.6140  -22.3270   -4.2360 C.2     1  UNL1        0.0000
     32  C         15.7000  -23.0210   -3.7090 C.2     1  UNL1        0.0020
     33  C         16.6770  -23.5530   -4.5580 C.2     1  UNL1        0.0290
@<TRIPOS>BOND
     1    17    18    2
     2    17    16    1
     3    18    19    1
     4    16    15    2
     5    22    20    2
     6    19    20    1
     7    19    14    2
     8    20    21    2
     9    15    14    1
    10    14    12    1
    11    13    12    1
    12    12    11    1
    13     5     6    1
    14     5     4    2
    15     6     7    2
    16    10    11    1
    17    10     3    1
    18     4     3    1
    19     4     9    1
    20     7     8    1
    21     3     2    2
    22     9     8    2
    23     9     1    1
    24     2     1    1
    25     1    23    1
    26    23    24    1
    27    27    26    1
    28    24    26   am
    29    24    25    2
    30    26    28    1
    31    29    28    2
    32    29    30    1
    33    28    33    1
    34    30    31    2
    35    33    32    2
    36    31    32    1
