@<TRIPOS>MOLECULE
6871_out_ligand_01.pdbqt
 36 40 0 0 0
SMALL
GASTEIGER

@<TRIPOS>ATOM
      1  C         19.0640  -22.4940  -10.1720 C.2     1  UNL1        0.0340
      2  C         18.4540  -21.4400  -10.8610 C.2     1  UNL1        0.0170
      3  C         19.1800  -20.7000  -11.7910 C.2     1  UNL1        0.0030
      4  C         20.5190  -21.0120  -12.0350 C.2     1  UNL1        0.0290
      5  C         21.1460  -22.0600  -11.3480 C.2     1  UNL1        0.0360
      6  C         20.4150  -22.7880  -10.4060 C.2     1  UNL1        0.0460
      7  C         18.2500  -23.2530   -9.1820 C.2     1  UNL1        0.2510
      8  O         18.7990  -23.8400   -8.2560 O.2     1  UNL1       -0.2680
      9  N         16.8810  -23.2290   -9.3550 N.am    1  UNL1       -0.3570
     10  H         16.4650  -22.6340  -10.0600 H       1  UNL1        0.1620
     11  C         15.9920  -23.9010   -8.4250 C.3     1  UNL1        0.1270
     12  C         15.1670  -22.9160   -7.5930 C.3     1  UNL1        0.0600
     13  C         15.4770  -23.0120   -6.1320 C.2     1  UNL1       -0.0290
     14  C         14.7350  -23.6750   -5.1740 C.2     1  UNL1        0.0960
     15  N         15.3590  -23.5220   -3.9650 N.pl3   1  UNL1       -0.3650
     16  C         16.5000  -22.7670   -4.1100 C.2     1  UNL1        0.0430
     17  H         15.0350  -23.9080   -3.0890 H       1  UNL1        0.1650
     18  C         17.4390  -22.3610   -3.1530 C.2     1  UNL1        0.0320
     19  C         16.6020  -22.4340   -5.4610 C.2     1  UNL1       -0.0000
     20  C         18.5160  -21.5870   -3.5950 C.2     1  UNL1        0.0260
     21  C         18.6410  -21.2400   -4.9390 C.2     1  UNL1        0.0350
     22 CL         19.9840  -20.2860   -5.4450 Cl      1  UNL1       -0.0840
     23  C         17.6970  -21.6520   -5.8840 C.2     1  UNL1        0.0380
     24  N         22.5030  -22.3010  -11.6460 N.am    1  UNL1       -0.3220
     25  C         23.6160  -21.8540  -10.9430 C.2     1  UNL1        0.2760
     26  O         23.5850  -21.2190   -9.8940 O.2     1  UNL1       -0.2660
     27  H         22.6870  -22.9380  -12.4110 H       1  UNL1        0.1690
     28  C         24.8870  -22.2520  -11.5760 C.ar    1  UNL1        0.1440
     29  N         25.7950  -22.9040  -10.8420 N.ar    1  UNL1       -0.2050
     30  S         27.1020  -23.2670  -11.7770 S.2     1  UNL1        0.0120
     31  C         26.5120  -22.5580  -13.2230 C.ar    1  UNL1        0.0360
     32  C         27.1190  -22.4870  -14.4890 C.2     1  UNL1        0.0210
     33  C         25.2530  -22.0110  -12.9630 C.ar    1  UNL1        0.0170
     34  C         26.4370  -21.8330  -15.5170 C.2     1  UNL1        0.0010
     35  C         25.1900  -21.2620  -15.2890 C.2     1  UNL1        0.0010
     36  C         24.5940  -21.3400  -14.0250 C.2     1  UNL1        0.0150
@<TRIPOS>BOND
     1    34    35    2
     2    34    32    1
     3    35    36    1
     4    32    31    2
     5    36    33    2
     6    31    33   ar
     7    31    30   ar
     8    33    28   ar
     9    27    24    1
    10     4     3    2
    11     4     5    1
    12     3     2    1
    13    30    29   ar
    14    24     5    1
    15    24    25   am
    16    28    25    1
    17    28    29   ar
    18     5     6    2
    19    25    26    2
    20     2     1    2
    21     6     1    1
    22     1     7    1
    23    10     9    1
    24     9     7   am
    25     9    11    1
    26     7     8    2
    27    11    12    1
    28    12    13    1
    29    13    19    1
    30    13    14    2
    31    23    19    1
    32    23    21    2
    33    19    16    2
    34    22    21    1
    35    14    15    1
    36    21    20    1
    37    16    15    1
    38    16    18    1
    39    15    17    1
    40    20    18    2
