@<TRIPOS>MOLECULE
68722_out_ligand_01.pdbqt
 37 40 0 0 0
SMALL
GASTEIGER

@<TRIPOS>ATOM
      1  C         19.3930  -22.6320   -9.6880 C.2     1  UNL1       -0.0180
      2  C         20.7960  -22.6770   -9.7320 C.2     1  UNL1        0.0180
      3  C         21.5650  -22.4250   -8.5870 C.2     1  UNL1       -0.0420
      4  C         20.9150  -22.1450   -7.3730 C.2     1  UNL1        0.0480
      5  C         19.5210  -22.0980   -7.3010 C.2     1  UNL1        0.1030
      6  C         18.7690  -22.3180   -8.4700 C.2     1  UNL1        0.1090
      7  C         23.0750  -22.4750   -8.6510 C.3     1  UNL1        0.1310
      8  N         23.5590  -21.4270   -9.5430 N.pl3   1  UNL1       -0.2890
      9  H         22.8270  -20.7630   -9.7840 H       1  UNL1        0.1280
     10  C         24.3150  -21.7840  -10.6660 C.2     1  UNL1        0.0080
     11  C         25.4400  -21.0750  -11.1030 C.2     1  UNL1        0.0260
     12  C         26.1290  -21.4490  -12.2640 C.2     1  UNL1        0.0390
     13  C         25.6690  -22.5150  -13.0360 C.2     1  UNL1        0.0760
     14  C         24.5340  -23.2100  -12.6350 C.2     1  UNL1        0.0390
     15  C         23.8540  -22.8330  -11.4730 C.2     1  UNL1        0.0260
     16  O         26.3070  -22.9810  -14.1630 O.2     1  UNL1       -0.3110
     17  C         25.7330  -22.7000  -15.3810 C.2     1  UNL1        0.0760
     18  C         25.9600  -21.4370  -15.9240 C.2     1  UNL1        0.0370
     19  C         25.4320  -21.1150  -17.1740 C.2     1  UNL1        0.0030
     20  C         24.6930  -22.0600  -17.8840 C.2     1  UNL1        0.0000
     21  C         24.4890  -23.3320  -17.3510 C.2     1  UNL1        0.0030
     22  C         25.0160  -23.6570  -16.1000 C.2     1  UNL1        0.0370
     23  C         18.6030  -22.9550  -10.9360 C.3     1  UNL1        0.0680
     24  C         18.2320  -21.7880  -11.8180 C.2     1  UNL1       -0.0320
     25  C         17.4730  -20.7300  -11.5060 C.2     1  UNL1        0.0070
     26  O         18.8040  -21.8550   -6.1580 O.2     1  UNL1       -0.3490
     27  C         19.2700  -20.8310   -5.2880 C.3     1  UNL1        0.1710
     28  C         18.5820  -21.0170   -3.9500 C.3     1  UNL1        0.0340
     29  O         17.3940  -22.3030   -8.4250 O.2     1  UNL1       -0.3430
     30  C         16.8900  -23.5570   -7.9560 C.3     1  UNL1        0.2140
     31  C         16.1340  -23.3090   -6.6760 C.2     1  UNL1       -0.0310
     32  C         16.3960  -24.0610   -5.5240 C.2     1  UNL1        0.0090
     33  C         15.6850  -23.8240   -4.3430 C.2     1  UNL1        0.0040
     34  C         14.7110  -22.8290   -4.3040 C.2     1  UNL1        0.0420
     35  C         14.4600  -22.0750   -5.4430 C.2     1  UNL1        0.1170
     36  F         13.5240  -21.1160   -5.4020 F       1  UNL1       -0.2060
     37  C         15.1600  -22.3020   -6.6210 C.2     1  UNL1        0.0510
@<TRIPOS>BOND
     1    20    21    2
     2    20    19    1
     3    21    22    1
     4    19    18    2
     5    22    17    2
     6    18    17    1
     7    17    16    1
     8    16    13    1
     9    13    14    2
    10    13    12    1
    11    14    15    1
    12    12    11    2
    13    24    25    2
    14    24    23    1
    15    15    10    2
    16    11    10    1
    17    23     1    1
    18    10     8    1
    19     9     8    1
    20     2     1    2
    21     2     3    1
    22     1     6    1
    23     8     7    1
    24     7     3    1
    25     3     4    2
    26     6    29    1
    27     6     5    2
    28    29    30    1
    29    30    31    1
    30     4     5    1
    31     5    26    1
    32    31    37    2
    33    31    32    1
    34    37    35    1
    35    26    27    1
    36    32    33    2
    37    35    36    1
    38    35    34    2
    39    27    28    1
    40    33    34    1
