@<TRIPOS>MOLECULE
6873_out_ligand_01.pdbqt
 28 31 0 0 0
SMALL
GASTEIGER

@<TRIPOS>ATOM
      1  C         23.2810  -22.1640  -12.3890 C.2     1  UNL1        0.0320
      2  C         23.4390  -22.9110  -11.2240 C.2     1  UNL1        0.0190
      3  C         22.3600  -23.0820  -10.3460 C.2     1  UNL1        0.0310
      4  C         21.1000  -22.5210  -10.6050 C.2     1  UNL1        0.0430
      5  C         20.9530  -21.7520  -11.7800 C.2     1  UNL1       -0.0300
      6  C         22.0440  -21.5720  -12.6530 C.2     1  UNL1        0.0260
      7  C         19.6580  -21.0700  -12.1320 C.3     1  UNL1        0.0420
      8  C         18.4890  -21.7340  -11.4350 C.3     1  UNL1        0.0250
      9  C         18.7980  -21.8570   -9.9540 C.3     1  UNL1        0.1330
     10  N         19.9940  -22.6720   -9.6910 N.am    1  UNL1       -0.3130
     11  C         20.0200  -23.5820   -8.6200 C.2     1  UNL1        0.2580
     12  O         20.7520  -24.5640   -8.5180 O.2     1  UNL1       -0.2670
     13  C         24.3970  -21.9470  -13.3510 C.2     1  UNL1        0.2520
     14  O         25.4710  -21.5070  -12.9560 O.2     1  UNL1       -0.2680
     15  N         24.1260  -22.2300  -14.6760 N.am    1  UNL1       -0.3520
     16  H         23.1590  -22.3300  -14.9520 H       1  UNL1        0.1630
     17  C         25.1000  -21.9490  -15.7100 C.3     1  UNL1        0.0840
     18  C         25.0960  -22.9830  -16.8490 C.3     1  UNL1        0.0250
     19  C         25.1580  -22.1860  -18.1530 C.3     1  UNL1        0.0020
     20  C         25.5270  -20.7700  -17.7430 C.3     1  UNL1        0.0020
     21  C         24.8390  -20.6100  -16.3990 C.3     1  UNL1        0.0250
     22  C         19.0760  -23.3700   -7.4940 C.2     1  UNL1        0.0320
     23  C         19.2130  -22.2600   -6.6470 C.2     1  UNL1        0.0200
     24  C         18.3300  -22.0940   -5.5810 C.2     1  UNL1        0.0430
     25  C         17.3330  -23.0390   -5.3600 C.2     1  UNL1        0.1160
     26  F         16.4870  -22.8760   -4.3350 F       1  UNL1       -0.2060
     27  C         17.2040  -24.1560   -6.1810 C.2     1  UNL1        0.0430
     28  C         18.0840  -24.3290   -7.2490 C.2     1  UNL1        0.0200
@<TRIPOS>BOND
     1    19    20    1
     2    19    18    1
     3    20    21    1
     4    18    17    1
     5    21    17    1
     6    17    15    1
     7    16    15    1
     8    15    13   am
     9    13    14    2
    10    13     1    1
    11     6     1    2
    12     6     5    1
    13     1     2    1
    14     7     5    1
    15     7     8    1
    16     5     4    2
    17     8     9    1
    18     2     3    2
    19     4     3    1
    20     4    10    1
    21     9    10    1
    22    10    11   am
    23    11    12    2
    24    11    22    1
    25    22    28    2
    26    22    23    1
    27    28    27    1
    28    23    24    2
    29    27    25    2
    30    24    25    1
    31    25    26    1
