@<TRIPOS>MOLECULE
6878_out_ligand_01.pdbqt
 30 33 0 0 0
SMALL
GASTEIGER

@<TRIPOS>ATOM
      1  C         17.8120  -22.8370   -8.7900 C.3     1  UNL1        0.1690
      2  C         19.2980  -22.5140   -8.6380 C.3     1  UNL1        0.0770
      3  C         19.8390  -22.1610   -9.9920 C.2     1  UNL1       -0.0380
      4  C         21.1720  -22.4230  -10.3380 C.2     1  UNL1        0.0250
      5  C         21.6580  -22.0590  -11.6020 C.2     1  UNL1        0.0320
      6  C         20.8050  -21.4430  -12.5270 C.2     1  UNL1        0.0180
      7  C         19.4810  -21.1650  -12.1770 C.2     1  UNL1        0.0190
      8  C         18.9980  -21.5200  -10.9120 C.2     1  UNL1        0.0450
      9  C         17.5950  -21.1810  -10.5430 C.2     1  UNL1        0.2940
     10  O         16.9290  -20.4220  -11.2340 O.2     1  UNL1       -0.2590
     11  O         17.1170  -21.7270   -9.3980 O.3     1  UNL1       -0.3070
     12  C         23.0780  -22.3720  -11.9310 C.2     1  UNL1        0.2560
     13  O         23.8180  -22.6970  -11.0110 O.2     1  UNL1       -0.2670
     14  N         23.4100  -22.2170  -13.2650 N.am    1  UNL1       -0.3220
     15  H         22.7060  -21.8010  -13.8570 H       1  UNL1        0.1690
     16  C         24.6550  -22.4820  -13.8880 C.2     1  UNL1        0.0410
     17  C         25.1870  -23.7760  -13.9770 C.2     1  UNL1        0.0370
     18  C         26.4220  -24.0190  -14.5960 C.2     1  UNL1       -0.0600
     19  C         26.9500  -25.4190  -14.7030 C.3     1  UNL1        0.0480
     20  C         27.1210  -22.9520  -15.1600 C.2     1  UNL1        0.0070
     21  C         26.6050  -21.6600  -15.0860 C.2     1  UNL1        0.0090
     22  C         25.3750  -21.4080  -14.4520 C.2     1  UNL1       -0.0350
     23  C         24.8790  -19.9880  -14.4070 C.3     1  UNL1        0.0500
     24  C         17.1910  -23.1530   -7.4440 C.2     1  UNL1       -0.0290
     25  C         17.9690  -23.7470   -6.4390 C.2     1  UNL1        0.0100
     26  C         17.4220  -24.0180   -5.1820 C.2     1  UNL1        0.0070
     27  C         16.0930  -23.6890   -4.9000 C.2     1  UNL1       -0.0620
     28  C         15.4960  -24.0140   -3.5620 C.3     1  UNL1        0.0480
     29  C         15.3100  -23.1070   -5.9020 C.2     1  UNL1        0.0070
     30  C         15.8560  -22.8350   -7.1590 C.2     1  UNL1        0.0100
@<TRIPOS>BOND
     1    20    21    2
     2    20    18    1
     3    21    22    1
     4    19    18    1
     5    18    17    2
     6    22    23    1
     7    22    16    2
     8    17    16    1
     9    16    14    1
    10    15    14    1
    11    14    12   am
    12     6     7    2
    13     6     5    1
    14     7     8    1
    15    12     5    1
    16    12    13    2
    17     5     4    2
    18    10     9    2
    19     8     9    1
    20     8     3    2
    21     9    11    1
    22     4     3    1
    23     3     2    1
    24    11     1    1
    25     1     2    1
    26     1    24    1
    27    24    30    2
    28    24    25    1
    29    30    29    1
    30    25    26    2
    31    29    27    2
    32    26    27    1
    33    27    28    1
