@<TRIPOS>MOLECULE
68796_out_ligand_01.pdbqt
 32 35 0 0 0
SMALL
GASTEIGER

@<TRIPOS>ATOM
      1  C         23.3730  -22.4150  -11.9820 C.2     1  UNL1        0.0250
      2  C         22.2500  -21.7140  -12.4290 C.2     1  UNL1        0.0250
      3  C         21.0610  -21.7640  -11.6990 C.2     1  UNL1        0.0190
      4  C         20.9850  -22.5360  -10.5330 C.2     1  UNL1        0.0320
      5  C         22.1130  -23.2360  -10.0840 C.2     1  UNL1        0.0190
      6  C         23.3020  -23.1790  -10.8150 C.2     1  UNL1        0.0250
      7  C         19.7010  -22.5710   -9.7810 C.2     1  UNL1        0.2560
      8  O         18.7220  -22.0390  -10.2900 O.2     1  UNL1       -0.2670
      9  N         19.7610  -23.2540   -8.5810 N.am    1  UNL1       -0.3220
     10  H         20.6120  -23.7690   -8.4120 H       1  UNL1        0.1690
     11  C         18.7400  -23.4010   -7.6040 C.2     1  UNL1        0.0460
     12  C         17.7580  -24.3920   -7.7290 C.2     1  UNL1        0.0300
     13  C         16.7420  -24.5210   -6.7880 C.2     1  UNL1        0.0030
     14  C         16.6860  -23.6550   -5.7030 C.2     1  UNL1        0.0120
     15  C         17.6440  -22.6470   -5.5420 C.2     1  UNL1       -0.0240
     16  C         17.5550  -21.7870   -4.4340 C.2     1  UNL1        0.0120
     17  C         18.6950  -22.5000   -6.4880 C.2     1  UNL1        0.0010
     18  C         18.4860  -20.7730   -4.2330 C.2     1  UNL1        0.0010
     19  C         19.5250  -20.6100   -5.1350 C.2     1  UNL1        0.0010
     20  C         19.6290  -21.4580   -6.2420 C.2     1  UNL1        0.0140
     21  N         24.6140  -22.4180  -12.7130 N.pl3   1  UNL1       -0.1760
     22  C         25.0930  -23.7640  -13.1110 C.3     1  UNL1        0.1360
     23  S         25.8070  -21.4080  -11.9900 S.O2    1  UNL1        0.2470
     24  O         25.2210  -20.7270  -10.8510 O.2     1  UNL1       -0.2050
     25  O         27.0250  -22.1800  -11.8540 O.2     1  UNL1       -0.2050
     26  C         26.0700  -20.1780  -13.2470 C.2     1  UNL1        0.0750
     27  C         25.4700  -20.3140  -14.5000 C.2     1  UNL1        0.0250
     28  C         25.6900  -19.3400  -15.4740 C.2     1  UNL1        0.0080
     29  C         26.5250  -18.2440  -15.2090 C.2     1  UNL1       -0.0620
     30  C         26.7380  -17.1850  -16.2520 C.3     1  UNL1        0.0480
     31  C         27.1210  -18.1220  -13.9460 C.2     1  UNL1        0.0080
     32  C         26.9030  -19.0910  -12.9660 C.2     1  UNL1        0.0250
@<TRIPOS>BOND
     1    30    29    1
     2    28    29    2
     3    28    27    1
     4    29    31    1
     5    27    26    2
     6    31    32    2
     7    26    32    1
     8    26    23    1
     9    22    21    1
    10    21    23    1
    11    21     1    1
    12     2     1    2
    13     2     3    1
    14    23    25    2
    15    23    24    2
    16     1     6    1
    17     3     4    2
    18     6     5    2
    19     4     5    1
    20     4     7    1
    21     8     7    2
    22     7     9   am
    23     9    10    1
    24     9    11    1
    25    12    11    2
    26    12    13    1
    27    11    17    1
    28    13    14    2
    29    17    20    1
    30    17    15    2
    31    20    19    2
    32    14    15    1
    33    15    16    1
    34    19    18    1
    35    16    18    2
