@<TRIPOS>MOLECULE
687_out_ligand_01.pdbqt
 35 37 0 0 0
SMALL
GASTEIGER

@<TRIPOS>ATOM
      1  C         18.3800  -22.3080  -10.3200 C.2     1  UNL1        0.0810
      2  C         19.6610  -22.8780  -10.1760 C.2     1  UNL1        0.0420
      3  C         20.7510  -22.3540  -10.8760 C.2     1  UNL1        0.0330
      4  C         20.5670  -21.2350  -11.6900 C.2     1  UNL1        0.0170
      5  C         19.3010  -20.6610  -11.8250 C.2     1  UNL1        0.0090
      6  C         18.1850  -21.1870  -11.1500 C.2     1  UNL1       -0.0390
      7  C         16.8620  -20.4990  -11.3380 C.3     1  UNL1        0.0500
      8  C         22.1240  -22.9280  -10.7570 C.2     1  UNL1        0.2560
      9  O         22.3740  -23.6290   -9.7840 O.2     1  UNL1       -0.2670
     10  N         23.0010  -22.5740  -11.7670 N.am    1  UNL1       -0.3230
     11  H         22.6770  -21.8960  -12.4450 H       1  UNL1        0.1690
     12  C         24.3430  -22.9850  -11.9170 C.2     1  UNL1        0.0360
     13  C         25.3580  -22.7010  -11.0010 C.2     1  UNL1        0.0290
     14  C         26.6710  -23.1340  -11.2250 C.2     1  UNL1        0.0040
     15  C         26.9830  -23.8680  -12.3670 C.2     1  UNL1        0.0250
     16  C         25.9670  -24.1720  -13.2730 C.2     1  UNL1        0.0760
     17  C         24.6560  -23.7280  -13.0610 C.2     1  UNL1        0.0540
     18  S         26.3390  -25.1060  -14.7310 S.O2    1  UNL1        0.2390
     19  O         27.1210  -26.2590  -14.3510 O.2     1  UNL1       -0.2060
     20  O         26.7540  -24.1890  -15.7650 O.2     1  UNL1       -0.2060
     21  N         24.8180  -25.6980  -15.1450 N.3     1  UNL1       -0.2250
     22  H         24.7160  -25.6610  -16.1610 H       1  UNL1        0.1360
     23  H         24.6320  -26.6310  -14.7790 H       1  UNL1        0.1360
     24  S         17.0710  -23.0680   -9.3670 S.O2    1  UNL1        0.2460
     25  O         16.3500  -24.0370  -10.1590 O.2     1  UNL1       -0.2060
     26  O         16.3590  -21.9930   -8.7050 O.2     1  UNL1       -0.2060
     27  N         17.9310  -23.8580   -8.1400 N.pl3   1  UNL1       -0.1810
     28  H         18.7620  -24.3040   -8.5280 H       1  UNL1        0.1460
     29  C         18.0950  -23.1810   -6.9010 C.2     1  UNL1        0.0220
     30  C         17.3350  -23.5770   -5.8020 C.2     1  UNL1        0.0250
     31  C         17.4660  -22.9010   -4.5880 C.2     1  UNL1        0.0080
     32  C         18.3440  -21.8160   -4.4700 C.2     1  UNL1       -0.0620
     33  C         18.5040  -21.1080   -3.1570 C.3     1  UNL1        0.0480
     34  C         19.1080  -21.4350   -5.5810 C.2     1  UNL1        0.0080
     35  C         18.9790  -22.1100   -6.7960 C.2     1  UNL1        0.0250
@<TRIPOS>BOND
     1    22    21    1
     2    20    18    2
     3    21    23    1
     4    21    18    1
     5    18    19    2
     6    18    16    1
     7    16    17    1
     8    16    15    2
     9    17    12    2
    10    11    10    1
    11    15    14    1
    12    12    10    1
    13    12    13    1
    14     5     4    2
    15     5     6    1
    16    10     8   am
    17     4     3    1
    18     7     6    1
    19    14    13    2
    20     6     1    2
    21     3     8    1
    22     3     2    2
    23     8     9    2
    24     1     2    1
    25     1    24    1
    26    25    24    2
    27    24    26    2
    28    24    27    1
    29    28    27    1
    30    27    29    1
    31    29    35    2
    32    29    30    1
    33    35    34    1
    34    30    31    2
    35    34    32    2
    36    31    32    1
    37    32    33    1
