@<TRIPOS>MOLECULE
68809_out_ligand_01.pdbqt
 34 37 0 0 0
SMALL
GASTEIGER

@<TRIPOS>ATOM
      1  C         20.6680  -22.6320   -7.6710 C.2     1  UNL1        0.0320
      2  C         21.7090  -21.6950   -7.6710 C.2     1  UNL1        0.0170
      3  C         22.8440  -21.8980   -8.4610 C.2     1  UNL1        0.0100
      4  C         22.9590  -23.0480   -9.2540 C.2     1  UNL1       -0.0300
      5  C         21.9210  -23.9920   -9.2390 C.2     1  UNL1        0.0100
      6  C         20.7860  -23.7910   -8.4510 C.2     1  UNL1        0.0170
      7  C         19.4730  -22.3640   -6.8140 C.2     1  UNL1        0.2560
      8  N         18.6060  -23.4290   -6.6700 N.am    1  UNL1       -0.3220
      9  H         18.7990  -24.2640   -7.2260 H       1  UNL1        0.1690
     10  O         19.3410  -21.2440   -6.3320 O.2     1  UNL1       -0.2670
     11  C         17.3830  -23.4910   -5.9550 C.2     1  UNL1        0.0500
     12  C         17.3370  -23.6190   -4.5630 C.2     1  UNL1        0.0300
     13  C         16.1160  -23.6330   -3.8810 C.2     1  UNL1        0.0020
     14  C         14.9210  -23.5110   -4.5810 C.2     1  UNL1        0.0010
     15  C         14.9410  -23.3980   -5.9700 C.2     1  UNL1        0.0190
     16  C         16.1620  -23.4120   -6.6690 C.2     1  UNL1        0.0580
     17  C         16.1600  -23.3460   -8.1680 C.2     1  UNL1        0.2540
     18  N         16.7010  -22.2120   -8.7440 N.am    1  UNL1       -0.3530
     19  H         16.8130  -21.3890   -8.1700 H       1  UNL1        0.1630
     20  O         15.6480  -24.2440   -8.8320 O.2     1  UNL1       -0.2680
     21  C         16.5870  -21.9900  -10.1650 C.3     1  UNL1        0.1490
     22  C         17.8800  -22.3070  -10.8550 C.2     1  UNL1       -0.0180
     23  C         18.9940  -21.5590  -10.8820 C.2     1  UNL1        0.0080
     24  C         24.1880  -23.2800  -10.1080 C.3     1  UNL1        0.3110
     25  N         24.3700  -22.2720  -11.1590 N.3     1  UNL1        0.0970
     26  C         25.3160  -21.2220  -10.7310 C.3     1  UNL1        0.2770
     27  C         26.2820  -20.6510  -11.7950 C.3     1  UNL1        0.0690
     28  C         25.7020  -20.6910  -13.1810 C.2     1  UNL1       -0.0490
     29  C         25.9780  -19.7120  -14.1390 C.2     1  UNL1        0.0070
     30  C         24.9090  -21.7990  -13.5140 C.2     1  UNL1       -0.0240
     31  C         25.4410  -19.8290  -15.4210 C.2     1  UNL1        0.0010
     32  C         24.6430  -20.9240  -15.7520 C.2     1  UNL1        0.0010
     33  C         24.3800  -21.9120  -14.8040 C.2     1  UNL1        0.0090
     34  C         24.7020  -22.8650  -12.4610 C.3     1  UNL1        0.3110
@<TRIPOS>BOND
     1    32    31    2
     2    32    33    1
     3    31    29    1
     4    33    30    2
     5    29    28    2
     6    30    28    1
     7    30    34    1
     8    28    27    1
     9    34    25    1
    10    27    26    1
    11    25    26    1
    12    25    24    1
    13    23    22    2
    14    22    21    1
    15    21    18    1
    16    24     4    1
    17     4     5    2
    18     4     3    1
    19     5     6    1
    20    20    17    2
    21    18    19    1
    22    18    17   am
    23     3     2    2
    24     6     1    2
    25    17    16    1
    26     1     2    1
    27     1     7    1
    28     9     8    1
    29     7     8   am
    30     7    10    2
    31     8    11    1
    32    16    15    1
    33    16    11    2
    34    15    14    2
    35    11    12    1
    36    14    13    1
    37    12    13    2
