@<TRIPOS>MOLECULE
6881_out_ligand_01.pdbqt
 32 35 0 0 0
SMALL
GASTEIGER

@<TRIPOS>ATOM
      1  C         21.3200  -22.9700   -9.9270 C.2     1  UNL1        0.1060
      2  C         22.5880  -23.5270   -9.6240 C.2     1  UNL1        0.0670
      3  C         23.5210  -22.8410  -10.3850 C.2     1  UNL1        0.1060
      4  O         22.8620  -21.8980  -11.1310 O.2     1  UNL1       -0.3110
      5  C         21.5340  -21.9680  -10.8430 C.2     1  UNL1        0.0720
      6  C         20.6600  -21.0050  -11.5420 C.3     1  UNL1        0.0780
      7  S         19.8060  -23.4440   -9.2780 S.O2    1  UNL1        0.2480
      8  O         20.1140  -24.6330   -8.5170 O.2     1  UNL1       -0.2050
      9  O         18.9180  -23.4470  -10.4200 O.2     1  UNL1       -0.2050
     10  N         19.2980  -22.1920   -8.2430 N.pl3   1  UNL1       -0.1810
     11  H         19.1210  -21.3650   -8.8170 H       1  UNL1        0.1460
     12  C         18.1720  -22.5330   -7.4270 C.2     1  UNL1        0.0240
     13  C         16.8870  -22.5050   -7.9640 C.2     1  UNL1        0.0250
     14  C         15.7970  -22.8820   -7.1760 C.2     1  UNL1        0.0100
     15  C         15.9820  -23.3010   -5.8490 C.2     1  UNL1       -0.0400
     16  C         14.7890  -23.7040   -5.0270 C.3     1  UNL1        0.0500
     17  C         17.2870  -23.3420   -5.3320 C.2     1  UNL1        0.0410
     18  C         18.3780  -22.9670   -6.1200 C.2     1  UNL1        0.0480
     19 CL         17.6000  -23.8550   -3.7120 Cl      1  UNL1       -0.0840
     20  C         24.9390  -23.0110  -10.4580 C.2     1  UNL1        0.1010
     21  N         25.6060  -24.0600   -9.8840 N.pl3   1  UNL1       -0.2750
     22  N         26.9280  -24.0700  -10.1260 N.2     1  UNL1       -0.1860
     23  H         25.2210  -24.8180   -9.3320 H       1  UNL1        0.1890
     24  C         27.1070  -22.9940  -10.8960 C.2     1  UNL1        0.1580
     25  C         25.9150  -22.2640  -11.1000 C.2     1  UNL1        0.0820
     26  C         25.7660  -21.0550  -11.8840 C.2     1  UNL1        0.2570
     27  O         25.8890  -19.9500  -11.3600 O.2     1  UNL1       -0.2670
     28  N         25.4240  -21.2060  -13.2150 N.am    1  UNL1       -0.3480
     29  C         25.0360  -22.4320  -13.8970 C.3     1  UNL1        0.1260
     30  C         25.2800  -20.0510  -14.0790 C.3     1  UNL1        0.1260
     31  C         24.3630  -21.9510  -15.1760 C.3     1  UNL1        0.0210
     32  C         25.0840  -20.6420  -15.4670 C.3     1  UNL1        0.0210
@<TRIPOS>BOND
     1    32    31    1
     2    32    30    1
     3    31    29    1
     4    30    28    1
     5    29    28    1
     6    28    26   am
     7    26    27    2
     8    26    25    1
     9     6     5    1
    10     4     5    1
    11     4     3    1
    12    25    24    1
    13    25    20    2
    14    24    22    2
    15     5     1    2
    16    20     3    1
    17    20    21    1
    18     9     7    2
    19     3     2    2
    20    22    21    1
    21     1     2    1
    22     1     7    1
    23    21    23    1
    24     7     8    2
    25     7    10    1
    26    11    10    1
    27    10    12    1
    28    13    12    2
    29    13    14    1
    30    12    18    1
    31    14    15    2
    32    18    17    2
    33    15    17    1
    34    15    16    1
    35    17    19    1
