@<TRIPOS>MOLECULE
68833_out_ligand_01.pdbqt
 37 41 0 0 0
SMALL
GASTEIGER

@<TRIPOS>ATOM
      1  O         19.7250  -20.9480   -6.0600 O.2     1  UNL1       -0.2670
      2  C         19.6210  -22.0410   -6.6060 C.2     1  UNL1        0.2560
      3  N         18.6030  -22.9540   -6.4140 N.am    1  UNL1       -0.3220
      4  H         18.6970  -23.8670   -6.8590 H       1  UNL1        0.1690
      5  C         20.6950  -22.4550   -7.5650 C.2     1  UNL1        0.0320
      6  C         20.6500  -23.6570   -8.2860 C.2     1  UNL1        0.0170
      7  C         21.6790  -23.9800   -9.1760 C.2     1  UNL1        0.0100
      8  C         22.7600  -23.1070   -9.3720 C.2     1  UNL1       -0.0300
      9  C         22.7960  -21.9020   -8.6580 C.2     1  UNL1        0.0100
     10  C         21.7710  -21.5790   -7.7640 C.2     1  UNL1        0.0170
     11  C         23.8640  -23.4590  -10.3490 C.3     1  UNL1        0.3110
     12  N         24.7740  -22.3320  -10.6120 N.3     1  UNL1        0.0970
     13  C         26.1730  -22.7730  -10.7430 C.3     1  UNL1        0.2770
     14  C         26.4450  -23.6860  -11.9490 C.3     1  UNL1        0.0690
     15  C         25.7410  -23.2270  -13.2020 C.2     1  UNL1       -0.0490
     16  C         26.0520  -23.8170  -14.4340 C.2     1  UNL1        0.0070
     17  C         24.7280  -22.2520  -13.1310 C.2     1  UNL1       -0.0240
     18  C         25.3800  -23.4290  -15.5930 C.2     1  UNL1        0.0010
     19  C         24.3890  -22.4520  -15.5290 C.2     1  UNL1        0.0010
     20  C         24.0660  -21.8630  -14.3060 C.2     1  UNL1        0.0090
     21  C         24.3970  -21.5710  -11.8190 C.3     1  UNL1        0.3110
     22  C         17.4640  -22.8460   -5.5730 C.2     1  UNL1        0.0500
     23  C         17.5550  -22.4410   -4.2350 C.2     1  UNL1        0.0300
     24  C         16.4190  -22.3770   -3.4210 C.2     1  UNL1        0.0020
     25  C         15.1720  -22.7250   -3.9280 C.2     1  UNL1        0.0010
     26  C         15.0540  -23.1170   -5.2590 C.2     1  UNL1        0.0190
     27  C         16.1850  -23.1600   -6.0950 C.2     1  UNL1        0.0580
     28  C         16.0220  -23.5350   -7.5350 C.2     1  UNL1        0.2540
     29  O         16.1720  -24.7000   -7.8960 O.2     1  UNL1       -0.2680
     30  N         15.7630  -22.5040   -8.4150 N.am    1  UNL1       -0.3510
     31  H         15.9590  -21.5580   -8.1230 H       1  UNL1        0.1630
     32  C         15.7700  -22.7240   -9.8460 C.3     1  UNL1        0.1870
     33  C         17.0600  -22.2330  -10.3890 C.2     1  UNL1        0.0700
     34  C         18.3340  -22.7640  -10.4280 C.2     1  UNL1        0.0360
     35  C         19.1470  -21.8010  -11.0730 C.2     1  UNL1        0.0270
     36  C         18.3220  -20.7440  -11.3830 C.2     1  UNL1        0.1420
     37  O         17.0530  -20.9950  -10.9680 O.2     1  UNL1       -0.3250
@<TRIPOS>BOND
     1    18    19    2
     2    18    16    1
     3    19    20    1
     4    16    15    2
     5    20    17    2
     6    15    17    1
     7    15    14    1
     8    17    21    1
     9    14    13    1
    10    21    12    1
    11    36    35    2
    12    36    37    1
    13    35    34    1
    14    37    33    1
    15    13    12    1
    16    12    11    1
    17    34    33    2
    18    33    32    1
    19    11     8    1
    20    32    30    1
    21     8     7    2
    22     8     9    1
    23     7     6    1
    24     9    10    2
    25    30    31    1
    26    30    28   am
    27     6     5    2
    28    29    28    2
    29    10     5    1
    30     5     2    1
    31    28    27    1
    32     4     3    1
    33     2     3   am
    34     2     1    2
    35     3    22    1
    36    27    22    2
    37    27    26    1
    38    22    23    1
    39    26    25    2
    40    23    24    2
    41    25    24    1
