@<TRIPOS>MOLECULE
6884_out_ligand_01.pdbqt
 34 36 0 0 0
SMALL
GASTEIGER

@<TRIPOS>ATOM
      1  C         21.8620  -23.6540   -8.8520 C.2     1  UNL1        0.2510
      2  O         22.0560  -24.8200   -9.1730 O.2     1  UNL1       -0.2680
      3  N         22.6890  -22.6170   -9.2320 N.am    1  UNL1       -0.3570
      4  H         22.3450  -21.6690   -9.1650 H       1  UNL1        0.1620
      5  C         20.6530  -23.2830   -8.0640 C.2     1  UNL1        0.0320
      6  C         19.5650  -24.1670   -8.0590 C.2     1  UNL1        0.0190
      7  C         18.4060  -23.8580   -7.3430 C.2     1  UNL1        0.0320
      8  C         18.3160  -22.6550   -6.6350 C.2     1  UNL1        0.0530
      9  C         19.4170  -21.7940   -6.6020 C.2     1  UNL1        0.0320
     10  C         20.5800  -22.1020   -7.3160 C.2     1  UNL1        0.0190
     11  N         17.1730  -22.3420   -5.8430 N.am    1  UNL1       -0.2080
     12  S         17.2210  -22.6580   -4.1920 S.O2    1  UNL1        0.2400
     13  C         15.4970  -22.2910   -3.9740 C.3     1  UNL1        0.1820
     14  O         18.0100  -21.6480   -3.5250 O.2     1  UNL1       -0.2050
     15  O         17.4230  -24.0730   -3.9790 O.2     1  UNL1       -0.2050
     16  C         14.8110  -22.5790   -5.3210 C.3     1  UNL1        0.0500
     17  C         14.2950  -24.0210   -5.3840 C.3     1  UNL1        0.0260
     18  C         13.6590  -21.5990   -5.5540 C.3     1  UNL1        0.0260
     19  C         15.8790  -22.4030   -6.4060 C.2     1  UNL1        0.2470
     20  O         15.6330  -22.3500   -7.6020 O.2     1  UNL1       -0.2710
     21  C         23.8060  -22.8440  -10.1330 C.3     1  UNL1        0.1270
     22  C         24.1460  -21.6180  -10.9870 C.3     1  UNL1        0.0580
     23  C         24.2480  -21.9440  -12.4610 C.2     1  UNL1       -0.0570
     24  C         23.5340  -21.1880  -13.4030 C.2     1  UNL1        0.0090
     25  C         23.6490  -21.4610  -14.7660 C.2     1  UNL1        0.0250
     26  C         24.4780  -22.5050  -15.1890 C.2     1  UNL1        0.0740
     27  C         25.2030  -23.2610  -14.2650 C.2     1  UNL1        0.0250
     28  C         25.0860  -22.9800  -12.9030 C.2     1  UNL1        0.0090
     29  S         24.6230  -22.8430  -16.9220 S.O2    1  UNL1        0.2390
     30  O         25.9370  -23.3840  -17.1710 O.2     1  UNL1       -0.2060
     31  O         23.4140  -23.4980  -17.3670 O.2     1  UNL1       -0.2060
     32  N         24.5620  -21.2920  -17.5760 N.3     1  UNL1       -0.2250
     33  H         24.5240  -20.5590  -16.8680 H       1  UNL1        0.1360
     34  H         23.7720  -21.2380  -18.2230 H       1  UNL1        0.1360
@<TRIPOS>BOND
     1    34    32    1
     2    32    29    1
     3    32    33    1
     4    31    29    2
     5    30    29    2
     6    29    26    1
     7    26    25    2
     8    26    27    1
     9    25    24    1
    10    27    28    2
    11    24    23    2
    12    28    23    1
    13    23    22    1
    14    22    21    1
    15    21     3    1
    16     3     4    1
    17     3     1   am
    18     2     1    2
    19     1     5    1
    20     5     6    2
    21     5    10    1
    22     6     7    1
    23    20    19    2
    24     7     8    2
    25    10     9    2
    26     8     9    1
    27     8    11    1
    28    19    11   am
    29    19    16    1
    30    11    12    1
    31    18    16    1
    32    17    16    1
    33    16    13    1
    34    12    15    2
    35    12    13    1
    36    12    14    2
