@<TRIPOS>MOLECULE
68848_out_ligand_01.pdbqt
 31 34 0 0 0
SMALL
GASTEIGER

@<TRIPOS>ATOM
      1  C         20.1640  -21.9220  -10.7320 C.2     1  UNL1        0.1790
      2  S         19.4940  -20.7430  -11.7120 S.2     1  UNL1       -0.0400
      3  N         21.2260  -22.6180  -11.2450 N.am    1  UNL1       -0.3260
      4  H         21.0490  -23.6200  -11.3430 H       1  UNL1        0.1690
      5  C         22.5210  -22.2370  -11.5670 C.ar    1  UNL1        0.0930
      6  C         23.5880  -22.1260  -10.6660 C.ar    1  UNL1        0.0720
      7  C         24.7140  -21.5570  -11.3380 C.ar    1  UNL1       -0.0260
      8  C         24.4490  -21.2610  -12.6490 C.ar    1  UNL1       -0.0080
      9  C         26.0990  -21.1400  -10.9820 C.3     1  UNL1        0.0410
     10  S         22.9230  -21.7170  -13.1510 S.2     1  UNL1       -0.0750
     11  C         25.5400  -20.5550  -13.3690 C.2     1  UNL1        0.0470
     12  C         26.6970  -20.6280  -12.3330 C.2     1  UNL1        0.0100
     13  C         23.4570  -22.5490   -9.2670 C.2     1  UNL1        0.2520
     14  N         23.9440  -23.7790   -8.9300 N.am    1  UNL1       -0.3660
     15  H         23.8280  -24.0650   -7.9600 H       1  UNL1        0.1590
     16  H         24.5110  -24.3490   -9.5370 H       1  UNL1        0.1590
     17  O         22.9410  -21.8460   -8.3990 O.2     1  UNL1       -0.2680
     18  N         19.8340  -22.1610   -9.4190 N.am    1  UNL1       -0.2990
     19  C         19.8460  -23.3610   -8.7180 C.2     1  UNL1        0.2580
     20  O         20.6810  -24.2520   -8.7980 O.2     1  UNL1       -0.2670
     21  H         19.2140  -21.4470   -9.0510 H       1  UNL1        0.1710
     22  C         18.8040  -23.4250   -7.6720 C.2     1  UNL1        0.0430
     23  C         17.8580  -24.4530   -7.7700 C.2     1  UNL1        0.0180
     24  C         16.9080  -24.6050   -6.7680 C.2     1  UNL1        0.0020
     25  C         16.9070  -23.7380   -5.6740 C.2     1  UNL1        0.0120
     26  C         17.8470  -22.6950   -5.5690 C.2     1  UNL1       -0.0250
     27  C         17.8310  -21.8230   -4.4650 C.2     1  UNL1        0.0120
     28  C         18.8180  -22.5210   -6.5840 C.2     1  UNL1       -0.0100
     29  C         18.7560  -20.7810   -4.3570 C.2     1  UNL1        0.0010
     30  C         19.7080  -20.5970   -5.3530 C.2     1  UNL1        0.0010
     31  C         19.7380  -21.4540   -6.4570 C.2     1  UNL1        0.0130
@<TRIPOS>BOND
     1    11     8    1
     2    11    12    2
     3    10     8   ar
     4    10     5   ar
     5     8     7   ar
     6    12     9    1
     7     2     1    2
     8     5     3    1
     9     5     6   ar
    10     4     3    1
    11     7     9    1
    12     7     6   ar
    13     3     1    1
    14     1    18    1
    15     6    13    1
    16    16    14    1
    17    18    21    1
    18    18    19   am
    19    13    14   am
    20    13    17    2
    21    14    15    1
    22    20    19    2
    23    19    22    1
    24    23    22    2
    25    23    24    1
    26    22    28    1
    27    24    25    2
    28    28    31    1
    29    28    26    2
    30    31    30    2
    31    25    26    1
    32    26    27    1
    33    30    29    1
    34    27    29    2
