@<TRIPOS>MOLECULE
68852_out_ligand_01.pdbqt
 32 34 0 0 0
SMALL
GASTEIGER

@<TRIPOS>ATOM
      1  C         19.4150  -22.4900   -7.6230 C.2     1  UNL1       -0.0180
      2  C         20.7530  -22.8760   -7.7900 C.2     1  UNL1        0.0180
      3  C         21.2420  -23.2470   -9.0490 C.2     1  UNL1       -0.0420
      4  C         20.3820  -23.2070  -10.1600 C.2     1  UNL1        0.0480
      5  C         19.0500  -22.8090  -10.0270 C.2     1  UNL1        0.1030
      6  C         18.5690  -22.4730   -8.7460 C.2     1  UNL1        0.1090
      7  C         22.6850  -23.6680   -9.2240 C.3     1  UNL1        0.1310
      8  N         23.5220  -22.4800   -9.3220 N.pl3   1  UNL1       -0.2890
      9  H         24.1700  -22.4060   -8.5410 H       1  UNL1        0.1280
     10  C         24.1430  -22.1710  -10.5370 C.2     1  UNL1        0.0090
     11  C         23.8260  -22.9420  -11.6600 C.2     1  UNL1        0.0240
     12  C         24.4600  -22.7350  -12.8900 C.2     1  UNL1        0.0090
     13  C         25.4580  -21.7630  -13.0260 C.2     1  UNL1       -0.0560
     14  C         26.1190  -21.5630  -14.3600 C.3     1  UNL1        0.0490
     15  C         25.8130  -20.9920  -11.9030 C.2     1  UNL1       -0.0540
     16  C         26.9030  -19.9580  -11.9750 C.3     1  UNL1        0.0490
     17  C         25.1650  -21.2230  -10.6720 C.2     1  UNL1        0.0300
     18  C         18.9260  -22.0740   -6.2540 C.3     1  UNL1        0.0680
     19  C         19.6710  -20.8820   -5.7200 C.2     1  UNL1       -0.0320
     20  C         19.1340  -19.9420   -4.9320 C.2     1  UNL1        0.0070
     21  O         18.1570  -22.6970  -11.0590 O.2     1  UNL1       -0.3490
     22  C         17.9440  -21.4290  -11.6750 C.3     1  UNL1        0.1710
     23  C         19.2510  -20.6700  -11.8320 C.3     1  UNL1        0.0340
     24  O         17.2780  -22.0410   -8.5520 O.2     1  UNL1       -0.3430
     25  C         16.3710  -23.1330   -8.3410 C.3     1  UNL1        0.2170
     26  C         15.8790  -23.0990   -6.9160 C.2     1  UNL1        0.0040
     27  C         14.9740  -22.1210   -6.4760 C.2     1  UNL1        0.0120
     28  C         14.5040  -22.1260   -5.1620 C.2     1  UNL1        0.0010
     29  C         14.9230  -23.1150   -4.2700 C.2     1  UNL1        0.0030
     30  C         15.8110  -24.1010   -4.6990 C.2     1  UNL1        0.0430
     31  C         16.2750  -24.0880   -6.0120 C.2     1  UNL1        0.1240
     32  F         17.1180  -25.0560   -6.4030 F       1  UNL1       -0.2050
@<TRIPOS>BOND
     1    14    13    1
     2    13    12    2
     3    13    15    1
     4    12    11    1
     5    16    15    1
     6    15    17    2
     7    23    22    1
     8    22    21    1
     9    11    10    2
    10    21     5    1
    11    17    10    1
    12    10     8    1
    13     4     5    2
    14     4     3    1
    15     5     6    1
    16     8     7    1
    17     8     9    1
    18     7     3    1
    19     3     2    2
    20     6    24    1
    21     6     1    2
    22    24    25    1
    23    25    26    1
    24     2     1    1
    25     1    18    1
    26    26    27    2
    27    26    31    1
    28    27    28    1
    29    32    31    1
    30    18    19    1
    31    31    30    2
    32    19    20    2
    33    28    29    2
    34    30    29    1
