@<TRIPOS>MOLECULE
6887_out_ligand_01.pdbqt
 27 29 0 0 0
SMALL
GASTEIGER

@<TRIPOS>ATOM
      1  C         21.9580  -21.6590  -12.3030 C.2     1  UNL1        0.0320
      2  C         20.6190  -21.2750  -12.3280 C.2     1  UNL1        0.0190
      3  C         19.7280  -21.7600  -11.3600 C.2     1  UNL1        0.0310
      4  C         20.1360  -22.6560  -10.3580 C.2     1  UNL1        0.0430
      5  C         21.4900  -23.0570  -10.3560 C.2     1  UNL1       -0.0300
      6  C         22.3850  -22.5540  -11.3200 C.2     1  UNL1        0.0260
      7  C         22.0400  -24.0030   -9.3210 C.3     1  UNL1        0.0420
      8  C         20.9350  -24.8380   -8.7110 C.3     1  UNL1        0.0250
      9  C         19.8210  -23.9200   -8.2440 C.3     1  UNL1        0.1330
     10  N         19.2320  -23.1350   -9.3390 N.am    1  UNL1       -0.3130
     11  C         17.8450  -22.8980   -9.3820 C.2     1  UNL1        0.2580
     12  O         17.1880  -22.5910  -10.3730 O.2     1  UNL1       -0.2670
     13  C         17.0720  -23.0390   -8.1230 C.2     1  UNL1        0.0320
     14  C         16.2110  -24.1280   -7.9730 C.2     1  UNL1        0.0170
     15  C         15.4650  -24.2660   -6.8020 C.2     1  UNL1        0.0070
     16  C         15.5540  -23.3040   -5.7860 C.2     1  UNL1       -0.0620
     17  C         14.7720  -23.4690   -4.5160 C.3     1  UNL1        0.0480
     18  C         16.4120  -22.2070   -5.9520 C.2     1  UNL1        0.0070
     19  C         17.1610  -22.0650   -7.1220 C.2     1  UNL1        0.0170
     20  C         22.9520  -21.1690  -13.2990 C.2     1  UNL1        0.2510
     21  N         24.2790  -21.4380  -13.0280 N.am    1  UNL1       -0.3570
     22  H         24.5110  -22.0870  -12.2900 H       1  UNL1        0.1620
     23  O         22.5740  -20.5900  -14.3110 O.2     1  UNL1       -0.2680
     24  C         25.3260  -21.0870  -13.9670 C.3     1  UNL1        0.1230
     25  C         26.1580  -19.9080  -13.4670 C.3     1  UNL1        0.0190
     26  C         26.5410  -20.0830  -11.9980 C.3     1  UNL1       -0.0030
     27  C         27.0270  -18.7760  -11.3900 C.3     1  UNL1        0.0050
@<TRIPOS>BOND
     1    23    20    2
     2    24    25    1
     3    24    21    1
     4    25    26    1
     5    20    21   am
     6    20     1    1
     7    21    22    1
     8     2     1    2
     9     2     3    1
    10     1     6    1
    11    26    27    1
    12     3     4    2
    13     6     5    2
    14    12    11    2
    15     4     5    1
    16     4    10    1
    17     5     7    1
    18    11    10   am
    19    11    13    1
    20    10     9    1
    21     7     8    1
    22     8     9    1
    23    13    14    2
    24    13    19    1
    25    14    15    1
    26    19    18    2
    27    15    16    2
    28    18    16    1
    29    16    17    1
