@<TRIPOS>MOLECULE
68922_out_ligand_01.pdbqt
 32 34 0 0 0
SMALL
GASTEIGER

@<TRIPOS>ATOM
      1  C         18.8610  -23.1400   -6.4520 C.2     1  UNL1        0.0800
      2  C         19.6530  -22.0310   -6.7590 C.2     1  UNL1        0.0270
      3  C         20.4750  -22.0690   -7.8860 C.2     1  UNL1        0.0260
      4  C         20.5200  -23.2180   -8.6800 C.2     1  UNL1        0.0220
      5  C         19.7350  -24.3290   -8.3610 C.2     1  UNL1        0.0260
      6  C         18.9090  -24.2970   -7.2380 C.2     1  UNL1        0.0270
      7  N         21.2950  -23.2090   -9.8850 N.pl3   1  UNL1       -0.1810
      8  H         20.8670  -22.6120  -10.5960 H       1  UNL1        0.1460
      9  S         22.8990  -22.6470   -9.6540 S.O2    1  UNL1        0.2460
     10  O         23.7270  -23.7200   -9.1470 O.2     1  UNL1       -0.2050
     11  O         22.7800  -21.4070   -8.9180 O.2     1  UNL1       -0.2050
     12  C         23.3760  -22.3170  -11.3640 C.2     1  UNL1        0.0860
     13  C         24.7040  -22.6100  -11.7730 C.2     1  UNL1       -0.0380
     14  C         25.7610  -23.1820  -10.8630 C.3     1  UNL1        0.0500
     15  C         25.0910  -22.3280  -13.0960 C.2     1  UNL1        0.0150
     16  C         24.1920  -21.7950  -14.0200 C.2     1  UNL1       -0.0610
     17  C         24.6370  -21.4720  -15.4170 C.3     1  UNL1        0.0480
     18  C         22.8900  -21.5100  -13.6070 C.2     1  UNL1        0.0150
     19  C         22.4570  -21.7680  -12.2910 C.2     1  UNL1       -0.0380
     20  C         21.0270  -21.4210  -11.9740 C.3     1  UNL1        0.0500
     21  S         17.7550  -23.0620   -5.0660 S.O2    1  UNL1        0.2630
     22  O         17.5760  -24.3950   -4.5310 O.2     1  UNL1       -0.2000
     23  O         18.2030  -21.9790   -4.2160 O.2     1  UNL1       -0.2000
     24  N         16.3100  -22.5430   -5.7760 N.pl3   1  UNL1       -0.2810
     25  H         15.5350  -22.6110   -5.1180 H       1  UNL1        0.1790
     26  C         16.0600  -22.9300   -7.1210 C.2     1  UNL1        0.0430
     27  C         15.5020  -24.1740   -7.4030 C.2     1  UNL1        0.0300
     28  C         15.3070  -24.5580   -8.7310 C.2     1  UNL1        0.0030
     29  C         15.6830  -23.7040   -9.7700 C.2     1  UNL1        0.0070
     30  C         16.2650  -22.4610   -9.4920 C.2     1  UNL1       -0.0600
     31  C         16.6560  -21.5290  -10.6020 C.3     1  UNL1        0.0480
     32  C         16.4370  -22.0740   -8.1580 C.2     1  UNL1        0.0370
@<TRIPOS>BOND
     1    17    16    1
     2    16    18    2
     3    16    15    1
     4    18    19    1
     5    15    13    2
     6    19    20    1
     7    19    12    2
     8    13    12    1
     9    13    14    1
    10    12     9    1
    11    31    30    1
    12     8     7    1
    13     7     9    1
    14     7     4    1
    15    29    30    2
    16    29    28    1
    17     9    10    2
    18     9    11    2
    19    30    32    1
    20    28    27    2
    21     4     5    2
    22     4     3    1
    23     5     6    1
    24    32    26    2
    25     3     2    2
    26    27    26    1
    27     6     1    2
    28    26    24    1
    29     2     1    1
    30     1    21    1
    31    24    25    1
    32    24    21    1
    33    21    22    2
    34    21    23    2
