@<TRIPOS>MOLECULE
6894_out_ligand_01.pdbqt
 37 40 0 0 0
SMALL
GASTEIGER

@<TRIPOS>ATOM
      1  C         20.8620  -22.8000  -10.8480 C.3     1  UNL1        0.1310
      2  C         21.1570  -23.4770   -9.4710 C.3     1  UNL1        0.1520
      3  N         20.2940  -23.0260   -8.3960 N.am    1  UNL1       -0.3510
      4  C         20.7140  -22.1290   -7.4430 C.2     1  UNL1        0.3090
      5  O         21.8170  -21.6030   -7.3890 O.2     1  UNL1       -0.2620
      6  H         19.3650  -23.4280   -8.2710 H       1  UNL1        0.1620
      7  C         19.6550  -21.7920   -6.3680 C.2     1  UNL1        0.3130
      8  N         18.7490  -22.8200   -6.2260 N.am    1  UNL1       -0.3180
      9  H         18.9360  -23.6040   -6.8460 H       1  UNL1        0.1690
     10  O         19.7270  -20.7230   -5.7820 O.2     1  UNL1       -0.2620
     11  C         17.6550  -22.9200   -5.3390 C.2     1  UNL1        0.0420
     12  C         17.6990  -22.3590   -4.0560 C.2     1  UNL1        0.0300
     13  C         16.6120  -22.4630   -3.1870 C.2     1  UNL1        0.0040
     14  C         15.4600  -23.1230   -3.5980 C.2     1  UNL1        0.0240
     15  C         15.3940  -23.6860   -4.8770 C.2     1  UNL1        0.0420
     16  C         16.4870  -23.6040   -5.7660 C.2     1  UNL1       -0.0130
     17 CL         13.9100  -24.4720   -5.2940 Cl      1  UNL1       -0.0840
     18  C         16.4230  -24.2110   -7.1470 C.3     1  UNL1        0.0520
     19  C         19.4720  -22.1840  -10.9180 C.2     1  UNL1       -0.0170
     20  C         18.3600  -22.8800  -10.4230 C.2     1  UNL1        0.0120
     21  C         17.0930  -22.3080  -10.4750 C.2     1  UNL1        0.0200
     22  C         16.9710  -21.0440  -11.0190 C.2     1  UNL1        0.1160
     23  N         18.0120  -20.3350  -11.5040 N.2     1  UNL1       -0.2730
     24  C         19.2290  -20.9220  -11.4450 C.2     1  UNL1        0.1250
     25  N         21.9580  -21.9060  -11.2630 N.3     1  UNL1       -0.4000
     26  C         21.8430  -21.2150  -12.5570 C.3     1  UNL1        0.1370
     27  C         22.8790  -21.6300  -13.6330 C.3     1  UNL1        0.1420
     28  N         24.2710  -21.5420  -13.1290 N.pl3   1  UNL1       -0.3750
     29  C         24.4120  -21.5750  -11.6640 C.3     1  UNL1        0.1420
     30  C         23.3090  -22.4450  -11.0230 C.3     1  UNL1        0.1370
     31  C         25.2160  -22.1440  -13.9660 C.2     1  UNL1        0.0690
     32  C         26.0290  -21.4110  -14.8470 C.2     1  UNL1        0.0320
     33  C         26.9690  -22.0380  -15.6730 C.2     1  UNL1        0.0020
     34  C         27.1210  -23.4200  -15.6470 C.2     1  UNL1        0.0030
     35  C         26.3330  -24.1750  -14.7870 C.2     1  UNL1        0.0440
     36  C         25.4030  -23.5420  -13.9640 C.2     1  UNL1        0.1420
     37  F         24.6540  -24.3250  -13.1680 F       1  UNL1       -0.2040
@<TRIPOS>BOND
     1    33    34    2
     2    33    32    1
     3    34    35    1
     4    32    31    2
     5    35    36    2
     6    31    36    1
     7    31    28    1
     8    36    37    1
     9    27    28    1
    10    27    26    1
    11    28    29    1
    12    26    25    1
    13    29    30    1
    14    23    24    1
    15    23    22    2
    16    24    19    2
    17    25    30    1
    18    25     1    1
    19    22    21    1
    20    19     1    1
    21    19    20    1
    22     1     2    1
    23    21    20    2
    24     2     3    1
    25     3     6    1
    26     3     4   am
    27     4     5    2
    28     4     7    1
    29    18    16    1
    30     9     8    1
    31     7     8   am
    32     7    10    2
    33     8    11    1
    34    16    11    2
    35    16    15    1
    36    11    12    1
    37    17    15    1
    38    15    14    2
    39    12    13    2
    40    14    13    1
