@<TRIPOS>MOLECULE
68940_out_ligand_01.pdbqt
 33 35 0 0 0
SMALL
GASTEIGER

@<TRIPOS>ATOM
      1  C         21.8120  -23.1620   -8.5370 C.2     1  UNL1        0.0690
      2  C         21.2710  -22.1280   -7.7650 C.2     1  UNL1        0.0380
      3  C         19.9860  -22.2340   -7.2310 C.2     1  UNL1        0.0280
      4  C         19.2410  -23.3900   -7.4720 C.2     1  UNL1        0.0790
      5  C         19.7850  -24.4460   -8.2100 C.2     1  UNL1        0.0280
      6  C         21.0720  -24.3270   -8.7460 C.2     1  UNL1        0.0380
      7  O         23.0810  -22.9240   -8.9940 O.2     1  UNL1       -0.3420
      8  C         23.3510  -21.6470   -9.5640 C.3     1  UNL1        0.2780
      9  C         24.3850  -21.6500  -10.6980 C.2     1  UNL1        0.2460
     10  N         24.1230  -22.6210  -11.6490 N.am    1  UNL1       -0.3250
     11  H         23.2660  -23.1360  -11.4860 H       1  UNL1        0.1690
     12  O         25.3210  -20.8570  -10.6850 O.2     1  UNL1       -0.2710
     13  C         24.8380  -22.9210  -12.8300 C.2     1  UNL1        0.0410
     14  C         25.9000  -23.8320  -12.8350 C.2     1  UNL1        0.0300
     15  C         26.5960  -24.1120  -14.0100 C.2     1  UNL1        0.0030
     16  C         26.2400  -23.4840  -15.1970 C.2     1  UNL1        0.0070
     17  C         25.1800  -22.5650  -15.2320 C.2     1  UNL1       -0.0540
     18  C         24.8470  -21.9160  -16.5490 C.3     1  UNL1        0.0490
     19  C         24.4640  -22.2790  -14.0410 C.2     1  UNL1       -0.0290
     20  C         23.3200  -21.2900  -14.0540 C.3     1  UNL1        0.0510
     21  S         17.5930  -23.5380   -6.8330 S.O2    1  UNL1        0.2590
     22  O         17.0580  -22.2070   -6.6420 O.2     1  UNL1       -0.2010
     23  O         17.6290  -24.5060   -5.7590 O.2     1  UNL1       -0.2010
     24  N         16.7530  -24.2470   -8.0870 N.3     1  UNL1       -0.3070
     25  H         17.0890  -25.1610   -8.3780 H       1  UNL1        0.1730
     26  C         15.9500  -23.4410   -9.0060 C.3     1  UNL1        0.1220
     27  C         15.0110  -24.3770   -9.7710 C.3     1  UNL1        0.0380
     28  C         16.8260  -22.6400   -9.9540 C.2     1  UNL1       -0.0350
     29  C         16.5090  -21.3010  -10.2400 C.2     1  UNL1        0.0090
     30  C         17.3200  -20.5390  -11.0800 C.2     1  UNL1        0.0010
     31  C         18.4560  -21.1060  -11.6560 C.2     1  UNL1        0.0000
     32  C         18.7810  -22.4340  -11.3930 C.2     1  UNL1        0.0010
     33  C         17.9730  -23.1970  -10.5470 C.2     1  UNL1        0.0090
@<TRIPOS>BOND
     1    18    17    1
     2    17    16    2
     3    17    19    1
     4    16    15    1
     5    20    19    1
     6    19    13    2
     7    15    14    2
     8    14    13    1
     9    13    10    1
    10    31    32    2
    11    31    30    1
    12    10    11    1
    13    10     9   am
    14    32    33    1
    15    30    29    2
    16     9    12    2
    17     9     8    1
    18    33    28    2
    19    29    28    1
    20    28    26    1
    21    27    26    1
    22     8     7    1
    23    26    24    1
    24     7     1    1
    25     6     1    2
    26     6     5    1
    27     1     2    1
    28    25    24    1
    29     5     4    2
    30    24    21    1
    31     2     3    2
    32     4     3    1
    33     4    21    1
    34    21    22    2
    35    21    23    2
