@<TRIPOS>MOLECULE
68995_out_ligand_01.pdbqt
 37 41 0 0 0
SMALL
GASTEIGER

@<TRIPOS>ATOM
      1  C         21.7200  -22.2590   -9.6600 C.2     1  UNL1       -0.0060
      2  C         21.3840  -23.1930   -8.7060 C.2     1  UNL1        0.1030
      3  N         20.0470  -23.4710   -8.8400 N.pl3   1  UNL1       -0.3550
      4  C         19.4960  -22.6970   -9.8430 C.2     1  UNL1        0.0450
      5  C         18.1800  -22.6150  -10.3270 C.2     1  UNL1        0.0300
      6  C         17.9090  -21.7110  -11.3580 C.2     1  UNL1        0.0020
      7  C         18.9140  -20.9080  -11.8850 C.2     1  UNL1        0.0010
      8  C         20.2220  -20.9940  -11.3970 C.2     1  UNL1        0.0140
      9  C         20.5290  -21.9110  -10.3680 C.2     1  UNL1        0.0020
     10  C         23.0450  -21.7620   -9.8260 C.3     1  UNL1        0.0490
     11  C         23.9540  -22.2100  -10.6990 C.3     1  UNL1        0.1040
     12  C         24.0390  -21.8000  -12.1320 C.2     1  UNL1        0.2810
     13  N         25.1370  -22.4950  -12.6440 N.am    1  UNL1       -0.2530
     14  O         23.2500  -21.0370  -12.6650 O.2     1  UNL1       -0.2650
     15  C         25.7330  -23.2500  -11.6230 C.2     1  UNL1        0.1860
     16  N         24.9760  -23.0750  -10.4690 N.am    1  UNL1       -0.3280
     17  S         27.1180  -24.1670  -11.5520 S.2     1  UNL1       -0.0400
     18  H         25.2070  -23.4740   -9.5680 H       1  UNL1        0.1680
     19  C         25.5400  -22.3930  -14.0110 C.2     1  UNL1        0.0450
     20  C         26.7110  -21.7090  -14.3620 C.2     1  UNL1        0.0310
     21  C         27.1210  -21.5980  -15.6960 C.2     1  UNL1        0.0090
     22  C         26.3670  -22.1620  -16.7280 C.2     1  UNL1       -0.0560
     23  C         26.8380  -22.0250  -18.1500 C.3     1  UNL1        0.0490
     24  C         25.1780  -22.8390  -16.4070 C.2     1  UNL1       -0.0540
     25  C         24.7810  -22.9380  -15.0570 C.2     1  UNL1        0.0370
     26  C         24.3110  -23.4480  -17.4750 C.3     1  UNL1        0.0490
     27  C         19.3280  -24.4280   -8.0150 C.3     1  UNL1        0.1310
     28  C         18.4850  -23.7760   -6.9170 C.3     1  UNL1        0.0470
     29  C         18.9300  -22.3550   -6.5640 C.3     1  UNL1        0.1770
     30  O         17.8940  -21.6140   -5.9260 O.2     1  UNL1       -0.3510
     31  C         16.8410  -22.2730   -5.3520 C.2     1  UNL1        0.0740
     32  C         15.6860  -22.6880   -6.0210 C.2     1  UNL1        0.0370
     33  C         14.6680  -23.3520   -5.3320 C.2     1  UNL1        0.0030
     34  C         14.7970  -23.6100   -3.9710 C.2     1  UNL1        0.0010
     35  C         15.9450  -23.2040   -3.2940 C.2     1  UNL1        0.0090
     36  C         16.9740  -22.5360   -3.9760 C.2     1  UNL1       -0.0290
     37  C         18.2060  -22.1070   -3.2260 C.3     1  UNL1        0.0510
@<TRIPOS>BOND
     1    23    22    1
     2    26    24    1
     3    22    24    2
     4    22    21    1
     5    24    25    1
     6    21    20    2
     7    25    19    2
     8    20    19    1
     9    19    13    1
    10    14    12    2
    11    13    12   am
    12    13    15    1
    13    12    11    1
    14     7     8    2
    15     7     6    1
    16    15    17    2
    17    15    16    1
    18     8     9    1
    19     6     5    2
    20    11    16    1
    21    11    10    1
    22    16    18    1
    23     9     4    2
    24     9     1    1
    25     5     4    1
    26     4     3    1
    27    10     1    1
    28     1     2    2
    29     3     2    1
    30     3    27    1
    31    27    28    1
    32    28    29    1
    33    29    30    1
    34    32    31    2
    35    32    33    1
    36    30    31    1
    37    31    36    1
    38    33    34    2
    39    36    35    2
    40    36    37    1
    41    34    35    1
