@<TRIPOS>MOLECULE
6907_out_ligand_01.pdbqt
 29 32 0 0 0
SMALL
GASTEIGER

@<TRIPOS>ATOM
      1  C         21.4020  -21.8220  -10.4150 C.2     1  UNL1        0.0340
      2  C         20.9090  -21.2500  -11.5850 C.2     1  UNL1        0.0180
      3  C         19.5340  -21.1860  -11.7940 C.2     1  UNL1        0.0220
      4  C         18.6310  -21.7090  -10.8520 C.2     1  UNL1        0.0270
      5  C         19.0980  -22.3210   -9.6600 C.2     1  UNL1        0.0480
      6  C         20.4940  -22.3520   -9.4760 C.2     1  UNL1        0.0470
      7  N         18.2170  -22.8900   -8.7300 N.pl3   1  UNL1       -0.3750
      8  C         16.9000  -22.2420   -8.6390 C.3     1  UNL1        0.1340
      9  C         16.1250  -22.4450   -9.9290 C.3     1  UNL1        0.0990
     10  S         16.8950  -21.5310  -11.2940 S.3     1  UNL1       -0.1260
     11  C         22.8630  -21.9210  -10.1050 C.2     1  UNL1        0.2520
     12  O         23.3380  -21.2730   -9.1780 O.2     1  UNL1       -0.2680
     13  N         23.6270  -22.7420  -10.9040 N.am    1  UNL1       -0.3530
     14  H         23.2440  -23.1380  -11.7490 H       1  UNL1        0.1630
     15  C         25.0580  -22.8590  -10.7370 C.3     1  UNL1        0.1620
     16  C         25.7840  -21.8880  -11.6330 C.2     1  UNL1       -0.0230
     17  C         26.1290  -20.6270  -11.1150 C.2     1  UNL1        0.0100
     18  C         26.7980  -19.6870  -11.8960 C.2     1  UNL1        0.0010
     19  C         27.1200  -19.9840  -13.2180 C.2     1  UNL1        0.0010
     20  C         26.7660  -21.2190  -13.7560 C.2     1  UNL1        0.0190
     21  C         26.0980  -22.1660  -12.9730 C.2     1  UNL1        0.0180
     22 BR         25.6290  -23.8100  -13.8090 Br      1  UNL1       -0.0510
     23  C         18.6750  -23.6550   -7.5650 C.3     1  UNL1        0.1610
     24  C         18.5680  -22.8420   -6.2870 C.2     1  UNL1       -0.0400
     25  C         19.2210  -21.6050   -6.1740 C.2     1  UNL1        0.0090
     26  C         19.1080  -20.8450   -5.0100 C.2     1  UNL1        0.0010
     27  C         18.3340  -21.3080   -3.9490 C.2     1  UNL1        0.0000
     28  C         17.6720  -22.5300   -4.0520 C.2     1  UNL1        0.0010
     29  C         17.7850  -23.2940   -5.2150 C.2     1  UNL1        0.0090
@<TRIPOS>BOND
     1    22    21    1
     2    20    19    2
     3    20    21    1
     4    19    18    1
     5    21    16    2
     6    18    17    2
     7     3     2    1
     8     3     4    2
     9    14    13    1
    10    16    17    1
    11    16    15    1
    12     2     1    2
    13    10     4    1
    14    10     9    1
    15    13    15    1
    16    13    11   am
    17     4     5    1
    18     1    11    1
    19     1     6    1
    20    11    12    2
    21     9     8    1
    22     5     6    2
    23     5     7    1
    24     7     8    1
    25     7    23    1
    26    23    24    1
    27    24    25    2
    28    24    29    1
    29    25    26    1
    30    29    28    2
    31    26    27    2
    32    28    27    1
