@<TRIPOS>MOLECULE
690_out_ligand_01.pdbqt
 32 35 0 0 0
SMALL
GASTEIGER

@<TRIPOS>ATOM
      1  C         18.0420  -22.3030  -10.2020 C.2     1  UNL1        0.0340
      2  C         17.9450  -21.1560  -10.9990 C.2     1  UNL1        0.0170
      3  C         19.0750  -20.6770  -11.6640 C.2     1  UNL1        0.0040
      4  C         20.2980  -21.3420  -11.5420 C.2     1  UNL1        0.0380
      5  C         20.3940  -22.4900  -10.7530 C.2     1  UNL1        0.0900
      6  C         19.2730  -22.9560  -10.0630 C.2     1  UNL1        0.0550
      7  O         21.5470  -23.2110  -10.5690 O.2     1  UNL1       -0.2290
      8  S         22.8090  -22.6050   -9.7330 S.3     1  UNL1        0.3030
      9  O         22.3880  -21.4140   -9.0180 O.3     1  UNL1       -0.1930
     10  O         23.4680  -23.6940   -9.0410 O.3     1  UNL1       -0.1930
     11  C         23.9050  -22.0450  -11.0150 C.2     1  UNL1        0.0890
     12  C         25.0550  -21.3340  -10.6560 C.2     1  UNL1        0.0290
     13  C         25.9170  -20.8800  -11.6560 C.2     1  UNL1        0.0410
     14  C         25.6450  -21.1620  -12.9960 C.2     1  UNL1        0.1020
     15  C         24.4940  -21.8780  -13.3440 C.2     1  UNL1        0.1030
     16  O         26.4940  -20.6140  -13.9180 O.2     1  UNL1       -0.3480
     17  C         23.6130  -22.3120  -12.3550 C.2     1  UNL1        0.0650
     18  O         24.1130  -22.0970  -14.6390 O.2     1  UNL1       -0.3480
     19  C         25.0580  -22.8860  -15.3600 C.3     1  UNL1        0.1780
     20  C         26.2230  -22.0570  -15.8760 C.3     1  UNL1        0.0530
     21  C         27.1210  -21.6030  -14.7350 C.3     1  UNL1        0.1780
     22  C         16.8660  -22.8530   -9.4780 C.2     1  UNL1        0.2520
     23  O         15.7310  -22.5520   -9.8290 O.2     1  UNL1       -0.2680
     24  N         17.1510  -23.6500   -8.3940 N.am    1  UNL1       -0.3530
     25  H         18.1040  -23.7580   -8.0760 H       1  UNL1        0.1630
     26  C         16.1020  -24.1940   -7.5610 C.3     1  UNL1        0.1610
     27  C         16.1190  -23.5360   -6.2060 C.2     1  UNL1       -0.0410
     28  C         17.2820  -23.5670   -5.4250 C.2     1  UNL1        0.0090
     29  C         17.2980  -23.0000   -4.1500 C.2     1  UNL1        0.0010
     30  C         16.1440  -22.4070   -3.6370 C.2     1  UNL1        0.0000
     31  C         14.9790  -22.3690   -4.4030 C.2     1  UNL1        0.0010
     32  C         14.9670  -22.9290   -5.6840 C.2     1  UNL1        0.0090
@<TRIPOS>BOND
     1    20    19    1
     2    20    21    1
     3    19    18    1
     4    21    16    1
     5    18    15    1
     6    16    14    1
     7    15    14    2
     8    15    17    1
     9    14    13    1
    10    17    11    2
    11     3     4    2
    12     3     2    1
    13    13    12    2
    14     4     5    1
    15    11    12    1
    16    11     8    1
    17     2     1    2
    18     5     7    1
    19     5     6    2
    20     7     8    1
    21     1     6    1
    22     1    22    1
    23    23    22    2
    24     8    10    1
    25     8     9    1
    26    22    24   am
    27    24    25    1
    28    24    26    1
    29    26    27    1
    30    27    32    2
    31    27    28    1
    32    32    31    1
    33    28    29    2
    34    31    30    2
    35    29    30    1
