@<TRIPOS>MOLECULE
6913_out_ligand_01.pdbqt
 31 34 0 0 0
SMALL
GASTEIGER

@<TRIPOS>ATOM
      1  C         21.0050  -22.7830   -9.6400 C.2     1  UNL1        0.0320
      2  C         22.0180  -23.2680   -8.8030 C.2     1  UNL1        0.0180
      3  C         23.3420  -23.2910   -9.2520 C.2     1  UNL1        0.0190
      4  C         23.6600  -22.8330  -10.5370 C.2     1  UNL1        0.0450
      5  C         22.6480  -22.3580  -11.3810 C.2     1  UNL1       -0.0380
      6  C         21.3200  -22.3480  -10.9350 C.2     1  UNL1        0.0250
      7  C         23.0100  -21.9220  -12.7720 C.3     1  UNL1        0.0770
      8  C         24.4210  -21.3340  -12.7330 C.3     1  UNL1        0.1690
      9  O         25.3510  -22.2910  -12.1860 O.3     1  UNL1       -0.3070
     10  C         25.0700  -22.9050  -11.0100 C.2     1  UNL1        0.2940
     11  O         25.9180  -23.5120  -10.3710 O.2     1  UNL1       -0.2590
     12  C         19.5760  -22.7520   -9.2110 C.2     1  UNL1        0.2560
     13  N         19.3280  -23.2680   -7.9520 N.am    1  UNL1       -0.3230
     14  H         20.1300  -23.5210   -7.3900 H       1  UNL1        0.1690
     15  O         18.7560  -22.2500   -9.9710 O.2     1  UNL1       -0.2670
     16  C         18.0750  -23.3990   -7.3130 C.2     1  UNL1        0.0350
     17  C         17.0780  -24.0980   -8.0050 C.2     1  UNL1        0.0290
     18  C         15.8100  -24.2710   -7.4480 C.2     1  UNL1        0.0030
     19  C         15.5280  -23.7420   -6.1910 C.2     1  UNL1        0.0150
     20  C         16.5110  -23.0360   -5.4860 C.2     1  UNL1        0.0110
     21  C         17.7820  -22.8650   -6.0530 C.2     1  UNL1        0.0440
     22  C         16.1610  -22.4840   -4.1430 C.2     1  UNL1        0.1550
     23  C         17.2610  -22.2050   -3.1530 C.3     1  UNL1        0.0960
     24  O         14.9830  -22.2660   -3.8610 O.2     1  UNL1       -0.2930
     25  C         24.8690  -20.9240  -14.1220 C.2     1  UNL1       -0.0290
     26  C         24.4820  -21.6450  -15.2600 C.2     1  UNL1        0.0100
     27  C         24.8800  -21.2350  -16.5340 C.2     1  UNL1        0.0070
     28  C         25.6610  -20.0870  -16.6990 C.2     1  UNL1       -0.0620
     29  C         26.1180  -19.6680  -18.0650 C.3     1  UNL1        0.0480
     30  C         26.0580  -19.3690  -15.5670 C.2     1  UNL1        0.0070
     31  C         25.6610  -19.7780  -14.2910 C.2     1  UNL1        0.0100
@<TRIPOS>BOND
     1    29    28    1
     2    28    27    2
     3    28    30    1
     4    27    26    1
     5    30    31    2
     6    26    25    2
     7    31    25    1
     8    25     8    1
     9     7     8    1
    10     7     5    1
    11     8     9    1
    12     9    10    1
    13     5     6    1
    14     5     4    2
    15    10     4    1
    16    10    11    2
    17     6     1    2
    18     4     3    1
    19    15    12    2
    20     1    12    1
    21     1     2    1
    22     3     2    2
    23    12    13   am
    24    17    18    1
    25    17    16    2
    26    13    14    1
    27    13    16    1
    28    18    19    2
    29    16    21    1
    30    19    20    1
    31    21    20    2
    32    20    22    1
    33    22    24    2
    34    22    23    1
