@<TRIPOS>MOLECULE
69150_out_ligand_01.pdbqt
 35 37 0 0 0
SMALL
GASTEIGER

@<TRIPOS>ATOM
      1  C         21.1730  -23.6240   -8.6610 C.2     1  UNL1        0.0690
      2  C         20.3230  -24.7300   -8.5500 C.2     1  UNL1        0.0380
      3  C         19.1860  -24.6800   -7.7400 C.2     1  UNL1        0.0280
      4  C         18.8980  -23.5080   -7.0420 C.2     1  UNL1        0.0790
      5  C         19.7480  -22.4010   -7.1310 C.2     1  UNL1        0.0280
      6  C         20.8840  -22.4600   -7.9450 C.2     1  UNL1        0.0380
      7  O         22.2540  -23.8260   -9.4760 O.2     1  UNL1       -0.3420
      8  C         23.4990  -23.2550   -9.0960 C.3     1  UNL1        0.2780
      9  C         23.8600  -21.9490   -9.8200 C.2     1  UNL1        0.2460
     10  O         23.2330  -20.9190   -9.5930 O.2     1  UNL1       -0.2710
     11  N         24.9050  -22.1110  -10.7150 N.am    1  UNL1       -0.3250
     12  H         25.3050  -23.0500  -10.7170 H       1  UNL1        0.1690
     13  C         25.5020  -21.1480  -11.5590 C.2     1  UNL1        0.0490
     14  C         26.4580  -20.2400  -11.0820 C.2     1  UNL1        0.0300
     15  C         27.0400  -19.2890  -11.9250 C.2     1  UNL1        0.0020
     16  C         26.6780  -19.2270  -13.2630 C.2     1  UNL1        0.0010
     17  C         25.7310  -20.1190  -13.7580 C.2     1  UNL1        0.0180
     18  C         25.1270  -21.0810  -12.9190 C.2     1  UNL1        0.0740
     19  C         24.1400  -22.0280  -13.5540 C.3     1  UNL1        0.4190
     20  F         23.9590  -21.7790  -14.8800 F       1  UNL1       -0.1660
     21  F         22.9010  -21.9610  -12.9890 F       1  UNL1       -0.1660
     22  F         24.5040  -23.3400  -13.4730 F       1  UNL1       -0.1660
     23  S         17.4620  -23.4190   -6.0010 S.O2    1  UNL1        0.2580
     24  O         17.2810  -22.0360   -5.6220 O.2     1  UNL1       -0.2010
     25  O         17.5480  -24.4770   -5.0200 O.2     1  UNL1       -0.2010
     26  N         16.2210  -23.7960   -7.0630 N.3     1  UNL1       -0.3150
     27  H         15.4860  -24.3630   -6.6390 H       1  UNL1        0.1720
     28  C         15.8100  -22.8080   -8.0710 C.3     1  UNL1        0.1370
     29  C         16.1010  -23.3350   -9.4810 C.3     1  UNL1        0.0580
     30  C         17.0600  -22.4570  -10.2520 C.2     1  UNL1       -0.0570
     31  C         16.6930  -21.1570  -10.6270 C.2     1  UNL1        0.0070
     32  C         17.5710  -20.3590  -11.3620 C.2     1  UNL1        0.0010
     33  C         18.8220  -20.8520  -11.7300 C.2     1  UNL1        0.0000
     34  C         19.1980  -22.1420  -11.3600 C.2     1  UNL1        0.0010
     35  C         18.3220  -22.9420  -10.6250 C.2     1  UNL1        0.0070
@<TRIPOS>BOND
     1    20    19    1
     2    17    16    2
     3    17    18    1
     4    19    22    1
     5    19    21    1
     6    19    18    1
     7    16    15    1
     8    18    13    2
     9    15    14    2
    10    33    32    2
    11    33    34    1
    12    13    14    1
    13    13    11    1
    14    32    31    1
    15    34    35    2
    16    12    11    1
    17    11     9   am
    18    31    30    2
    19    35    30    1
    20    30    29    1
    21     9    10    2
    22     9     8    1
    23    29    28    1
    24     7     8    1
    25     7     1    1
    26     1     2    2
    27     1     6    1
    28     2     3    1
    29    28    26    1
    30     6     5    2
    31     3     4    2
    32     5     4    1
    33    26    27    1
    34    26    23    1
    35     4    23    1
    36    23    24    2
    37    23    25    2
