@<TRIPOS>MOLECULE
69180_out_ligand_01.pdbqt
 28 31 0 0 0
SMALL
GASTEIGER

@<TRIPOS>ATOM
      1  C         22.7990  -22.8670  -10.3940 C.2     1  UNL1       -0.0070
      2  C         21.9270  -23.6390   -9.6150 C.2     1  UNL1        0.0150
      3  C         20.5430  -23.4750   -9.7210 C.2     1  UNL1        0.0180
      4  C         20.0240  -22.5200  -10.5990 C.2     1  UNL1        0.0320
      5  C         20.8820  -21.7600  -11.3990 C.2     1  UNL1        0.0180
      6  C         22.2640  -21.9300  -11.2910 C.2     1  UNL1        0.0150
      7  C         18.5630  -22.3300  -10.7450 C.2     1  UNL1        0.2540
      8  O         18.1370  -21.9720  -11.8410 O.2     1  UNL1       -0.2670
      9  N         17.7400  -22.5600   -9.6510 N.am    1  UNL1       -0.3430
     10  C         16.2940  -22.4530   -9.8310 C.3     1  UNL1        0.1520
     11  C         18.1920  -22.6690   -8.2550 C.3     1  UNL1        0.1630
     12  C         15.5490  -23.1460   -8.6910 C.3     1  UNL1        0.1880
     13  O         15.8480  -22.6050   -7.3970 O.3     1  UNL1       -0.3780
     14  C         17.1690  -22.0410   -7.2790 C.3     1  UNL1        0.1720
     15  C         17.6490  -22.1770   -5.8480 C.2     1  UNL1       -0.0280
     16  C         17.3080  -23.3150   -5.0990 C.2     1  UNL1        0.0100
     17  C         17.7120  -23.4400   -3.7690 C.2     1  UNL1        0.0010
     18  C         18.4590  -22.4280   -3.1690 C.2     1  UNL1        0.0000
     19  C         18.8020  -21.2920   -3.8980 C.2     1  UNL1        0.0010
     20  C         18.3980  -21.1650   -5.2280 C.2     1  UNL1        0.0100
     21  C         24.2410  -23.0460  -10.2840 C.ar    1  UNL1        0.0680
     22  C         25.3150  -22.4050  -10.8830 C.ar    1  UNL1        0.0600
     23  N         26.5060  -22.9300  -10.4330 N.ar    1  UNL1       -0.2380
     24  C         25.3210  -21.3150  -11.8840 C.3     1  UNL1        0.0730
     25  C         26.1870  -23.8730   -9.5760 C.ar    1  UNL1        0.1000
     26  C         27.1210  -24.7260   -8.8070 C.3     1  UNL1        0.0910
     27  N         24.8250  -23.9760   -9.4570 N.ar    1  UNL1       -0.3420
     28  H         24.3340  -24.6110   -8.8450 H       1  UNL1        0.1670
@<TRIPOS>BOND
     1    24    22    1
     2     8     7    2
     3     5     6    1
     4     5     4    2
     5     6     1    2
     6    22    23   ar
     7    22    21   ar
     8     7     4    1
     9     7     9   am
    10     4     3    1
    11    23    25   ar
    12     1    21    1
    13     1     2    1
    14    21    27   ar
    15    10     9    1
    16    10    12    1
    17     3     2    2
    18     9    11    1
    19    25    27   ar
    20    25    26    1
    21    27    28    1
    22    12    13    1
    23    11    14    1
    24    13    14    1
    25    14    15    1
    26    15    20    2
    27    15    16    1
    28    20    19    1
    29    16    17    2
    30    19    18    2
    31    17    18    1
