@<TRIPOS>MOLECULE
69189_out_ligand_01.pdbqt
 29 32 0 0 0
SMALL
GASTEIGER

@<TRIPOS>ATOM
      1  C         17.4330  -22.3000   -9.9690 C.2     1  UNL1        0.0320
      2  C         17.0670  -21.3250  -10.9050 C.2     1  UNL1        0.0170
      3  C         18.0420  -20.6850  -11.6660 C.2     1  UNL1        0.0020
      4  C         19.3890  -21.0120  -11.4910 C.2     1  UNL1        0.0120
      5  C         19.7830  -21.9770  -10.5510 C.2     1  UNL1       -0.0250
      6  C         18.7880  -22.6130   -9.7880 C.2     1  UNL1        0.0290
      7  C         21.2050  -22.3050  -10.3590 C.2     1  UNL1       -0.0240
      8  C         21.7470  -22.4120   -9.0660 C.2     1  UNL1        0.0140
      9  C         23.0970  -22.7240   -8.8420 C.2     1  UNL1        0.0330
     10  C         23.8850  -22.9260   -9.9740 C.ar    1  UNL1        0.0620
     11  N         25.2090  -23.2440  -10.1350 N.ar    1  UNL1       -0.3410
     12  C         23.3940  -22.8360  -11.2680 C.ar    1  UNL1        0.0860
     13  C         25.4710  -23.3190  -11.4820 C.ar    1  UNL1        0.1280
     14  H         25.8780  -23.4120   -9.3980 H       1  UNL1        0.1670
     15  N         24.3820  -23.0920  -12.1860 N.ar    1  UNL1       -0.2310
     16  C         22.0410  -22.5240  -11.4700 C.2     1  UNL1        0.0460
     17  C         26.8140  -23.6710  -12.0050 C.3     1  UNL1        0.2420
     18  O         26.6970  -24.9510  -12.6180 O.3     1  UNL1       -0.3930
     19  H         25.9260  -25.3720  -12.1910 H       1  UNL1        0.2090
     20  C         16.3570  -22.9480   -9.1660 C.2     1  UNL1        0.2510
     21  O         15.1870  -22.8880   -9.5350 O.2     1  UNL1       -0.2680
     22  N         16.7560  -23.6330   -8.0360 N.am    1  UNL1       -0.3540
     23  H         17.7240  -23.9220   -7.9670 H       1  UNL1        0.1620
     24  C         15.8070  -24.4340   -7.2820 C.3     1  UNL1        0.1550
     25  C         15.7390  -23.9950   -5.8170 C.3     1  UNL1        0.1390
     26  C         14.7230  -22.8930   -5.5710 C.3     1  UNL1        0.0350
     27  C         15.2750  -22.2510   -4.3220 C.3     1  UNL1        0.0290
     28  C         16.7700  -22.3090   -4.5670 C.3     1  UNL1        0.1680
     29  O         17.0160  -23.4470   -5.4080 O.3     1  UNL1       -0.3840
@<TRIPOS>BOND
     1    18    19    1
     2    18    17    1
     3    15    13   ar
     4    15    12   ar
     5    17    13    1
     6     3     4    2
     7     3     2    1
     8     4     5    1
     9    13    11   ar
    10    16    12    1
    11    16     7    2
    12    12    10   ar
    13     2     1    2
    14     5     7    1
    15     5     6    2
    16     7     8    1
    17    11    10   ar
    18    11    14    1
    19    10     9    1
    20     1     6    1
    21     1    20    1
    22    21    20    2
    23    20    22   am
    24     8     9    2
    25    22    23    1
    26    22    24    1
    27    24    25    1
    28    25    26    1
    29    25    29    1
    30    26    27    1
    31    29    28    1
    32    28    27    1
