@<TRIPOS>MOLECULE
69190_out_ligand_01.pdbqt
 31 35 0 0 0
SMALL
GASTEIGER

@<TRIPOS>ATOM
      1  N         23.5200  -23.1630  -10.5540 N.am    1  UNL1       -0.3230
      2  C         22.8490  -22.2610   -9.7460 C.2     1  UNL1        0.2560
      3  O         23.1750  -21.1030   -9.5140 O.2     1  UNL1       -0.2670
      4  H         23.2270  -24.1290  -10.4960 H       1  UNL1        0.1690
      5  C         21.6420  -22.8090   -9.0610 C.2     1  UNL1        0.0330
      6  C         21.1160  -24.0220   -9.5150 C.2     1  UNL1        0.0190
      7  C         19.9870  -24.5910   -8.9180 C.2     1  UNL1        0.0310
      8  C         19.4090  -23.9050   -7.8440 C.ar    1  UNL1        0.0430
      9  N         18.3100  -24.2320   -7.0750 N.ar    1  UNL1       -0.3580
     10  C         19.9190  -22.7000   -7.3540 C.ar    1  UNL1       -0.0000
     11  C         18.1130  -23.2720   -6.1240 C.ar    1  UNL1        0.0170
     12  H         17.7510  -25.0650   -7.2000 H       1  UNL1        0.1660
     13  C         19.0930  -22.3110   -6.2630 C.ar    1  UNL1       -0.0230
     14  C         17.0410  -23.2960   -5.0930 C.3     1  UNL1        0.0570
     15  C         19.1610  -21.1080   -5.3830 C.3     1  UNL1        0.0410
     16  C         18.2970  -21.2920   -4.1200 C.3     1  UNL1        0.0050
     17  C         16.9210  -21.9060   -4.4390 C.3     1  UNL1        0.0060
     18  C         21.0600  -22.1440   -7.9680 C.2     1  UNL1        0.0310
     19  C         24.6380  -22.9080  -11.3760 C.2     1  UNL1        0.0350
     20  C         25.8260  -22.5430  -10.7320 C.2     1  UNL1        0.0290
     21  C         26.9830  -22.2830  -11.4670 C.2     1  UNL1        0.0030
     22  C         26.9640  -22.3870  -12.8580 C.2     1  UNL1        0.0150
     23  C         25.7870  -22.7560  -13.5270 C.2     1  UNL1        0.0140
     24  C         24.6310  -23.0200  -12.7700 C.2     1  UNL1        0.0440
     25  C         25.7410  -22.8840  -14.9840 C.ar    1  UNL1        0.1610
     26  N         26.7650  -22.9000  -15.8180 N.ar    1  UNL1       -0.1300
     27  N         26.2870  -23.0390  -17.1010 N.ar    1  UNL1       -0.1350
     28  C         24.9780  -23.1240  -17.0360 C.ar    1  UNL1        0.1240
     29  C         24.0250  -23.2950  -18.1520 C.3     1  UNL1        0.0930
     30  N         24.5950  -23.0340  -15.7260 N.ar    1  UNL1       -0.3260
     31  H         23.6550  -23.0930  -15.3690 H       1  UNL1        0.1690
@<TRIPOS>BOND
     1    29    28    1
     2    27    28   ar
     3    27    26   ar
     4    28    30   ar
     5    26    25   ar
     6    30    31    1
     7    30    25   ar
     8    25    23    1
     9    23    22    2
    10    23    24    1
    11    22    21    1
    12    24    19    2
    13    21    20    2
    14    19    20    1
    15    19     1    1
    16     1     4    1
    17     1     2   am
    18     2     3    2
    19     2     5    1
    20     6     5    2
    21     6     7    1
    22     5    18    1
    23     7     8    2
    24    18    10    2
    25     8    10   ar
    26     8     9   ar
    27    10    13   ar
    28    12     9    1
    29     9    11   ar
    30    13    11   ar
    31    13    15    1
    32    11    14    1
    33    15    16    1
    34    14    17    1
    35    17    16    1
