@<TRIPOS>MOLECULE
69216_out_ligand_01.pdbqt
 28 31 0 0 0
SMALL
GASTEIGER

@<TRIPOS>ATOM
      1  C         22.2220  -22.0980  -11.7920 C.2     1  UNL1        0.0320
      2  C         21.0710  -21.4120  -12.2050 C.2     1  UNL1        0.0170
      3  C         19.8630  -21.6020  -11.5280 C.2     1  UNL1        0.0100
      4  C         19.7930  -22.4690  -10.4250 C.2     1  UNL1       -0.0300
      5  C         20.9560  -23.1360  -10.0020 C.2     1  UNL1        0.0100
      6  C         22.1620  -22.9510  -10.6830 C.2     1  UNL1        0.0170
      7  C         23.5360  -21.9020  -12.4660 C.2     1  UNL1        0.2520
      8  O         24.5720  -22.2570  -11.9160 O.2     1  UNL1       -0.2680
      9  N         23.5050  -21.3320  -13.7270 N.am    1  UNL1       -0.3510
     10  H         22.6270  -21.3800  -14.2320 H       1  UNL1        0.1630
     11  C         24.7360  -21.1410  -14.4820 C.3     1  UNL1        0.0990
     12  C         25.2800  -19.7030  -14.3560 C.3     1  UNL1        0.0410
     13  C         26.4490  -19.6010  -15.3290 C.3     1  UNL1        0.1420
     14  S         25.9920  -20.6340  -16.7210 S.O2    1  UNL1        0.1460
     15  O         25.5700  -19.7890  -17.8200 O.2     1  UNL1       -0.2280
     16  O         26.9980  -21.6680  -16.8750 O.2     1  UNL1       -0.2280
     17  C         24.5420  -21.3630  -15.9760 C.3     1  UNL1        0.1650
     18  C         18.4800  -22.6650   -9.6900 C.3     1  UNL1        0.3110
     19  N         18.6420  -23.2360   -8.3440 N.3     1  UNL1        0.0970
     20  C         17.3840  -23.8510   -7.8960 C.3     1  UNL1        0.2770
     21  C         17.5130  -24.4340   -6.4850 C.3     1  UNL1        0.0690
     22  C         17.8290  -23.3240   -5.5220 C.2     1  UNL1       -0.0490
     23  C         17.3790  -23.3430   -4.1960 C.2     1  UNL1        0.0070
     24  C         18.5990  -22.2490   -5.9830 C.2     1  UNL1       -0.0240
     25  C         17.6590  -22.2770   -3.3370 C.2     1  UNL1        0.0010
     26  C         18.3970  -21.1910   -3.7930 C.2     1  UNL1        0.0010
     27  C         18.8720  -21.1820   -5.1060 C.2     1  UNL1        0.0090
     28  C         19.1950  -22.2540   -7.3850 C.3     1  UNL1        0.3110
@<TRIPOS>BOND
     1    15    14    2
     2    16    14    2
     3    14    17    1
     4    14    13    1
     5    17    11    1
     6    13    12    1
     7    11    12    1
     8    11     9    1
     9    10     9    1
    10     9     7   am
    11     7     8    2
    12     7     1    1
    13     2     1    2
    14     2     3    1
    15     1     6    1
    16     3     4    2
    17     6     5    2
    18     4     5    1
    19     4    18    1
    20    18    19    1
    21    19    20    1
    22    19    28    1
    23    20    21    1
    24    28    24    1
    25    21    22    1
    26    24    22    2
    27    24    27    1
    28    22    23    1
    29    27    26    2
    30    23    25    2
    31    26    25    1
