@<TRIPOS>MOLECULE
69229_out_ligand_01.pdbqt
 26 28 0 0 0
SMALL
GASTEIGER

@<TRIPOS>ATOM
      1  C         22.7010  -21.5800  -12.5310 C.ar    1  UNL1        0.1330
      2  N         21.4710  -21.9140  -12.1880 N.ar    1  UNL1       -0.2310
      3  C         21.4910  -22.0340  -10.8190 C.ar    1  UNL1        0.0860
      4  C         20.4550  -22.3650   -9.9320 C.2     1  UNL1        0.0460
      5  C         20.7150  -22.4280   -8.5480 C.2     1  UNL1       -0.0240
      6  C         22.0180  -22.1540   -8.0900 C.2     1  UNL1        0.0140
      7  C         23.0680  -21.8230   -8.9590 C.2     1  UNL1        0.0330
      8  C         22.7590  -21.7730  -10.3170 C.ar    1  UNL1        0.0620
      9  N         23.5140  -21.4930  -11.4270 N.ar    1  UNL1       -0.3400
     10  H         24.4980  -21.2670  -11.4310 H       1  UNL1        0.1670
     11  C         19.6410  -22.7740   -7.6010 C.2     1  UNL1       -0.0260
     12  C         19.2850  -21.9060   -6.5580 C.2     1  UNL1        0.0130
     13  C         18.2660  -22.2340   -5.6580 C.2     1  UNL1        0.0080
     14  C         17.5780  -23.4460   -5.7770 C.2     1  UNL1       -0.0580
     15  C         17.9210  -24.3190   -6.8150 C.2     1  UNL1        0.0080
     16  C         18.9410  -23.9860   -7.7140 C.2     1  UNL1        0.0130
     17  C         16.4630  -23.7940   -4.8190 C.3     1  UNL1        0.0490
     18  C         15.0780  -23.5410   -5.4060 C.3     1  UNL1        0.1140
     19  C         14.5050  -22.2220   -4.9630 C.2     1  UNL1        0.1390
     20  O         13.7570  -21.4930   -5.5920 O.2     1  UNL1       -0.6500
     21  O         14.9610  -21.8520   -3.7500 O.3     1  UNL1       -0.7760
     22  H         14.4420  -21.0490   -3.5340 H       1  UNL1        0.1670
     23  C         23.1940  -21.3390  -13.9190 C.3     1  UNL1        0.1830
     24  C         24.6990  -21.1350  -13.9550 C.3     1  UNL1        0.0470
     25  O         22.5540  -20.1530  -14.3860 O.3     1  UNL1       -0.3880
     26  H         21.5940  -20.3280  -14.3110 H       1  UNL1        0.2100
@<TRIPOS>BOND
     1    25    26    1
     2    25    23    1
     3    24    23    1
     4    23     1    1
     5     1     2   ar
     6     1     9   ar
     7     2     3   ar
     8    10     9    1
     9     9     8   ar
    10     3     8   ar
    11     3     4    1
    12     8     7    1
    13     4     5    2
    14     7     6    2
    15     5     6    1
    16     5    11    1
    17    16    11    2
    18    16    15    1
    19    11    12    1
    20    15    14    2
    21    12    13    2
    22    14    13    1
    23    14    17    1
    24    20    19    2
    25    18    19    1
    26    18    17    1
    27    19    21    1
    28    21    22    1
