@<TRIPOS>MOLECULE
69246_out_ligand_01.pdbqt
 33 36 0 0 0
SMALL
GASTEIGER

@<TRIPOS>ATOM
      1  C         23.1460  -22.0580  -11.5710 C.2     1  UNL1        0.0750
      2  C         21.8330  -22.0070  -12.0400 C.2     1  UNL1        0.0270
      3  C         20.7750  -22.1100  -11.1310 C.2     1  UNL1        0.0310
      4  C         21.0190  -22.2570   -9.7580 C.2     1  UNL1        0.0350
      5  C         22.3400  -22.2820   -9.3030 C.2     1  UNL1        0.0310
      6  C         23.4060  -22.1770  -10.2040 C.2     1  UNL1        0.0270
      7  N         19.8920  -22.3530   -8.9160 N.am    1  UNL1       -0.3210
      8  C         19.3710  -23.4890   -8.3130 C.2     1  UNL1        0.2800
      9  O         19.7930  -24.6270   -8.4960 O.2     1  UNL1       -0.2650
     10  H         19.3510  -21.5070   -8.8040 H       1  UNL1        0.1690
     11  C         18.2240  -23.2170   -7.4570 C.ar    1  UNL1        0.1500
     12  O         18.4800  -22.9960   -6.1310 O.2     1  UNL1       -0.3040
     13  C         17.2950  -22.7900   -5.5060 C.ar    1  UNL1        0.0870
     14  C         17.1360  -22.5450   -4.1430 C.2     1  UNL1        0.0380
     15  C         16.2520  -22.8570   -6.4170 C.ar    1  UNL1        0.0070
     16  C         15.8270  -22.3560   -3.6920 C.2     1  UNL1        0.0030
     17  C         14.7460  -22.4120   -4.5750 C.2     1  UNL1        0.0010
     18  C         14.9410  -22.6600   -5.9420 C.2     1  UNL1        0.0150
     19  C         16.8520  -23.1130   -7.6920 C.ar    1  UNL1       -0.0090
     20  C         16.1350  -23.2080   -8.9890 C.3     1  UNL1        0.0520
     21  S         24.4940  -21.9210  -12.7250 S.O2    1  UNL1        0.2470
     22  O         24.8320  -23.2510  -13.1860 O.2     1  UNL1       -0.2050
     23  O         25.4930  -21.0680  -12.1150 O.2     1  UNL1       -0.2050
     24  N         23.8300  -21.0440  -14.0020 N.pl3   1  UNL1       -0.1650
     25  H         22.8200  -21.1640  -14.0390 H       1  UNL1        0.1470
     26  C         24.4110  -21.2530  -15.2690 C.2     1  UNL1        0.1200
     27  C         25.4820  -20.5250  -15.7220 C.2     1  UNL1        0.0720
     28  C         25.9520  -20.8800  -16.9640 C.2     1  UNL1        0.0360
     29  C         27.1210  -20.1620  -17.5670 C.3     1  UNL1        0.0700
     30  N         25.3970  -21.8790  -17.6810 N.2     1  UNL1       -0.2390
     31  C         24.3570  -22.5340  -17.1330 C.2     1  UNL1        0.1240
     32  N         23.8180  -22.2470  -15.9360 N.2     1  UNL1       -0.2210
     33  C         23.7290  -23.6330  -17.9330 C.3     1  UNL1        0.0930
@<TRIPOS>BOND
     1    33    31    1
     2    30    31    2
     3    30    28    1
     4    29    28    1
     5    31    32    1
     6    28    27    2
     7    32    26    2
     8    27    26    1
     9    26    24    1
    10    25    24    1
    11    24    21    1
    12    22    21    2
    13    21    23    2
    14    21     1    1
    15     2     1    2
    16     2     3    1
    17     1     6    1
    18     3     4    2
    19     6     5    2
    20     4     5    1
    21     4     7    1
    22    20    19    1
    23     7    10    1
    24     7     8   am
    25     9     8    2
    26     8    11    1
    27    19    11   ar
    28    19    15   ar
    29    11    12   ar
    30    15    18    1
    31    15    13   ar
    32    12    13   ar
    33    18    17    2
    34    13    14    1
    35    17    16    1
    36    14    16    2
