@<TRIPOS>MOLECULE
69259_out_ligand_01.pdbqt
 30 32 0 0 0
SMALL
GASTEIGER

@<TRIPOS>ATOM
      1  C         19.5450  -22.7530  -10.1340 C.2     1  UNL1        0.0340
      2  C         18.9530  -21.9770  -11.1430 C.2     1  UNL1        0.0200
      3  C         17.5770  -21.7340  -11.1200 C.2     1  UNL1        0.0450
      4  C         16.7970  -22.2590  -10.0910 C.2     1  UNL1        0.1390
      5  F         15.4870  -21.9810  -10.0770 F       1  UNL1       -0.2040
      6  C         17.3830  -23.0150   -9.0860 C.2     1  UNL1        0.1190
      7  C         18.7590  -23.2660   -9.0940 C.2     1  UNL1        0.0450
      8  S         16.3600  -23.6630   -7.8040 S.O2    1  UNL1        0.2660
      9  O         15.6860  -24.8360   -8.3220 O.2     1  UNL1       -0.2000
     10  O         15.6000  -22.5580   -7.2600 O.2     1  UNL1       -0.2000
     11  N         17.4550  -24.1440   -6.6120 N.pl3   1  UNL1       -0.2810
     12  H         17.3590  -25.1370   -6.4000 H       1  UNL1        0.1790
     13  C         17.7540  -23.2630   -5.5320 C.2     1  UNL1        0.0430
     14  C         17.4130  -23.5790   -4.2190 C.2     1  UNL1        0.0300
     15  C         17.7580  -22.7110   -3.1820 C.2     1  UNL1        0.0030
     16  C         18.4300  -21.5190   -3.4600 C.2     1  UNL1        0.0070
     17  C         18.7490  -21.1780   -4.7790 C.2     1  UNL1       -0.0600
     18  C         19.4960  -19.9120   -5.0760 C.3     1  UNL1        0.0480
     19  C         18.4130  -22.0630   -5.8120 C.2     1  UNL1        0.0370
     20  C         21.0110  -23.0120  -10.1150 C.2     1  UNL1        0.2560
     21  N         21.7400  -22.2710  -11.0260 N.am    1  UNL1       -0.3230
     22  H         21.2200  -21.7100  -11.6880 H       1  UNL1        0.1690
     23  O         21.4310  -23.8570   -9.3350 O.2     1  UNL1       -0.2670
     24  C         23.1400  -22.2740  -11.2050 C.2     1  UNL1        0.0350
     25  C         24.0230  -21.4980  -10.4550 C.2     1  UNL1        0.0290
     26  C         25.3980  -21.5590  -10.6940 C.2     1  UNL1        0.0030
     27  C         25.9020  -22.3930  -11.6910 C.2     1  UNL1        0.0070
     28  C         25.0340  -23.1650  -12.4660 C.2     1  UNL1       -0.0600
     29  C         25.5730  -24.0910  -13.5160 C.3     1  UNL1        0.0480
     30  C         23.6560  -23.1080  -12.2070 C.2     1  UNL1        0.0360
@<TRIPOS>BOND
     1    29    28    1
     2    28    30    1
     3    28    27    2
     4    30    24    2
     5    27    26    1
     6    22    21    1
     7    24    21    1
     8    24    25    1
     9     2     3    1
    10     2     1    2
    11     3     4    2
    12    21    20   am
    13    26    25    2
    14     1    20    1
    15     1     7    1
    16    20    23    2
    17     4     5    1
    18     4     6    1
    19     7     6    2
    20     6     8    1
    21     9     8    2
    22     8    10    2
    23     8    11    1
    24    11    12    1
    25    11    13    1
    26    19    13    2
    27    19    17    1
    28    13    14    1
    29    18    17    1
    30    17    16    2
    31    14    15    2
    32    16    15    1
