@<TRIPOS>MOLECULE
69276_out_ligand_01.pdbqt
 31 33 0 0 0
SMALL
GASTEIGER

@<TRIPOS>ATOM
      1  C         19.1190  -22.3580  -10.4570 C.2     1  UNL1        0.0330
      2  C         18.4110  -21.4900  -11.3010 C.2     1  UNL1        0.0170
      3  C         17.0540  -21.2420  -11.0750 C.2     1  UNL1        0.0030
      4  C         16.3990  -21.8590  -10.0090 C.2     1  UNL1        0.0250
      5  C         17.1100  -22.7230   -9.1690 C.2     1  UNL1        0.0800
      6  C         18.4730  -22.9590   -9.3720 C.2     1  UNL1        0.0420
      7  C         20.5690  -22.6360  -10.6620 C.2     1  UNL1        0.2560
      8  O         21.1440  -23.3350   -9.8380 O.2     1  UNL1       -0.2670
      9  N         21.1110  -22.0910  -11.8120 N.am    1  UNL1       -0.3230
     10  H         20.4700  -21.6420  -12.4530 H       1  UNL1        0.1690
     11  C         22.4530  -22.1670  -12.2420 C.2     1  UNL1        0.0350
     12  C         22.8130  -21.3880  -13.3510 C.2     1  UNL1        0.0320
     13  C         24.1230  -21.4010  -13.8420 C.2     1  UNL1        0.0380
     14  C         25.0860  -22.2010  -13.2150 C.2     1  UNL1        0.1030
     15  C         24.7420  -22.9790  -12.1060 C.2     1  UNL1        0.0380
     16  C         23.4270  -22.9570  -11.6230 C.2     1  UNL1        0.0320
     17  N         26.4630  -22.2190  -13.7240 N.pl3   1  UNL1       -0.1160
     18  O         27.1080  -23.2690  -13.5960 O.2     1  UNL1       -0.5320
     19  O         26.8980  -21.1850  -14.2500 O.2     1  UNL1       -0.5320
     20  S         16.2750  -23.4850   -7.7950 S.O2    1  UNL1        0.2630
     21  O         15.7660  -24.7610   -8.2530 O.2     1  UNL1       -0.2000
     22  O         15.4060  -22.5020   -7.1900 O.2     1  UNL1       -0.2000
     23  N         17.5420  -23.8450   -6.7410 N.pl3   1  UNL1       -0.2810
     24  H         18.2860  -24.3740   -7.1920 H       1  UNL1        0.1790
     25  C         17.8800  -22.9520   -5.6880 C.2     1  UNL1        0.0450
     26  C         17.5640  -23.3170   -4.3750 C.2     1  UNL1        0.0300
     27  C         17.8940  -22.4740   -3.3110 C.2     1  UNL1        0.0050
     28  C         18.5350  -21.2630   -3.5620 C.2     1  UNL1        0.0420
     29  C         18.8350  -20.9050   -4.8720 C.2     1  UNL1        0.1180
     30  F         19.4430  -19.7350   -5.1080 F       1  UNL1       -0.2060
     31  C         18.5130  -21.7360   -5.9390 C.2     1  UNL1        0.0720
@<TRIPOS>BOND
     1    19    17    2
     2    13    12    1
     3    13    14    2
     4    17    18    2
     5    17    14    1
     6    12    11    2
     7    14    15    1
     8    10     9    1
     9    11     9    1
    10    11    16    1
    11    15    16    2
    12     9     7   am
    13     2     3    1
    14     2     1    2
    15     3     4    2
    16     7     1    1
    17     7     8    2
    18     1     6    1
    19     4     5    1
    20     6     5    2
    21     5    20    1
    22    21    20    2
    23    20    22    2
    24    20    23    1
    25    24    23    1
    26    23    25    1
    27    31    25    2
    28    31    29    1
    29    25    26    1
    30    30    29    1
    31    29    28    2
    32    26    27    2
    33    28    27    1
