@<TRIPOS>MOLECULE
69274_out_ligand_01.pdbqt
 29 31 0 0 0
SMALL
GASTEIGER

@<TRIPOS>ATOM
      1  C         19.8760  -22.4690  -10.4040 C.2     1  UNL1        0.0330
      2  C         19.3570  -21.6620  -11.4270 C.2     1  UNL1        0.0170
      3  C         17.9990  -21.3330  -11.4390 C.2     1  UNL1        0.0030
      4  C         17.1530  -21.8160  -10.4390 C.2     1  UNL1        0.0250
      5  C         17.6730  -22.6390   -9.4350 C.2     1  UNL1        0.0800
      6  C         19.0310  -22.9670   -9.4080 C.2     1  UNL1        0.0420
      7  S         16.6090  -23.2640   -8.1610 S.O2    1  UNL1        0.2630
      8  O         15.9380  -22.1230   -7.5750 O.2     1  UNL1       -0.2000
      9  O         15.8570  -24.3810   -8.6880 O.2     1  UNL1       -0.2000
     10  N         17.7040  -23.8210   -7.0020 N.pl3   1  UNL1       -0.2810
     11  H         18.4830  -24.3080   -7.4430 H       1  UNL1        0.1790
     12  C         17.9950  -22.9740   -5.8980 C.2     1  UNL1        0.0450
     13  C         17.5320  -23.3190   -4.6240 C.2     1  UNL1        0.0300
     14  C         17.7820  -22.4760   -3.5400 C.2     1  UNL1        0.0050
     15  C         18.4850  -21.2890   -3.7320 C.2     1  UNL1        0.0420
     16  C         18.9310  -20.9540   -5.0070 C.2     1  UNL1        0.1180
     17  F         19.6030  -19.8100   -5.1880 F       1  UNL1       -0.2060
     18  C         18.6900  -21.7840   -6.0960 C.2     1  UNL1        0.0720
     19  C         21.3140  -22.8540  -10.3710 C.2     1  UNL1        0.2560
     20  O         21.6410  -23.7820   -9.6440 O.2     1  UNL1       -0.2670
     21  N         22.1390  -22.0790  -11.1640 N.am    1  UNL1       -0.3230
     22  H         21.7220  -21.2670  -11.6050 H       1  UNL1        0.1690
     23  C         23.5280  -22.2330  -11.3590 C.2     1  UNL1        0.0370
     24  C         24.5000  -21.5060  -10.6650 C.2     1  UNL1        0.0290
     25  C         25.8630  -21.7200  -10.9100 C.2     1  UNL1        0.0050
     26  C         26.2630  -22.6660  -11.8500 C.2     1  UNL1        0.0420
     27  C         25.2970  -23.3880  -12.5360 C.2     1  UNL1        0.1180
     28  F         25.6750  -24.3010  -13.4400 F       1  UNL1       -0.2060
     29  C         23.9400  -23.1830  -12.3000 C.2     1  UNL1        0.0710
@<TRIPOS>BOND
     1    28    27    1
     2    27    29    1
     3    27    26    2
     4    29    23    2
     5    26    25    1
     6    22    21    1
     7     3     2    1
     8     3     4    2
     9     2     1    2
    10    23    21    1
    11    23    24    1
    12    21    19   am
    13    25    24    2
    14     4     5    1
    15     1    19    1
    16     1     6    1
    17    19    20    2
    18     5     6    2
    19     5     7    1
    20     9     7    2
    21     7     8    2
    22     7    10    1
    23    11    10    1
    24    10    12    1
    25    18    12    2
    26    18    16    1
    27    12    13    1
    28    17    16    1
    29    16    15    2
    30    13    14    2
    31    15    14    1
