@<TRIPOS>MOLECULE
6928_out_ligand_01.pdbqt
 36 39 0 0 0
SMALL
GASTEIGER

@<TRIPOS>ATOM
      1  C         19.2210  -21.5390  -11.5840 C.3     1  UNL1        0.0500
      2  C         20.6650  -21.9560  -11.5260 C.2     1  UNL1       -0.0390
      3  C         21.5690  -21.3500  -12.4130 C.2     1  UNL1        0.0090
      4  C         22.9280  -21.6720  -12.3920 C.2     1  UNL1        0.0090
      5  C         23.4250  -22.6100  -11.4810 C.2     1  UNL1       -0.0380
      6  C         22.5350  -23.2150  -10.5830 C.2     1  UNL1        0.0340
      7  C         21.1660  -22.8990  -10.6080 C.2     1  UNL1        0.0810
      8  S         20.1060  -23.7090   -9.4180 S.O2    1  UNL1        0.2460
      9  O         20.7450  -24.9410   -9.0100 O.2     1  UNL1       -0.2060
     10  O         18.7510  -23.6920   -9.9300 O.2     1  UNL1       -0.2060
     11  N         20.1240  -22.5820   -8.1320 N.pl3   1  UNL1       -0.1810
     12  H         20.0150  -21.6540   -8.5460 H       1  UNL1        0.1460
     13  C         19.1140  -22.8300   -7.1460 C.2     1  UNL1        0.0220
     14  C         18.7790  -21.8410   -6.2170 C.2     1  UNL1        0.0260
     15  C         17.7420  -22.0610   -5.3090 C.2     1  UNL1        0.0260
     16  C         17.0340  -23.2660   -5.3530 C.2     1  UNL1        0.0740
     17  C         17.3660  -24.2590   -6.2790 C.2     1  UNL1        0.0260
     18  C         18.4030  -24.0310   -7.1850 C.2     1  UNL1        0.0260
     19  S         15.7000  -23.5530   -4.2200 S.O2    1  UNL1        0.2390
     20  O         14.5130  -23.8560   -4.9830 O.2     1  UNL1       -0.2060
     21  O         16.1810  -24.4010   -3.1530 O.2     1  UNL1       -0.2060
     22  N         15.5070  -22.0250   -3.5370 N.3     1  UNL1       -0.2250
     23  H         16.3410  -21.7990   -2.9900 H       1  UNL1        0.1360
     24  H         15.2930  -21.2990   -4.2190 H       1  UNL1        0.1360
     25  C         24.9070  -22.9080  -11.4210 C.3     1  UNL1        0.1730
     26  N         25.5250  -22.7390  -12.7160 N.am    1  UNL1       -0.2830
     27  C         25.4250  -23.6550  -13.7260 C.2     1  UNL1        0.2310
     28  O         24.9590  -24.7820  -13.6520 O.2     1  UNL1       -0.2730
     29  C         25.9060  -23.0030  -15.0010 C.3     1  UNL1        0.0910
     30  C         24.6820  -22.5380  -15.7980 C.3     1  UNL1        0.0150
     31  C         26.7850  -21.8710  -14.4610 C.3     1  UNL1        0.0910
     32  C         24.9950  -21.3990  -16.7570 C.3     1  UNL1        0.0010
     33  C         25.6180  -20.2260  -16.0130 C.3     1  UNL1        0.0010
     34  C         26.9230  -20.6400  -15.3450 C.3     1  UNL1        0.0150
     35  C         26.1840  -21.6050  -13.1010 C.2     1  UNL1        0.2310
     36  O         26.3260  -20.5850  -12.4470 O.2     1  UNL1       -0.2730
@<TRIPOS>BOND
     1    32    33    1
     2    32    30    1
     3    33    34    1
     4    30    29    1
     5    34    31    1
     6    29    31    1
     7    29    27    1
     8    31    35    1
     9    27    28    2
    10    27    26   am
    11    35    26   am
    12    35    36    2
    13    26    25    1
    14     3     4    1
    15     3     2    2
    16     4     5    2
    17     1     2    1
    18     2     7    1
    19     5    25    1
    20     5     6    1
    21     7     6    2
    22     7     8    1
    23    10     8    2
    24     8     9    2
    25     8    11    1
    26    12    11    1
    27    11    13    1
    28    18    13    2
    29    18    17    1
    30    13    14    1
    31    17    16    2
    32    14    15    2
    33    16    15    1
    34    16    19    1
    35    20    19    2
    36    19    22    1
    37    19    21    2
    38    24    22    1
    39    22    23    1
