@<TRIPOS>MOLECULE
69293_out_ligand_01.pdbqt
 32 34 0 0 0
SMALL
GASTEIGER

@<TRIPOS>ATOM
      1  C         18.5880  -22.5340   -9.9740 C.2     1  UNL1        0.0860
      2  C         19.9200  -22.9810   -9.9040 C.2     1  UNL1        0.0420
      3  C         20.8840  -22.4600  -10.7690 C.2     1  UNL1        0.0330
      4  C         20.5200  -21.4990  -11.7170 C.2     1  UNL1        0.0170
      5  C         19.2000  -21.0470  -11.7800 C.2     1  UNL1        0.0090
      6  C         18.2120  -21.5550  -10.9160 C.2     1  UNL1       -0.0390
      7  C         16.8190  -21.0030  -11.0360 C.3     1  UNL1        0.0500
      8  C         22.2790  -22.9720  -10.6750 C.2     1  UNL1        0.2560
      9  O         22.5820  -23.6490   -9.7000 O.2     1  UNL1       -0.2670
     10  N         23.1110  -22.5880  -11.7120 N.am    1  UNL1       -0.3230
     11  H         22.7330  -21.9210  -12.3740 H       1  UNL1        0.1690
     12  C         24.4620  -22.9480  -11.9020 C.2     1  UNL1        0.0370
     13  C         25.4890  -22.6170  -11.0120 C.2     1  UNL1        0.0290
     14  C         26.8090  -23.0100  -11.2620 C.2     1  UNL1        0.0050
     15  C         27.1210  -23.7420  -12.4050 C.2     1  UNL1        0.0360
     16  C         26.0970  -24.0790  -13.2960 C.2     1  UNL1        0.1050
     17  C         24.7710  -23.6860  -13.0500 C.2     1  UNL1        0.0650
     18  N         26.4080  -24.8540  -14.5010 N.pl3   1  UNL1       -0.1160
     19  O         26.9880  -25.9400  -14.3570 O.2     1  UNL1       -0.5320
     20  O         26.0710  -24.3780  -15.5950 O.2     1  UNL1       -0.5320
     21  S         17.4350  -23.2340   -8.7950 S.O2    1  UNL1        0.2630
     22  O         18.1440  -24.2010   -7.9840 O.2     1  UNL1       -0.2000
     23  O         16.2430  -23.6280   -9.5160 O.2     1  UNL1       -0.2000
     24  N         17.0790  -21.9350   -7.7830 N.pl3   1  UNL1       -0.2800
     25  H         16.5710  -21.1930   -8.2550 H       1  UNL1        0.1790
     26  C         16.8560  -22.1400   -6.3890 C.2     1  UNL1        0.0480
     27  C         15.6150  -22.6050   -5.9440 C.2     1  UNL1        0.0300
     28  C         15.3680  -22.7760   -4.5820 C.2     1  UNL1        0.0020
     29  C         16.3660  -22.4970   -3.6560 C.2     1  UNL1        0.0010
     30  C         17.6150  -22.0540   -4.0920 C.2     1  UNL1        0.0090
     31  C         17.8800  -21.8800   -5.4610 C.2     1  UNL1       -0.0350
     32  C         19.2410  -21.3940   -5.8770 C.3     1  UNL1        0.0500
@<TRIPOS>BOND
     1    20    18    2
     2    18    19    2
     3    18    16    1
     4    16    17    1
     5    16    15    2
     6    17    12    2
     7    15    14    1
     8    11    10    1
     9    12    10    1
    10    12    13    1
    11     5     4    2
    12     5     6    1
    13     4     3    1
    14    10     8   am
    15    14    13    2
    16     7     6    1
    17     6     1    2
    18     3     8    1
    19     3     2    2
    20     8     9    2
    21     1     2    1
    22     1    21    1
    23    23    21    2
    24    21    22    2
    25    21    24    1
    26    25    24    1
    27    24    26    1
    28    26    27    2
    29    26    31    1
    30    27    28    1
    31    32    31    1
    32    31    30    2
    33    28    29    2
    34    30    29    1
