@<TRIPOS>MOLECULE
69294_out_ligand_01.pdbqt
 33 36 0 0 0
SMALL
GASTEIGER

@<TRIPOS>ATOM
      1  C         23.1840  -22.0350  -11.4360 C.2     1  UNL1        0.0800
      2  C         23.4290  -22.1770  -10.0690 C.2     1  UNL1        0.0270
      3  C         22.3550  -22.2750   -9.1770 C.2     1  UNL1        0.0310
      4  C         21.0390  -22.2450   -9.6450 C.2     1  UNL1        0.0350
      5  C         20.8100  -22.1120  -11.0230 C.2     1  UNL1        0.0310
      6  C         21.8770  -22.0110  -11.9200 C.2     1  UNL1        0.0270
      7  N         19.9020  -22.3320   -8.8150 N.am    1  UNL1       -0.3210
      8  C         19.3570  -23.4640   -8.2260 C.2     1  UNL1        0.2800
      9  O         19.7650  -24.6060   -8.4080 O.2     1  UNL1       -0.2650
     10  H         19.3800  -21.4750   -8.6950 H       1  UNL1        0.1690
     11  C         18.2070  -23.1800   -7.3790 C.ar    1  UNL1        0.1500
     12  O         18.4480  -23.0360   -6.0380 O.2     1  UNL1       -0.3040
     13  C         17.2620  -22.8040   -5.4230 C.ar    1  UNL1        0.0870
     14  C         17.0890  -22.6160   -4.0540 C.2     1  UNL1        0.0380
     15  C         16.2350  -22.7740   -6.3550 C.ar    1  UNL1        0.0070
     16  C         15.7810  -22.3860   -3.6150 C.2     1  UNL1        0.0030
     17  C         14.7160  -22.3450   -4.5180 C.2     1  UNL1        0.0010
     18  C         14.9260  -22.5360   -5.8930 C.2     1  UNL1        0.0150
     19  C         16.8470  -23.0000   -7.6300 C.ar    1  UNL1       -0.0090
     20  C         16.1490  -22.9990   -8.9410 C.3     1  UNL1        0.0520
     21  S         24.5550  -21.9390  -12.5620 S.O2    1  UNL1        0.2760
     22  O         25.5020  -21.0120  -11.9730 O.2     1  UNL1       -0.2000
     23  O         24.9770  -23.2770  -12.9160 O.2     1  UNL1       -0.2000
     24  N         23.9240  -21.1670  -13.8890 N.pl3   1  UNL1       -0.1090
     25  H         23.6590  -20.2050  -13.7170 H       1  UNL1        0.1980
     26  C         24.5670  -21.3540  -15.1050 C.cat   1  UNL1        0.7360
     27  N         24.0870  -22.2550  -15.9620 N.2     1  UNL1       -0.0670
     28  C         24.6640  -22.2780  -17.1790 C.2     1  UNL1        0.0510
     29  C         25.6600  -21.3910  -17.5420 C.2     1  UNL1        0.0540
     30  C         24.1740  -23.3080  -18.1530 C.3     1  UNL1        0.0710
     31  C         26.0400  -20.4620  -16.5910 C.2     1  UNL1        0.0510
     32  C         27.0990  -19.4490  -16.9050 C.3     1  UNL1        0.0710
     33  N         25.4830  -20.4170  -15.3650 N.2     1  UNL1       -0.0670
@<TRIPOS>BOND
     1    30    28    1
     2    29    28    2
     3    29    31    1
     4    28    27    1
     5    32    31    1
     6    31    33    2
     7    27    26    2
     8    33    26    1
     9    26    24    1
    10    24    25    1
    11    24    21    1
    12    23    21    2
    13    21    22    2
    14    21     1    1
    15     6     1    2
    16     6     5    1
    17     1     2    1
    18     5     4    2
    19     2     3    2
    20     4     3    1
    21     4     7    1
    22    20    19    1
    23     7    10    1
    24     7     8   am
    25     9     8    2
    26     8    11    1
    27    19    11   ar
    28    19    15   ar
    29    11    12   ar
    30    15    18    1
    31    15    13   ar
    32    12    13   ar
    33    18    17    2
    34    13    14    1
    35    17    16    1
    36    14    16    2
