@<TRIPOS>MOLECULE
69292_out_ligand_01.pdbqt
 29 31 0 0 0
SMALL
GASTEIGER

@<TRIPOS>ATOM
      1  C         19.3590  -22.4720  -10.2400 C.2     1  UNL1        0.0330
      2  C         18.7110  -21.6810  -11.2000 C.2     1  UNL1        0.0170
      3  C         17.3390  -21.4360  -11.0940 C.2     1  UNL1        0.0030
      4  C         16.6100  -21.9890  -10.0410 C.2     1  UNL1        0.0250
      5  C         17.2570  -22.8000   -9.1020 C.2     1  UNL1        0.0800
      6  C         18.6330  -23.0350   -9.1870 C.2     1  UNL1        0.0420
      7  S         16.3270  -23.4950   -7.7520 S.O2    1  UNL1        0.2630
      8  O         15.7680  -24.7480   -8.2160 O.2     1  UNL1       -0.2000
      9  O         15.4840  -22.4520   -7.2120 O.2     1  UNL1       -0.2000
     10  N         17.5240  -23.9070   -6.6340 N.pl3   1  UNL1       -0.2810
     11  H         18.2790  -24.4440   -7.0540 H       1  UNL1        0.1790
     12  C         17.8420  -23.0070   -5.5800 C.2     1  UNL1        0.0450
     13  C         17.5420  -23.3740   -4.2650 C.2     1  UNL1        0.0300
     14  C         17.8810  -22.5270   -3.2080 C.2     1  UNL1        0.0050
     15  C         18.5130  -21.3120   -3.4680 C.2     1  UNL1        0.0420
     16  C         18.7990  -20.9550   -4.7810 C.2     1  UNL1        0.1180
     17  F         19.3980  -19.7830   -5.0270 F       1  UNL1       -0.2060
     18  C         18.4710  -21.7920   -5.8410 C.2     1  UNL1        0.0720
     19  C         20.8130  -22.7670  -10.3390 C.2     1  UNL1        0.2560
     20  O         21.2290  -23.7830   -9.7990 O.2     1  UNL1       -0.2670
     21  N         21.5480  -21.8210  -11.0280 N.am    1  UNL1       -0.3230
     22  H         21.0630  -20.9780  -11.3090 H       1  UNL1        0.1690
     23  C         22.9300  -21.8530  -11.3100 C.2     1  UNL1        0.0350
     24  C         23.3070  -22.1720  -12.6230 C.2     1  UNL1        0.0320
     25  C         24.6560  -22.2300  -12.9810 C.2     1  UNL1        0.0440
     26  C         25.6290  -21.9710  -12.0260 C.2     1  UNL1        0.1160
     27  F         26.9230  -22.0270  -12.3660 F       1  UNL1       -0.2060
     28  C         25.2760  -21.6560  -10.7200 C.2     1  UNL1        0.0440
     29  C         23.9250  -21.5980  -10.3620 C.2     1  UNL1        0.0320
@<TRIPOS>BOND
     1    25    24    1
     2    25    26    2
     3    24    23    2
     4    27    26    1
     5    26    28    1
     6    23    21    1
     7    23    29    1
     8    22    21    1
     9     2     3    1
    10     2     1    2
    11     3     4    2
    12    21    19   am
    13    28    29    2
    14    19     1    1
    15    19    20    2
    16     1     6    1
    17     4     5    1
    18     6     5    2
    19     5     7    1
    20     8     7    2
    21     7     9    2
    22     7    10    1
    23    11    10    1
    24    10    12    1
    25    18    12    2
    26    18    16    1
    27    12    13    1
    28    17    16    1
    29    16    15    2
    30    13    14    2
    31    15    14    1
