@<TRIPOS>MOLECULE
6930_out_ligand_01.pdbqt
 35 37 0 0 0
SMALL
GASTEIGER

@<TRIPOS>ATOM
      1  C         18.4540  -22.6060   -6.1830 C.2     1  UNL1       -0.0180
      2  C         19.0500  -21.4550   -5.6680 C.2     1  UNL1        0.0130
      3  C         20.2820  -21.0190   -6.1640 C.2     1  UNL1        0.0090
      4  C         20.9580  -21.7270   -7.1740 C.2     1  UNL1       -0.0390
      5  C         22.2760  -21.1860   -7.6490 C.3     1  UNL1        0.0500
      6  C         20.3600  -22.8990   -7.6710 C.2     1  UNL1        0.0860
      7  C         19.1040  -23.3190   -7.1930 C.2     1  UNL1        0.0380
      8  S         21.1070  -23.9570   -8.9080 S.O2    1  UNL1        0.2630
      9  O         22.5390  -23.7650   -8.7980 O.2     1  UNL1       -0.2000
     10  O         20.5270  -25.2790   -8.8570 O.2     1  UNL1       -0.2000
     11  N         20.6480  -23.2280  -10.3640 N.pl3   1  UNL1       -0.2810
     12  H         19.8270  -23.6700  -10.7750 H       1  UNL1        0.1790
     13  C         21.6450  -22.7000  -11.2300 C.2     1  UNL1        0.0420
     14  C         21.2560  -21.7820  -12.2110 C.2     1  UNL1        0.0310
     15  C         22.1940  -21.2970  -13.1240 C.2     1  UNL1        0.0270
     16  C         23.5240  -21.7240  -13.0380 C.2     1  UNL1        0.0740
     17  C         23.9200  -22.6310  -12.0530 C.2     1  UNL1        0.0270
     18  C         22.9750  -23.1140  -11.1430 C.2     1  UNL1        0.0310
     19  S         24.6980  -21.1420  -14.2340 S.O2    1  UNL1        0.2390
     20  O         25.4990  -20.1090  -13.6190 O.2     1  UNL1       -0.2060
     21  O         25.2790  -22.2900  -14.8870 O.2     1  UNL1       -0.2060
     22  N         23.7010  -20.3570  -15.3370 N.3     1  UNL1       -0.2250
     23  H         23.7010  -19.3420  -15.2420 H       1  UNL1        0.1360
     24  H         23.9570  -20.6510  -16.2810 H       1  UNL1        0.1360
     25  C         17.1940  -23.0730   -5.6540 C.ar    1  UNL1        0.0540
     26  C         16.8930  -23.7000   -4.4160 C.ar    1  UNL1        0.0730
     27  N         15.5920  -23.9970   -4.3260 N.ar    1  UNL1       -0.1300
     28  C         17.8130  -24.0460   -3.3070 C.3     1  UNL1        0.0740
     29  O         15.0230  -23.5590   -5.5110 O.2     1  UNL1       -0.1940
     30  C         15.9790  -23.0040   -6.3050 C.ar    1  UNL1        0.1880
     31  N         15.6460  -22.4840   -7.5370 N.am    1  UNL1       -0.3050
     32  C         15.7310  -23.2150   -8.7050 C.2     1  UNL1        0.2190
     33  C         15.2850  -22.4190   -9.9070 C.3     1  UNL1        0.1170
     34  O         16.0970  -24.3790   -8.8210 O.2     1  UNL1       -0.2740
     35  H         15.3010  -21.5340   -7.5660 H       1  UNL1        0.1710
@<TRIPOS>BOND
     1    24    22    1
     2    22    23    1
     3    22    19    1
     4    21    19    2
     5    19    20    2
     6    19    16    1
     7    15    16    2
     8    15    14    1
     9    16    17    1
    10    14    13    2
    11    17    18    2
    12    13    18    1
    13    13    11    1
    14    12    11    1
    15    11     8    1
    16    33    32    1
    17     8    10    2
    18     8     9    2
    19     8     6    1
    20    34    32    2
    21    32    31   am
    22     6     7    1
    23     6     4    2
    24     5     4    1
    25    35    31    1
    26    31    30    1
    27     7     1    2
    28     4     3    1
    29    30    25   ar
    30    30    29   ar
    31     1     2    1
    32     1    25    1
    33     3     2    2
    34    25    26   ar
    35    29    27   ar
    36    26    27   ar
    37    26    28    1
