@<TRIPOS>MOLECULE
69304_out_ligand_01.pdbqt
 34 37 0 0 0
SMALL
GASTEIGER

@<TRIPOS>ATOM
      1  C         20.9200  -22.4300  -10.6180 C.2     1  UNL1        0.0340
      2  C         19.8730  -21.5930  -11.0300 C.2     1  UNL1        0.0310
      3  C         18.5750  -21.7810  -10.5450 C.2     1  UNL1        0.0270
      4  C         18.3260  -22.8100   -9.6370 C.2     1  UNL1        0.0800
      5  C         19.3550  -23.6600   -9.2280 C.2     1  UNL1        0.0270
      6  C         20.6510  -23.4640   -9.7170 C.2     1  UNL1        0.0310
      7  S         16.6810  -23.0690   -9.0200 S.O2    1  UNL1        0.2630
      8  O         16.1510  -21.8010   -8.5700 O.2     1  UNL1       -0.2000
      9  O         15.9740  -23.8630  -10.0040 O.2     1  UNL1       -0.2000
     10  N         16.9390  -24.0870   -7.6980 N.pl3   1  UNL1       -0.2800
     11  H         16.7160  -25.0560   -7.9230 H       1  UNL1        0.1790
     12  C         16.5780  -23.6140   -6.4000 C.2     1  UNL1        0.0530
     13  C         15.4100  -24.1290   -5.8320 C.2     1  UNL1        0.0310
     14  C         15.0090  -23.7160   -4.5650 C.2     1  UNL1        0.0030
     15  C         15.7770  -22.7870   -3.8640 C.2     1  UNL1        0.0120
     16  C         16.9560  -22.2610   -4.4150 C.2     1  UNL1       -0.0240
     17  C         17.7190  -21.3250   -3.6950 C.2     1  UNL1        0.0120
     18  C         17.3800  -22.6760   -5.7010 C.2     1  UNL1        0.0010
     19  C         18.8960  -20.7990   -4.2250 C.2     1  UNL1        0.0010
     20  C         19.3290  -21.2020   -5.4820 C.2     1  UNL1        0.0010
     21  C         18.5810  -22.1290   -6.2120 C.2     1  UNL1        0.0140
     22  N         22.1940  -22.1690  -11.1580 N.am    1  UNL1       -0.3270
     23  C         23.3090  -21.6640  -10.5100 C.2     1  UNL1        0.2310
     24  O         23.3610  -21.2920   -9.3410 O.2     1  UNL1       -0.2720
     25  H         22.3420  -22.4510  -12.1210 H       1  UNL1        0.1690
     26  C         24.5240  -21.5120  -11.4170 C.3     1  UNL1        0.1820
     27  S         25.3400  -23.1070  -11.7790 S.3     1  UNL1       -0.1210
     28  C         25.0740  -23.2240  -13.5410 C.2     1  UNL1        0.0010
     29  C         24.5720  -22.1090  -14.2210 C.2     1  UNL1        0.0200
     30  C         24.3500  -22.1630  -15.6000 C.2     1  UNL1        0.0250
     31  C         24.6410  -23.3290  -16.3020 C.2     1  UNL1        0.0340
     32 CL         24.3720  -23.3970  -17.9990 Cl      1  UNL1       -0.0840
     33  C         25.1550  -24.4400  -15.6380 C.2     1  UNL1        0.0250
     34  C         25.3760  -24.3860  -14.2590 C.2     1  UNL1        0.0200
@<TRIPOS>BOND
     1    32    31    1
     2    31    33    2
     3    31    30    1
     4    33    34    1
     5    30    29    2
     6    34    28    2
     7    29    28    1
     8    28    27    1
     9    25    22    1
    10    27    26    1
    11    26    23    1
    12    22     1    1
    13    22    23   am
    14     2     1    2
    15     2     3    1
    16     1     6    1
    17     3     4    2
    18    23    24    2
    19     9     7    2
    20     6     5    2
    21     4     5    1
    22     4     7    1
    23     7     8    2
    24     7    10    1
    25    11    10    1
    26    10    12    1
    27    12    13    2
    28    12    18    1
    29    21    18    1
    30    21    20    2
    31    13    14    1
    32    18    16    2
    33    20    19    1
    34    14    15    2
    35    16    15    1
    36    16    17    1
    37    19    17    2
