@<TRIPOS>MOLECULE
69318_out_ligand_01.pdbqt
 40 43 0 0 0
SMALL
GASTEIGER

@<TRIPOS>ATOM
      1  N         21.0820  -22.8600  -10.8790 N.am    1  UNL1       -0.3230
      2  C         21.1900  -21.7820  -11.7380 C.2     1  UNL1        0.2560
      3  O         20.3800  -20.8770  -11.8970 O.2     1  UNL1       -0.2670
      4  H         21.8980  -23.4500  -10.7800 H       1  UNL1        0.1690
      5  C         19.9920  -23.1800  -10.0420 C.2     1  UNL1        0.0350
      6  C         18.6760  -22.7790  -10.2860 C.2     1  UNL1        0.0310
      7  C         17.6470  -23.1350   -9.4080 C.2     1  UNL1        0.0270
      8  C         17.9300  -23.9230   -8.2910 C.2     1  UNL1        0.0800
      9  C         19.2420  -24.3180   -8.0230 C.2     1  UNL1        0.0270
     10  C         20.2660  -23.9490   -8.9020 C.2     1  UNL1        0.0310
     11  S         16.6250  -24.3630   -7.1650 S.O2    1  UNL1        0.2630
     12  O         15.4880  -24.7760   -7.9630 O.2     1  UNL1       -0.2000
     13  O         17.1790  -25.2380   -6.1540 O.2     1  UNL1       -0.2000
     14  N         16.1850  -22.8890   -6.4720 N.pl3   1  UNL1       -0.2800
     15  H         15.6830  -22.2890   -7.1220 H       1  UNL1        0.1790
     16  C         17.0180  -22.2810   -5.4890 C.2     1  UNL1        0.0490
     17  C         16.7220  -22.4200   -4.1230 C.2     1  UNL1       -0.0350
     18  C         17.5530  -21.7880   -3.1850 C.2     1  UNL1        0.0090
     19  C         15.5520  -23.2290   -3.6350 C.3     1  UNL1        0.0500
     20  C         18.6510  -21.0300   -3.5970 C.2     1  UNL1        0.0070
     21  C         18.9420  -20.8880   -4.9560 C.2     1  UNL1       -0.0600
     22  C         20.1400  -20.1040   -5.4020 C.3     1  UNL1        0.0480
     23  C         18.1290  -21.5330   -5.8940 C.2     1  UNL1        0.0370
     24  C         22.4580  -21.7310  -12.5180 C.2     1  UNL1        0.0320
     25  C         23.5510  -22.4790  -12.0640 C.2     1  UNL1        0.0190
     26  C         24.7570  -22.4580  -12.7700 C.2     1  UNL1        0.0250
     27  C         24.8790  -21.6690  -13.9180 C.2     1  UNL1        0.0250
     28  C         23.7920  -20.9160  -14.3660 C.2     1  UNL1        0.0250
     29  C         22.5820  -20.9380  -13.6650 C.2     1  UNL1        0.0190
     30  N         26.0880  -21.6360  -14.6980 N.pl3   1  UNL1       -0.1760
     31  C         27.0420  -22.7340  -14.4080 C.3     1  UNL1        0.1360
     32  S         25.7850  -21.3640  -16.3720 S.O2    1  UNL1        0.2470
     33  O         24.3680  -21.5250  -16.6290 O.2     1  UNL1       -0.2050
     34  O         26.7740  -22.1030  -17.1320 O.2     1  UNL1       -0.2050
     35  C         26.1440  -19.6310  -16.5420 C.2     1  UNL1        0.0750
     36  C         26.4690  -18.8940  -15.3990 C.2     1  UNL1        0.0250
     37  C         26.7470  -17.5330  -15.5200 C.2     1  UNL1        0.0020
     38  C         26.6990  -16.9170  -16.7710 C.2     1  UNL1        0.0000
     39  C         26.3640  -17.6570  -17.9070 C.2     1  UNL1        0.0020
     40  C         26.0810  -19.0180  -17.7970 C.2     1  UNL1        0.0250
@<TRIPOS>BOND
     1    39    40    1
     2    39    38    2
     3    40    35    2
     4    34    32    2
     5    38    37    1
     6    33    32    2
     7    35    32    1
     8    35    36    1
     9    32    30    1
    10    37    36    2
    11    30    31    1
    12    30    27    1
    13    28    27    2
    14    28    29    1
    15    27    26    1
    16    29    24    2
    17    26    25    2
    18    24    25    1
    19    24     2    1
    20     3     2    2
    21     2     1   am
    22     1     4    1
    23     1     5    1
    24     6     5    2
    25     6     7    1
    26     5    10    1
    27     7     8    2
    28    10     9    2
    29     8     9    1
    30     8    11    1
    31    12    11    2
    32    11    14    1
    33    11    13    2
    34    15    14    1
    35    14    16    1
    36    23    16    2
    37    23    21    1
    38    16    17    1
    39    22    21    1
    40    21    20    2
    41    17    19    1
    42    17    18    2
    43    20    18    1
