@<TRIPOS>MOLECULE
69329_out_ligand_01.pdbqt
 29 32 0 0 0
SMALL
GASTEIGER

@<TRIPOS>ATOM
      1  N         18.0820  -22.6600   -8.5750 N.am    1  UNL1       -0.2430
      2  C         17.6350  -21.9750   -9.6850 C.2     1  UNL1        0.2660
      3  O         16.5220  -21.6150  -10.0240 O.2     1  UNL1       -0.2670
      4  C         18.7880  -21.7860  -10.5600 C.2     1  UNL1        0.0480
      5  C         18.8930  -21.1450  -11.7780 C.2     1  UNL1        0.0190
      6  C         20.1480  -21.1540  -12.4000 C.2     1  UNL1        0.0180
      7  C         21.2610  -21.7950  -11.7990 C.2     1  UNL1        0.0330
      8  C         21.1150  -22.4550  -10.5720 C.2     1  UNL1        0.0350
      9  C         19.8640  -22.4240   -9.9810 C.2     1  UNL1        0.0490
     10  C         19.4070  -23.0120   -8.7260 C.2     1  UNL1        0.2660
     11  O         20.1630  -23.6530   -8.0190 O.2     1  UNL1       -0.2670
     12  C         22.5570  -21.7680  -12.5340 C.2     1  UNL1        0.2520
     13  O         22.5910  -21.3490  -13.6840 O.2     1  UNL1       -0.2680
     14  N         23.6700  -22.2090  -11.8490 N.am    1  UNL1       -0.3520
     15  H         23.5900  -22.5450  -10.9000 H       1  UNL1        0.1630
     16  C         24.9740  -22.3170  -12.4980 C.3     1  UNL1        0.0840
     17  C         26.1050  -22.1280  -11.4710 C.3     1  UNL1        0.0250
     18  C         26.5720  -23.4580  -10.8910 C.3     1  UNL1        0.0020
     19  C         27.1210  -24.3900  -11.9740 C.3     1  UNL1        0.0000
     20  C         26.5090  -24.1480  -13.3550 C.3     1  UNL1        0.0020
     21  C         25.0720  -23.6540  -13.2540 C.3     1  UNL1        0.0250
     22  C         17.2530  -23.1000   -7.5010 C.2     1  UNL1        0.0520
     23  C         16.3220  -24.1250   -7.7590 C.2     1  UNL1        0.0310
     24  C         15.4220  -24.5540   -6.7870 C.2     1  UNL1        0.0030
     25  C         15.4270  -23.9630   -5.5310 C.2     1  UNL1        0.0070
     26  C         16.3530  -22.9570   -5.2230 C.2     1  UNL1       -0.0540
     27  C         16.3300  -22.3750   -3.8330 C.3     1  UNL1        0.0490
     28  C         17.3100  -22.5510   -6.1940 C.2     1  UNL1       -0.0290
     29  C         18.3950  -21.5910   -5.7660 C.3     1  UNL1        0.0510
@<TRIPOS>BOND
     1    13    12    2
     2    20    21    1
     3    20    19    1
     4    21    16    1
     5    12    14   am
     6    12     7    1
     7    16    14    1
     8    16    17    1
     9     6     7    2
    10     6     5    1
    11    19    18    1
    12    14    15    1
    13     7     8    1
    14     5     4    2
    15    17    18    1
    16     8     9    2
    17     4     9    1
    18     4     2    1
    19     3     2    2
    20     9    10    1
    21     2     1   am
    22    10     1   am
    23    10    11    2
    24     1    22    1
    25    23    22    2
    26    23    24    1
    27    22    28    1
    28    24    25    2
    29    28    29    1
    30    28    26    2
    31    25    26    1
    32    26    27    1
