@<TRIPOS>MOLECULE
69331_out_ligand_01.pdbqt
 30 32 0 0 0
SMALL
GASTEIGER

@<TRIPOS>ATOM
      1  N         17.9870  -22.3100  -10.6000 N.am    1  UNL1       -0.3570
      2  C         18.7630  -21.4270  -11.3240 C.2     1  UNL1        0.2510
      3  O         18.3290  -20.3820  -11.7930 O.2     1  UNL1       -0.2680
      4  H         18.4500  -23.0000  -10.0240 H       1  UNL1        0.1620
      5  C         16.6080  -21.9990  -10.2700 C.3     1  UNL1        0.1270
      6  C         15.8440  -23.1940   -9.6860 C.3     1  UNL1        0.0580
      7  C         16.0080  -23.3160   -8.1870 C.2     1  UNL1       -0.0570
      8  C         15.1820  -22.5800   -7.3250 C.2     1  UNL1        0.0090
      9  C         15.3460  -22.6650   -5.9430 C.2     1  UNL1        0.0250
     10  C         16.3390  -23.4980   -5.4200 C.2     1  UNL1        0.0740
     11  C         17.1780  -24.2280   -6.2640 C.2     1  UNL1        0.0250
     12  C         17.0090  -24.1370   -7.6470 C.2     1  UNL1        0.0090
     13  S         16.5470  -23.5980   -3.6630 S.O2    1  UNL1        0.2390
     14  O         15.7200  -24.6710   -3.1610 O.2     1  UNL1       -0.2060
     15  O         17.9550  -23.4980   -3.3650 O.2     1  UNL1       -0.2060
     16  N         15.8000  -22.1760   -3.1540 N.3     1  UNL1       -0.2250
     17  H         16.2340  -21.3360   -3.5350 H       1  UNL1        0.1360
     18  H         14.8060  -22.2280   -3.3780 H       1  UNL1        0.1360
     19  C         20.2040  -21.7760  -11.4680 C.2     1  UNL1        0.0320
     20  C         20.8080  -22.5350  -10.4600 C.2     1  UNL1        0.0180
     21  C         22.1580  -22.8910  -10.5590 C.2     1  UNL1        0.0130
     22  C         22.9330  -22.4890  -11.6580 C.2     1  UNL1       -0.0260
     23  C         22.3170  -21.7120  -12.6530 C.2     1  UNL1        0.0130
     24  C         20.9660  -21.3530  -12.5610 C.2     1  UNL1        0.0180
     25  C         24.3530  -22.8640  -11.7600 C.2     1  UNL1       -0.0260
     26  C         25.2560  -22.5690  -10.7250 C.2     1  UNL1        0.0120
     27  C         26.6040  -22.9260  -10.8200 C.2     1  UNL1        0.0010
     28  C         27.0720  -23.5830  -11.9550 C.2     1  UNL1        0.0000
     29  C         26.1950  -23.8830  -12.9940 C.2     1  UNL1        0.0010
     30  C         24.8480  -23.5260  -12.8960 C.2     1  UNL1        0.0120
@<TRIPOS>BOND
     1    29    30    1
     2    29    28    2
     3    30    25    2
     4    23    24    1
     5    23    22    2
     6    24    19    2
     7    28    27    1
     8     3     2    2
     9    25    22    1
    10    25    26    1
    11    22    21    1
    12    19     2    1
    13    19    20    1
    14     2     1   am
    15    27    26    2
    16     1     5    1
    17     1     4    1
    18    21    20    2
    19     5     6    1
    20     6     7    1
    21     7    12    2
    22     7     8    1
    23    12    11    1
    24     8     9    2
    25    11    10    2
    26     9    10    1
    27    10    13    1
    28    13    15    2
    29    13    14    2
    30    13    16    1
    31    17    16    1
    32    18    16    1
