@<TRIPOS>MOLECULE
69341_out_ligand_01.pdbqt
 32 34 0 0 0
SMALL
GASTEIGER

@<TRIPOS>ATOM
      1  N         22.2670  -23.1480  -10.5660 N.am    1  UNL1       -0.3260
      2  C         22.1220  -22.6270   -9.2790 C.2     1  UNL1        0.2400
      3  O         22.7600  -21.6690   -8.8470 O.2     1  UNL1       -0.2720
      4  H         21.7160  -23.9720  -10.7850 H       1  UNL1        0.1690
      5  C         23.1420  -22.7150  -11.5830 C.2     1  UNL1        0.0340
      6  C         24.4970  -23.0460  -11.6480 C.2     1  UNL1        0.0310
      7  C         25.2980  -22.5710  -12.6940 C.2     1  UNL1        0.0270
      8  C         24.7340  -21.7680  -13.6870 C.2     1  UNL1        0.0800
      9  C         23.3880  -21.4130  -13.6260 C.2     1  UNL1        0.0270
     10  C         22.5960  -21.8900  -12.5790 C.2     1  UNL1        0.0310
     11  S         25.7550  -21.1420  -14.9950 S.O2    1  UNL1        0.2650
     12  O         27.0260  -21.8340  -14.9240 O.2     1  UNL1       -0.2000
     13  O         25.6990  -19.6980  -14.9960 O.2     1  UNL1       -0.2000
     14  N         25.0220  -21.7220  -16.3670 N.am    1  UNL1       -0.2510
     15  C         24.9590  -23.0680  -16.7440 C.2     1  UNL1        0.2270
     16  C         24.1670  -23.3130  -17.9970 C.3     1  UNL1        0.1180
     17  O         25.5170  -23.9670  -16.1350 O.2     1  UNL1       -0.2730
     18  H         24.5910  -20.9930  -16.9250 H       1  UNL1        0.1810
     19  C         21.0060  -23.3360   -8.4750 C.3     1  UNL1        0.1770
     20  S         19.7890  -24.2230   -9.5360 S.3     1  UNL1       -0.1110
     21  C         18.7890  -22.8870  -10.1610 C.2     1  UNL1        0.0010
     22  C         17.4350  -22.8140   -9.8180 C.2     1  UNL1        0.0180
     23  C         16.6360  -21.7800  -10.3120 C.2     1  UNL1        0.0010
     24  C         17.1840  -20.8230  -11.1650 C.2     1  UNL1        0.0000
     25  C         18.5270  -20.9040  -11.5290 C.2     1  UNL1        0.0010
     26  C         19.3250  -21.9370  -11.0340 C.2     1  UNL1        0.0180
     27  C         20.3440  -22.4900   -7.3930 C.2     1  UNL1       -0.0350
     28  C         19.0830  -22.8610   -6.8950 C.2     1  UNL1        0.0090
     29  C         18.4590  -22.1080   -5.9000 C.2     1  UNL1        0.0010
     30  C         19.0800  -20.9700   -5.3930 C.2     1  UNL1        0.0000
     31  C         20.3230  -20.5790   -5.8850 C.2     1  UNL1        0.0010
     32  C         20.9510  -21.3310   -6.8790 C.2     1  UNL1        0.0090
@<TRIPOS>BOND
     1    16    15    1
     2    18    14    1
     3    15    14   am
     4    15    17    2
     5    14    11    1
     6    13    11    2
     7    11    12    2
     8    11     8    1
     9     8     9    2
    10     8     7    1
    11     9    10    1
    12     7     6    2
    13    10     5    2
    14     6     5    1
    15     5     1    1
    16    25    24    2
    17    25    26    1
    18    24    23    1
    19    26    21    2
    20     4     1    1
    21     1     2   am
    22    23    22    2
    23    21    22    1
    24    21    20    1
    25    20    19    1
    26     2     3    2
    27     2    19    1
    28    19    27    1
    29    27    28    2
    30    27    32    1
    31    28    29    1
    32    32    31    2
    33    29    30    2
    34    31    30    1
