@<TRIPOS>MOLECULE
69347_out_ligand_01.pdbqt
 32 35 0 0 0
SMALL
GASTEIGER

@<TRIPOS>ATOM
      1  N         21.1460  -22.9640   -8.2910 N.am    1  UNL1       -0.3600
      2  C         19.9890  -22.5960   -7.6150 C.2     1  UNL1        0.2300
      3  O         20.0020  -21.7740   -6.7010 O.2     1  UNL1       -0.2720
      4  H         21.0250  -23.3690   -9.2110 H       1  UNL1        0.1620
      5  C         22.3820  -22.2390   -8.0510 C.3     1  UNL1        0.1270
      6  C         23.5800  -22.8570   -8.7760 C.3     1  UNL1        0.0580
      7  C         23.7020  -22.4090  -10.2170 C.2     1  UNL1       -0.0570
      8  C         24.8780  -21.7940  -10.6720 C.2     1  UNL1        0.0090
      9  C         24.9810  -21.3550  -11.9930 C.2     1  UNL1        0.0250
     10  C         23.9070  -21.5440  -12.8660 C.2     1  UNL1        0.0740
     11  C         22.7280  -22.1500  -12.4270 C.2     1  UNL1        0.0250
     12  C         22.6300  -22.5850  -11.1050 C.2     1  UNL1        0.0090
     13  S         24.0380  -20.9690  -14.5380 S.O2    1  UNL1        0.2390
     14  O         23.9170  -22.1060  -15.4190 O.2     1  UNL1       -0.2060
     15  O         25.1390  -20.0370  -14.6160 O.2     1  UNL1       -0.2060
     16  N         22.6430  -20.0390  -14.6870 N.3     1  UNL1       -0.2250
     17  H         21.8380  -20.6610  -14.7730 H       1  UNL1        0.1360
     18  H         22.6870  -19.3630  -15.4480 H       1  UNL1        0.1360
     19  C         18.7200  -23.3090   -8.1190 C.2     1  UNL1        0.1490
     20  C         17.6590  -23.3500   -7.0440 C.2     1  UNL1       -0.0070
     21  C         17.8400  -24.1160   -5.8800 C.2     1  UNL1        0.0110
     22  C         16.4860  -22.6050   -7.1910 C.2     1  UNL1        0.0830
     23  C         16.8640  -24.1270   -4.8830 C.2     1  UNL1        0.0010
     24  C         15.7020  -23.3750   -5.0350 C.2     1  UNL1        0.0030
     25  C         15.5150  -22.6130   -6.1880 C.2     1  UNL1        0.0380
     26  O         16.2090  -21.8370   -8.2950 O.2     1  UNL1       -0.3100
     27  C         17.0180  -21.9630   -9.3990 C.2     1  UNL1        0.0830
     28  C         16.5660  -21.3390  -10.5630 C.2     1  UNL1        0.0380
     29  C         18.2230  -22.6690   -9.3970 C.2     1  UNL1       -0.0070
     30  C         17.3060  -21.4290  -11.7400 C.2     1  UNL1        0.0030
     31  C         18.5020  -22.1420  -11.7540 C.2     1  UNL1        0.0010
     32  C         18.9610  -22.7590  -10.5890 C.3     1  UNL1        0.0110
@<TRIPOS>BOND
     1    18    16    1
     2    14    13    2
     3    17    16    1
     4    16    13    1
     5    15    13    2
     6    13    10    1
     7    10    11    2
     8    10     9    1
     9    11    12    1
    10     9     8    2
    11    31    30    2
    12    31    32    1
    13    30    28    1
    14    12     7    2
    15     8     7    1
    16    32    29    1
    17    28    27    2
    18     7     6    1
    19    27    29    1
    20    27    26    1
    21    29    19    2
    22     4     1    1
    23     6     5    1
    24    26    22    1
    25     1     5    1
    26     1     2   am
    27    19     2    1
    28    19    20    1
    29     2     3    2
    30    22    20    2
    31    22    25    1
    32    20    21    1
    33    25    24    2
    34    21    23    2
    35    24    23    1
