@<TRIPOS>MOLECULE
69354_out_ligand_01.pdbqt
 44 47 0 0 0
SMALL
GASTEIGER

@<TRIPOS>ATOM
      1  C         21.8960  -21.9530  -11.0930 C.2     1  UNL1        0.2560
      2  O         21.3060  -20.8790  -11.0850 O.2     1  UNL1       -0.2670
      3  N         21.7910  -22.9630  -10.1540 N.am    1  UNL1       -0.3230
      4  H         22.4350  -23.7390  -10.2370 H       1  UNL1        0.1690
      5  C         20.9180  -23.0130   -9.0450 C.2     1  UNL1        0.0350
      6  C         20.8430  -22.0160   -8.0670 C.2     1  UNL1        0.0310
      7  C         19.9390  -22.1250   -7.0060 C.2     1  UNL1        0.0270
      8  C         19.0940  -23.2340   -6.9300 C.2     1  UNL1        0.0800
      9  C         19.1580  -24.2410   -7.8940 C.2     1  UNL1        0.0270
     10  C         20.0720  -24.1270   -8.9450 C.2     1  UNL1        0.0310
     11  S         17.9260  -23.3470   -5.6000 S.O2    1  UNL1        0.2630
     12  O         18.3360  -22.3810   -4.6030 O.2     1  UNL1       -0.2000
     13  O         17.7310  -24.7420   -5.2660 O.2     1  UNL1       -0.2000
     14  N         16.5040  -22.7360   -6.2840 N.pl3   1  UNL1       -0.2810
     15  H         15.7190  -22.8790   -5.6530 H       1  UNL1        0.1790
     16  C         16.2750  -22.9200   -7.6770 C.2     1  UNL1        0.0430
     17  C         15.5000  -23.9780   -8.1500 C.2     1  UNL1        0.0300
     18  C         15.2870  -24.1290   -9.5210 C.2     1  UNL1        0.0030
     19  C         15.8470  -23.2190  -10.4210 C.2     1  UNL1        0.0160
     20  C         16.6210  -22.1440   -9.9570 C.2     1  UNL1        0.0500
     21  C         16.8330  -22.0060   -8.5740 C.2     1  UNL1        0.0460
     22  C         17.2500  -21.1770  -10.9280 C.3     1  UNL1        0.4170
     23  F         17.2220  -21.6160  -12.2170 F       1  UNL1       -0.1660
     24  F         18.5580  -20.9130  -10.6530 F       1  UNL1       -0.1660
     25  F         16.6190  -19.9710  -10.9310 F       1  UNL1       -0.1660
     26  C         22.8420  -22.2220  -12.2160 C.2     1  UNL1        0.0320
     27  C         23.7750  -23.2590  -12.0680 C.2     1  UNL1        0.0190
     28  C         24.7000  -23.5230  -13.0790 C.2     1  UNL1        0.0260
     29  C         24.6940  -22.7620  -14.2490 C.2     1  UNL1        0.0250
     30  C         23.7910  -21.7020  -14.3870 C.2     1  UNL1        0.0260
     31  C         22.8640  -21.4350  -13.3750 C.2     1  UNL1        0.0190
     32  N         25.7300  -23.0010  -15.2210 N.pl3   1  UNL1       -0.1720
     33  S         25.3210  -22.5340  -16.8140 S.O2    1  UNL1        0.2120
     34  C         26.9150  -22.3430  -17.5820 C.3     1  UNL1        0.1800
     35  O         24.6810  -23.6540  -17.4750 O.2     1  UNL1       -0.2110
     36  O         24.6670  -21.2420  -16.7590 O.2     1  UNL1       -0.2110
     37  C         27.0940  -22.6210  -14.7530 C.3     1  UNL1        0.1510
     38  C         27.1200  -21.3930  -13.8720 C.2     1  UNL1       -0.0440
     39  C         27.1160  -20.1100  -14.4400 C.2     1  UNL1        0.0100
     40  C         27.1180  -18.9760  -13.6240 C.2     1  UNL1        0.0240
     41  C         27.1200  -19.1170  -12.2380 C.2     1  UNL1        0.0340
     42 CL         27.1130  -17.7200  -11.2340 Cl      1  UNL1       -0.0840
     43  C         27.1210  -20.3850  -11.6600 C.2     1  UNL1        0.0240
     44  C         27.1180  -21.5190  -12.4750 C.2     1  UNL1        0.0100
@<TRIPOS>BOND
     1    34    33    1
     2    35    33    2
     3    33    36    2
     4    33    32    1
     5    32    37    1
     6    32    29    1
     7    37    38    1
     8    39    38    2
     9    39    40    1
    10    30    29    2
    11    30    31    1
    12    29    28    1
    13    38    44    1
    14    40    41    2
    15    31    26    2
    16    28    27    2
    17    44    43    2
    18    41    43    1
    19    41    42    1
    20    23    22    1
    21    26    27    1
    22    26     1    1
    23     1     2    2
    24     1     3   am
    25    25    22    1
    26    22    24    1
    27    22    20    1
    28    19    20    2
    29    19    18    1
    30     4     3    1
    31     3     5    1
    32    20    21    1
    33    18    17    2
    34     5    10    2
    35     5     6    1
    36    10     9    1
    37    21    16    2
    38    17    16    1
    39     6     7    2
    40     9     8    2
    41    16    14    1
    42     7     8    1
    43     8    11    1
    44    14    15    1
    45    14    11    1
    46    11    13    2
    47    11    12    2
