@<TRIPOS>MOLECULE
6938_out_ligand_01.pdbqt
 35 38 0 0 0
SMALL
GASTEIGER

@<TRIPOS>ATOM
      1  C         18.8730  -22.7550   -9.9070 C.2     1  UNL1        0.0340
      2  C         18.0980  -21.8250  -10.6120 C.2     1  UNL1        0.0170
      3  C         18.6730  -21.0790  -11.6380 C.2     1  UNL1        0.0030
      4  C         20.0180  -21.2640  -11.9640 C.2     1  UNL1        0.0290
      5  C         20.8000  -22.2050  -11.2820 C.2     1  UNL1        0.0370
      6  C         20.2210  -22.9500  -10.2520 C.2     1  UNL1        0.0460
      7  N         22.1500  -22.3130  -11.6710 N.am    1  UNL1       -0.3090
      8  C         23.2590  -21.7600  -11.0620 C.2     1  UNL1        0.3270
      9  O         23.2440  -21.1870   -9.9740 O.2     1  UNL1       -0.2460
     10  N         24.4710  -22.0000  -11.7340 N.am    1  UNL1       -0.2960
     11  C         25.6300  -22.1280  -10.8440 C.3     1  UNL1        0.1440
     12  C         24.6000  -22.3090  -13.1330 C.2     1  UNL1        0.0800
     13  C         26.9560  -22.5220  -11.4760 C.3     1  UNL1        0.1010
     14  S         26.7190  -24.0040  -12.4770 S.3     1  UNL1       -0.1060
     15  C         25.5290  -23.2710  -13.5800 C.2     1  UNL1        0.1210
     16  N         25.6300  -23.6930  -14.8630 N.2     1  UNL1       -0.2440
     17  C         24.8220  -23.1270  -15.7800 C.2     1  UNL1        0.0320
     18  C         24.9440  -23.6070  -17.1950 C.3     1  UNL1        0.0700
     19  C         23.9360  -22.1090  -15.4570 C.2     1  UNL1        0.0350
     20  C         23.8390  -21.6600  -14.1290 C.2     1  UNL1       -0.0300
     21  C         22.9720  -20.4530  -13.8870 C.3     1  UNL1        0.0500
     22  H         22.3530  -22.9850  -12.3970 H       1  UNL1        0.1700
     23  C         18.2950  -23.5660   -8.7980 C.2     1  UNL1        0.2510
     24  N         16.9210  -23.5260   -8.6720 N.am    1  UNL1       -0.3570
     25  H         16.4360  -22.7530   -9.1120 H       1  UNL1        0.1620
     26  O         19.0220  -24.1950   -8.0410 O.2     1  UNL1       -0.2680
     27  C         16.2680  -24.1180   -7.5170 C.3     1  UNL1        0.1270
     28  C         15.6260  -23.0690   -6.6040 C.3     1  UNL1        0.0580
     29  C         16.5670  -22.5410   -5.5460 C.2     1  UNL1       -0.0560
     30  C         16.3550  -22.8350   -4.1930 C.2     1  UNL1        0.0070
     31  C         17.2340  -22.3590   -3.2210 C.2     1  UNL1        0.0010
     32  C         18.3360  -21.5880   -3.5910 C.2     1  UNL1        0.0070
     33  C         18.5700  -21.2870   -4.9390 C.2     1  UNL1       -0.0610
     34  C         19.7440  -20.4360   -5.3220 C.3     1  UNL1        0.0480
     35  C         17.6770  -21.7610   -5.9080 C.2     1  UNL1        0.0130
@<TRIPOS>BOND
     1    18    17    1
     2    17    19    2
     3    17    16    1
     4    19    20    1
     5    16    15    2
     6    20    21    1
     7    20    12    2
     8    15    12    1
     9    15    14    1
    10    12    10    1
    11    14    13    1
    12    22     7    1
    13     4     3    2
    14     4     5    1
    15    10     8   am
    16    10    11    1
    17     7     5    1
    18     7     8   am
    19     3     2    1
    20    13    11    1
    21     5     6    2
    22     8     9    2
    23     2     1    2
    24     6     1    1
    25     1    23    1
    26    25    24    1
    27    23    24   am
    28    23    26    2
    29    24    27    1
    30    27    28    1
    31    28    29    1
    32    35    29    2
    33    35    33    1
    34    29    30    1
    35    34    33    1
    36    33    32    2
    37    30    31    2
    38    32    31    1
