@<TRIPOS>MOLECULE
69409_out_ligand_01.pdbqt
 35 40 0 0 0
SMALL
GASTEIGER

@<TRIPOS>ATOM
      1  C         21.4010  -23.0530  -10.3420 C.2     1  UNL1        0.0560
      2  C         20.1880  -22.3920  -10.5330 C.2     1  UNL1        0.0320
      3  C         19.2000  -22.4240   -9.5450 C.2     1  UNL1        0.0110
      4  C         19.4080  -23.1150   -8.3420 C.2     1  UNL1       -0.0400
      5  C         20.6390  -23.7640   -8.1530 C.2     1  UNL1        0.0110
      6  C         21.6250  -23.7280   -9.1440 C.2     1  UNL1        0.0320
      7  N         22.4040  -22.9850  -11.3190 N.2     1  UNL1       -0.2600
      8  C         23.5570  -22.5340  -10.9270 C.2     1  UNL1        0.1320
      9  C         24.7340  -22.4130  -11.8200 C.2     1  UNL1        0.0260
     10  C         24.6850  -21.8200  -13.1180 C.2     1  UNL1       -0.0110
     11  C         23.5300  -21.2660  -13.7280 C.2     1  UNL1        0.0130
     12  C         25.8840  -21.7960  -13.8840 C.2     1  UNL1       -0.0250
     13  C         23.5600  -20.6970  -15.0030 C.2     1  UNL1        0.0010
     14  C         24.7450  -20.6730  -15.7220 C.2     1  UNL1        0.0010
     15  C         25.8970  -21.2230  -15.1680 C.2     1  UNL1        0.0120
     16  C         27.0620  -22.3590  -13.3740 C.2     1  UNL1        0.0150
     17  C         27.0900  -22.9400  -12.1100 C.2     1  UNL1        0.0380
     18  C         25.9380  -22.9440  -11.3290 C.2     1  UNL1        0.0810
     19  O         26.0110  -23.5110  -10.0810 O.2     1  UNL1       -0.3510
     20  C         27.0350  -24.5200  -10.0360 C.3     1  UNL1        0.1710
     21  C         27.1210  -25.0520   -8.6180 C.3     1  UNL1        0.0340
     22  C         18.3650  -23.1360   -7.2320 C.3     1  UNL1        0.0980
     23  N         17.1430  -22.4570   -7.6610 N.pl3   1  UNL1       -0.2830
     24  C         16.1320  -22.3640   -6.6910 C.2     1  UNL1        0.0150
     25  H         16.7840  -22.8330   -8.5370 H       1  UNL1        0.1280
     26  C         14.8180  -22.1090   -7.1100 C.2     1  UNL1        0.0240
     27  C         16.4160  -22.3810   -5.3140 C.2     1  UNL1       -0.0290
     28  C         13.7830  -21.9580   -6.1870 C.2     1  UNL1        0.0020
     29  C         14.0540  -22.0400   -4.8260 C.2     1  UNL1        0.0010
     30  C         15.3630  -22.2480   -4.3910 C.2     1  UNL1        0.0090
     31  C         17.8320  -22.5720   -4.8150 C.3     1  UNL1        0.0490
     32  C         18.3130  -21.4430   -3.9380 C.3     1  UNL1       -0.0210
     33  C         18.8990  -22.5500   -5.9260 C.3     1  UNL1        0.0230
     34  C         19.1690  -20.6380   -4.5760 C.3     1  UNL1       -0.0290
     35  C         19.3940  -21.0940   -5.9820 C.3     1  UNL1        0.0340
@<TRIPOS>BOND
     1    14    15    2
     2    14    13    1
     3    15    12    1
     4    13    11    2
     5    12    16    2
     6    12    10    1
     7    11    10    1
     8    16    17    1
     9    10     9    2
    10    17    18    2
    11     9    18    1
    12     9     8    1
    13    18    19    1
    14     7     8    2
    15     7     1    1
    16     2     1    2
    17     2     3    1
    18     1     6    1
    19    19    20    1
    20    20    21    1
    21     3     4    2
    22     6     5    2
    23    25    23    1
    24     4     5    1
    25     4    22    1
    26    23    22    1
    27    23    24    1
    28    22    33    1
    29    26    24    2
    30    26    28    1
    31    24    27    1
    32    28    29    2
    33    35    33    1
    34    35    34    1
    35    33    31    1
    36    27    31    1
    37    27    30    2
    38    29    30    1
    39    31    32    1
    40    34    32    1
