@<TRIPOS>MOLECULE
6941_out_ligand_01.pdbqt
 31 34 0 0 0
SMALL
GASTEIGER

@<TRIPOS>ATOM
      1  C         21.6200  -21.5510  -12.2710 C.2     1  UNL1        0.0330
      2  C         20.2950  -21.1310  -12.1790 C.2     1  UNL1        0.0190
      3  C         19.4690  -21.6250  -11.1590 C.2     1  UNL1        0.0310
      4  C         19.9290  -22.5640  -10.2220 C.2     1  UNL1        0.0430
      5  C         21.2660  -23.0030  -10.3400 C.2     1  UNL1       -0.0300
      6  C         22.0990  -22.4910  -11.3560 C.2     1  UNL1        0.0260
      7  C         21.8690  -23.9970   -9.3850 C.3     1  UNL1        0.0420
      8  C         20.7910  -24.8260   -8.7190 C.3     1  UNL1        0.0250
      9  C         19.7440  -23.8970   -8.1340 C.3     1  UNL1        0.1330
     10  N         19.0950  -23.0550   -9.1510 N.am    1  UNL1       -0.3130
     11  C         17.7160  -22.7780   -9.0730 C.2     1  UNL1        0.2580
     12  O         16.9930  -22.4090   -9.9960 O.2     1  UNL1       -0.2670
     13  C         22.5440  -21.0510  -13.3310 C.2     1  UNL1        0.2560
     14  N         23.8430  -21.5170  -13.2420 N.am    1  UNL1       -0.3230
     15  H         24.0360  -22.2070  -12.5280 H       1  UNL1        0.1690
     16  O         22.0870  -20.3100  -14.1930 O.2     1  UNL1       -0.2670
     17  C         24.9310  -21.1940  -14.0820 C.2     1  UNL1        0.0360
     18  C         25.6220  -22.2630  -14.6670 C.2     1  UNL1        0.0290
     19  C         26.7100  -22.0310  -15.5090 C.2     1  UNL1        0.0040
     20  C         27.1210  -20.7250  -15.7680 C.2     1  UNL1        0.0180
     21  C         26.4540  -19.6430  -15.1830 C.2     1  UNL1        0.0020
     22  C         25.3520  -19.8880  -14.3520 C.2     1  UNL1        0.0480
     23  S         27.0360  -17.9980  -15.5780 S.3     1  UNL1       -0.1340
     24  C         26.7090  -17.9140  -17.3600 C.3     1  UNL1        0.0950
     25  C         17.0390  -22.9500   -7.7640 C.2     1  UNL1        0.0320
     26  C         16.0700  -23.9430   -7.5890 C.2     1  UNL1        0.0170
     27  C         15.4560  -24.1010   -6.3450 C.2     1  UNL1        0.0070
     28  C         15.8100  -23.2730   -5.2700 C.2     1  UNL1       -0.0620
     29  C         15.1760  -23.4700   -3.9230 C.3     1  UNL1        0.0480
     30  C         16.8110  -22.3090   -5.4460 C.2     1  UNL1        0.0070
     31  C         17.4280  -22.1480   -6.6880 C.2     1  UNL1        0.0170
@<TRIPOS>BOND
     1    24    23    1
     2    20    19    2
     3    20    21    1
     4    23    21    1
     5    19    18    1
     6    21    22    2
     7    18    17    2
     8    22    17    1
     9    16    13    2
    10    17    14    1
    11    13    14   am
    12    13     1    1
    13    14    15    1
    14     1     2    2
    15     1     6    1
    16     2     3    1
    17     6     5    2
    18     3     4    2
    19     5     4    1
    20     5     7    1
    21     4    10    1
    22    12    11    2
    23     7     8    1
    24    10    11   am
    25    10     9    1
    26    11    25    1
    27     8     9    1
    28    25    26    2
    29    25    31    1
    30    26    27    1
    31    31    30    2
    32    27    28    2
    33    30    28    1
    34    28    29    1
