@<TRIPOS>MOLECULE
69416_out_ligand_01.pdbqt
 42 46 0 0 0
SMALL
GASTEIGER

@<TRIPOS>ATOM
      1  C         19.8790  -22.6400  -10.8020 C.2     1  UNL1        0.0350
      2  C         19.8860  -23.5540   -9.7380 C.2     1  UNL1        0.0310
      3  C         18.7280  -23.7980   -8.9960 C.2     1  UNL1        0.0270
      4  C         17.5500  -23.1260   -9.3230 C.2     1  UNL1        0.0800
      5  C         17.5370  -22.1840  -10.3540 C.2     1  UNL1        0.0270
      6  C         18.7000  -21.9520  -11.0950 C.2     1  UNL1        0.0310
      7  N         21.0880  -22.4760  -11.5120 N.am    1  UNL1       -0.3230
      8  C         22.3190  -22.0990  -11.0080 C.2     1  UNL1        0.2570
      9  O         22.5640  -21.8510   -9.8320 O.2     1  UNL1       -0.2670
     10  H         21.0260  -22.6380  -12.5090 H       1  UNL1        0.1690
     11  C         23.4120  -21.9990  -12.0550 C.2     1  UNL1        0.0430
     12  C         23.1450  -21.2230  -13.1290 C.2     1  UNL1        0.0290
     13  C         24.0420  -20.9850  -14.2660 C.2     1  UNL1       -0.0350
     14  C         23.9390  -21.7430  -15.4400 C.2     1  UNL1        0.0140
     15  C         24.8020  -21.5070  -16.5140 C.2     1  UNL1        0.0370
     16  C         25.7680  -20.4990  -16.4120 C.2     1  UNL1        0.1020
     17  C         25.8720  -19.7250  -15.2480 C.2     1  UNL1        0.0370
     18  C         25.0030  -19.9700  -14.1800 C.2     1  UNL1        0.0140
     19  N         26.6790  -20.2470  -17.5370 N.pl3   1  UNL1       -0.1160
     20  O         27.1200  -21.2280  -18.1520 O.2     1  UNL1       -0.5320
     21  O         26.9520  -19.0680  -17.8040 O.2     1  UNL1       -0.5320
     22  C         24.7000  -22.7050  -11.9100 C.2     1  UNL1       -0.0210
     23  C         25.5610  -22.4010  -10.8470 C.2     1  UNL1        0.0120
     24  C         26.7680  -23.0860  -10.7030 C.2     1  UNL1        0.0010
     25  C         27.1210  -24.0790  -11.6160 C.2     1  UNL1        0.0000
     26  C         26.2690  -24.3890  -12.6760 C.2     1  UNL1        0.0010
     27  C         25.0610  -23.7040  -12.8240 C.2     1  UNL1        0.0120
     28  S         16.0600  -23.4440   -8.4060 S.O2    1  UNL1        0.2630
     29  O         15.2720  -24.3860   -9.1720 O.2     1  UNL1       -0.2000
     30  O         15.5100  -22.1700   -7.9930 O.2     1  UNL1       -0.2000
     31  N         16.6120  -24.2870   -7.0510 N.pl3   1  UNL1       -0.2800
     32  H         17.4060  -24.8860   -7.2560 H       1  UNL1        0.1790
     33  C         16.5550  -23.6590   -5.7680 C.2     1  UNL1        0.0530
     34  C         15.5310  -24.0470   -4.9000 C.2     1  UNL1        0.0310
     35  C         15.4090  -23.4540   -3.6480 C.2     1  UNL1        0.0030
     36  C         16.3050  -22.4600   -3.2650 C.2     1  UNL1        0.0120
     37  C         17.3350  -22.0440   -4.1230 C.2     1  UNL1       -0.0240
     38  C         18.2230  -21.0310   -3.7210 C.2     1  UNL1        0.0120
     39  C         17.4780  -22.6450   -5.3990 C.2     1  UNL1        0.0010
     40  C         19.2480  -20.6000   -4.5610 C.2     1  UNL1        0.0010
     41  C         19.4030  -21.1780   -5.8140 C.2     1  UNL1        0.0010
     42  C         18.5320  -22.1890   -6.2270 C.2     1  UNL1        0.0140
@<TRIPOS>BOND
     1    20    19    2
     2    21    19    2
     3    19    16    1
     4    15    16    2
     5    15    14    1
     6    16    17    1
     7    14    13    2
     8    17    18    2
     9    13    18    1
    10    13    12    1
    11    12    11    2
    12    27    26    1
    13    27    22    2
    14    26    25    2
    15    10     7    1
    16    11    22    1
    17    11     8    1
    18    22    23    1
    19    25    24    1
    20     7     8   am
    21     7     1    1
    22     6     1    2
    23     6     5    1
    24     8     9    2
    25    23    24    2
    26     1     2    1
    27     5     4    2
    28     2     3    2
    29     4     3    1
    30     4    28    1
    31    29    28    2
    32    28    30    2
    33    28    31    1
    34    32    31    1
    35    31    33    1
    36    42    41    2
    37    42    39    1
    38    41    40    1
    39    33    39    2
    40    33    34    1
    41    39    37    1
    42    34    35    2
    43    40    38    2
    44    37    38    1
    45    37    36    2
    46    35    36    1
