@<TRIPOS>MOLECULE
69516_out_ligand_01.pdbqt
 33 35 0 0 0
SMALL
GASTEIGER

@<TRIPOS>ATOM
      1  C         20.2400  -21.5680  -11.0770 C.2     1  UNL1        0.0400
      2  C         18.9860  -21.8460  -10.6630 C.2     1  UNL1        0.1130
      3  C         17.8750  -21.2390  -11.3140 C.1     1  UNL1        0.1050
      4  N         17.0020  -20.7500  -11.9020 N.1     1  UNL1       -0.1910
      5  C         18.6630  -22.7230   -9.4960 C.2     1  UNL1        0.2660
      6  O         19.0590  -23.8820   -9.5000 O.2     1  UNL1       -0.2670
      7  N         17.9420  -22.0900   -8.4990 N.am    1  UNL1       -0.3220
      8  H         17.7060  -21.1240   -8.6700 H       1  UNL1        0.1690
      9  C         17.4560  -22.6440   -7.2850 C.2     1  UNL1        0.0420
     10  C         16.3560  -23.5140   -7.2590 C.2     1  UNL1        0.0300
     11  C         15.8720  -24.0320   -6.0570 C.2     1  UNL1        0.0040
     12  C         16.4730  -23.6750   -4.8580 C.2     1  UNL1        0.0240
     13  C         17.5700  -22.8090   -4.8570 C.2     1  UNL1        0.0420
     14 CL         18.2240  -22.4000   -3.3050 Cl      1  UNL1       -0.0840
     15  C         18.0940  -22.2940   -6.0630 C.2     1  UNL1       -0.0130
     16  C         19.2800  -21.3610   -6.0580 C.3     1  UNL1        0.0520
     17  C         21.4960  -22.0510  -10.4880 C.2     1  UNL1       -0.0320
     18  C         21.7220  -22.0150   -9.1080 C.2     1  UNL1        0.0110
     19  C         22.9120  -22.5120   -8.5780 C.2     1  UNL1        0.0040
     20  C         23.8900  -23.0280   -9.4260 C.2     1  UNL1        0.0380
     21  C         23.6920  -23.0280  -10.8060 C.2     1  UNL1        0.0900
     22  C         22.4950  -22.5470  -11.3370 C.2     1  UNL1        0.0490
     23  O         24.7040  -23.5720  -11.5540 O.2     1  UNL1       -0.2290
     24  S         25.7910  -22.6250  -12.3250 S.3     1  UNL1        0.3030
     25  O         27.1150  -23.2150  -12.2080 O.3     1  UNL1       -0.1930
     26  O         25.5590  -21.2450  -11.9300 O.3     1  UNL1       -0.1930
     27  C         25.3070  -22.7910  -14.0290 C.2     1  UNL1        0.0860
     28  C         24.8650  -21.6780  -14.7510 C.2     1  UNL1        0.0260
     29  C         24.4950  -21.8350  -16.0890 C.2     1  UNL1        0.0080
     30  C         24.5600  -23.0950  -16.7040 C.2     1  UNL1       -0.0620
     31  C         24.1970  -23.2490  -18.1530 C.3     1  UNL1        0.0480
     32  C         25.0270  -24.1950  -15.9720 C.2     1  UNL1        0.0080
     33  C         25.3990  -24.0480  -14.6330 C.2     1  UNL1        0.0260
@<TRIPOS>BOND
     1    31    30    1
     2    30    29    2
     3    30    32    1
     4    29    28    1
     5    32    33    2
     6    28    27    2
     7    33    27    1
     8    27    24    1
     9    24    25    1
    10    24    26    1
    11    24    23    1
    12     4     3    3
    13    23    21    1
    14    22    21    1
    15    22    17    2
    16     3     2    1
    17     1     2    2
    18     1    17    1
    19    21    20    2
    20     2     5    1
    21    17    18    1
    22     6     5    2
    23     5     7   am
    24    20    19    1
    25    18    19    2
    26     8     7    1
    27     7     9    1
    28     9    10    2
    29     9    15    1
    30    10    11    1
    31    15    16    1
    32    15    13    2
    33    11    12    2
    34    12    13    1
    35    13    14    1
