@<TRIPOS>MOLECULE
69527_out_ligand_01.pdbqt
 32 34 0 0 0
SMALL
GASTEIGER

@<TRIPOS>ATOM
      1  C         18.5480  -22.9770  -10.3700 C.2     1  UNL1        0.0400
      2  C         17.5550  -22.6360   -9.5340 C.2     1  UNL1        0.1130
      3  C         16.2480  -22.3710  -10.0180 C.1     1  UNL1        0.1050
      4  N         15.1870  -22.1930  -10.4500 N.1     1  UNL1       -0.1910
      5  C         17.7720  -22.5130   -8.0690 C.2     1  UNL1        0.2660
      6  O         18.6740  -21.7990   -7.6400 O.2     1  UNL1       -0.2670
      7  N         16.8640  -23.2500   -7.3380 N.am    1  UNL1       -0.3200
      8  H         16.2110  -23.8430   -7.8410 H       1  UNL1        0.1690
      9  C         16.7160  -23.2810   -5.9360 C.2     1  UNL1        0.0730
     10  C         17.6060  -23.9060   -5.0610 C.2     1  UNL1        0.0330
     11  C         17.3940  -23.8450   -3.6780 C.2     1  UNL1        0.0020
     12  C         16.2920  -23.1700   -3.1590 C.2     1  UNL1        0.0030
     13  C         15.3900  -22.5550   -4.0230 C.2     1  UNL1        0.0440
     14  C         15.6110  -22.6130   -5.3960 C.2     1  UNL1        0.1430
     15  F         14.7350  -22.0140   -6.2180 F       1  UNL1       -0.2040
     16  C         19.9410  -23.1960   -9.9720 C.2     1  UNL1       -0.0320
     17  C         20.2820  -24.3070   -9.1950 C.2     1  UNL1        0.0110
     18  C         21.6110  -24.5120   -8.8190 C.2     1  UNL1        0.0040
     19  C         22.6100  -23.6180   -9.2250 C.2     1  UNL1        0.0380
     20  C         22.2790  -22.5150  -10.0120 C.2     1  UNL1        0.0900
     21  C         20.9440  -22.3040  -10.3780 C.2     1  UNL1        0.0490
     22  O         23.1600  -21.5780  -10.4940 O.2     1  UNL1       -0.2290
     23  S         24.7040  -21.9180  -10.8630 S.3     1  UNL1        0.3030
     24  O         25.0960  -23.1550  -10.2080 O.3     1  UNL1       -0.1930
     25  O         25.4930  -20.7140  -10.7010 O.3     1  UNL1       -0.1930
     26  C         24.6160  -22.2750  -12.6030 C.2     1  UNL1        0.0860
     27  C         25.2420  -23.4290  -13.0880 C.2     1  UNL1        0.0260
     28  C         25.2010  -23.7060  -14.4540 C.2     1  UNL1        0.0080
     29  C         24.5530  -22.8340  -15.3370 C.2     1  UNL1       -0.0620
     30  C         24.4980  -23.1370  -16.8070 C.3     1  UNL1        0.0480
     31  C         23.9170  -21.6910  -14.8320 C.2     1  UNL1        0.0080
     32  C         23.9510  -21.4040  -13.4670 C.2     1  UNL1        0.0260
@<TRIPOS>BOND
     1    30    29    1
     2    29    31    2
     3    29    28    1
     4    31    32    1
     5    28    27    2
     6    32    26    2
     7    27    26    1
     8    26    23    1
     9    23    25    1
    10    23    22    1
    11    23    24    1
    12    22    20    1
    13     4     3    3
    14    21    20    1
    15    21    16    2
    16     1    16    1
    17     1     2    2
    18     3     2    1
    19    20    19    2
    20    16    17    1
    21     2     5    1
    22    19    18    1
    23    17    18    2
    24     5     6    2
    25     5     7   am
    26     8     7    1
    27     7     9    1
    28    15    14    1
    29     9    14    2
    30     9    10    1
    31    14    13    1
    32    10    11    2
    33    13    12    2
    34    11    12    1
