@<TRIPOS>MOLECULE
6957_out_ligand_01.pdbqt
 31 33 0 0 0
SMALL
GASTEIGER

@<TRIPOS>ATOM
      1  C         18.4680  -22.5810   -9.3340 C.2     1  UNL1        0.0810
      2  C         19.5590  -22.2170  -10.1450 C.2     1  UNL1        0.0360
      3  C         19.3620  -21.5030  -11.3310 C.2     1  UNL1       -0.0350
      4  C         18.0560  -21.1930  -11.7200 C.2     1  UNL1        0.0120
      5  C         16.9690  -21.5570  -10.9190 C.2     1  UNL1        0.0090
      6  C         17.1550  -22.2440   -9.7090 C.2     1  UNL1       -0.0390
      7  C         15.9390  -22.6120   -8.9050 C.3     1  UNL1        0.0500
      8  S         18.8230  -23.5100   -7.8480 S.O2    1  UNL1        0.2460
      9  O         20.2360  -23.8380   -7.8540 O.2     1  UNL1       -0.2060
     10  O         17.8130  -24.5340   -7.6980 O.2     1  UNL1       -0.2060
     11  N         18.6320  -22.2930   -6.6620 N.pl3   1  UNL1       -0.1810
     12  H         19.5640  -22.1350   -6.2710 H       1  UNL1        0.1460
     13  C         17.7270  -22.6510   -5.6080 C.2     1  UNL1        0.0230
     14  C         18.2150  -23.3970   -4.5360 C.2     1  UNL1        0.0240
     15  C         17.3630  -23.7450   -3.4880 C.2     1  UNL1        0.0020
     16  C         16.0290  -23.3360   -3.5100 C.2     1  UNL1        0.0070
     17  C         15.5320  -22.5770   -4.5810 C.2     1  UNL1       -0.0570
     18  C         16.3930  -22.2350   -5.6340 C.2     1  UNL1        0.0310
     19  C         14.1040  -22.0910   -4.5750 C.3     1  UNL1        0.0340
     20  C         13.7050  -21.5150   -5.9280 C.3     1  UNL1        0.0100
     21  C         20.5330  -21.1580  -12.1530 C.2     1  UNL1        0.0140
     22  C         21.6720  -21.8700  -12.1480 C.2     1  UNL1        0.0430
     23  C         22.8110  -21.5260  -12.9340 C.ar    1  UNL1        0.1360
     24  O         22.6430  -21.0740  -14.2290 O.2     1  UNL1       -0.2110
     25  N         23.8540  -20.8440  -14.8410 N.ar    1  UNL1       -0.1300
     26  C         24.7850  -21.1140  -13.9230 C.ar    1  UNL1        0.0940
     27  C         26.2210  -20.9520  -14.2580 C.3     1  UNL1        0.0760
     28  C         24.1830  -21.5170  -12.7090 C.ar    1  UNL1        0.1650
     29  N         24.8580  -21.8330  -11.4970 N.pl3   1  UNL1       -0.1110
     30  O         25.1700  -20.8810  -10.7720 O.2     1  UNL1       -0.5320
     31  O         25.0640  -23.0280  -11.2520 O.2     1  UNL1       -0.5320
@<TRIPOS>BOND
     1    25    24   ar
     2    25    26   ar
     3    27    26    1
     4    24    23   ar
     5    26    28   ar
     6    23    28   ar
     7    23    22    1
     8    28    29    1
     9    21    22    2
    10    21     3    1
    11     4     3    2
    12     4     5    1
    13    29    31    2
    14    29    30    2
    15     3     2    1
    16     5     6    2
    17     2     1    2
    18     6     1    1
    19     6     7    1
    20     1     8    1
    21     9     8    2
    22     8    10    2
    23     8    11    1
    24    11    12    1
    25    11    13    1
    26    20    19    1
    27    18    13    2
    28    18    17    1
    29    13    14    1
    30    17    19    1
    31    17    16    2
    32    14    15    2
    33    16    15    1
