@<TRIPOS>MOLECULE
69573_out_ligand_01.pdbqt
 41 45 0 0 0
SMALL
GASTEIGER

@<TRIPOS>ATOM
      1  C         21.3740  -21.8530   -7.8730 C.2     1  UNL1        0.0420
      2  C         20.0960  -22.2180   -7.6410 C.2     1  UNL1        0.1130
      3  C         19.4720  -21.8380   -6.4180 C.1     1  UNL1        0.1050
      4  N         19.0260  -21.5210   -5.3940 N.1     1  UNL1       -0.1910
      5  C         19.2480  -22.9680   -8.6060 C.2     1  UNL1        0.2620
      6  O         19.6480  -24.0070   -9.1200 O.2     1  UNL1       -0.2670
      7  N         18.0310  -22.3950   -8.8930 N.am    1  UNL1       -0.3560
      8  H         17.7450  -21.5460   -8.4250 H       1  UNL1        0.1620
      9  C         17.0770  -23.0370   -9.7790 C.3     1  UNL1        0.1270
     10  C         15.9350  -23.7090   -9.0130 C.3     1  UNL1        0.0600
     11  C         16.2740  -23.9230   -7.5710 C.2     1  UNL1       -0.0290
     12  C         17.1970  -24.8170   -7.0640 C.2     1  UNL1        0.0960
     13  N         17.2010  -24.7030   -5.6990 N.pl3   1  UNL1       -0.3650
     14  C         16.2910  -23.7510   -5.2980 C.2     1  UNL1        0.0420
     15  H         17.7830  -25.2370   -5.0700 H       1  UNL1        0.1650
     16  C         15.9490  -23.3100   -4.0130 C.2     1  UNL1        0.0300
     17  C         15.6980  -23.2390   -6.4520 C.2     1  UNL1       -0.0020
     18  C         14.9720  -22.3150   -3.9070 C.2     1  UNL1        0.0020
     19  C         14.3640  -21.7810   -5.0410 C.2     1  UNL1        0.0010
     20  C         14.7170  -22.2330   -6.3170 C.2     1  UNL1        0.0140
     21  C         22.1530  -22.0590   -9.0510 C.2     1  UNL1       -0.0060
     22  C         23.4180  -22.6030   -9.0240 C.2     1  UNL1        0.1040
     23  N         23.8740  -22.6660  -10.3170 N.pl3   1  UNL1       -0.3460
     24  C         22.9270  -22.1590  -11.1840 C.2     1  UNL1        0.0450
     25  C         22.9450  -22.0180  -12.5820 C.2     1  UNL1        0.0300
     26  C         21.8390  -21.7470  -10.4080 C.2     1  UNL1        0.0020
     27  C         21.8340  -21.4360  -13.1980 C.2     1  UNL1        0.0020
     28  C         20.7460  -21.0040  -12.4500 C.2     1  UNL1        0.0010
     29  C         20.7380  -21.1480  -11.0590 C.2     1  UNL1        0.0140
     30  C         25.1760  -23.1930  -10.7050 C.3     1  UNL1        0.2310
     31  C         25.8560  -22.4310  -11.8320 C.2     1  UNL1        0.2400
     32  N         25.4900  -22.8240  -13.1080 N.am    1  UNL1       -0.3260
     33  H         24.8900  -23.6370  -13.1890 H       1  UNL1        0.1690
     34  O         26.6060  -21.4960  -11.5560 O.2     1  UNL1       -0.2710
     35  C         25.9020  -22.2640  -14.3360 C.2     1  UNL1        0.0340
     36  C         26.5550  -22.9750  -15.3420 C.2     1  UNL1        0.0300
     37  C         26.9420  -22.3370  -16.5280 C.2     1  UNL1        0.0090
     38  C         26.6680  -20.9810  -16.7340 C.2     1  UNL1       -0.0620
     39  C         27.1140  -20.2940  -17.9900 C.3     1  UNL1        0.0480
     40  C         26.0220  -20.2660  -15.7220 C.2     1  UNL1        0.0090
     41  C         25.6400  -20.9030  -14.5380 C.2     1  UNL1        0.0300
@<TRIPOS>BOND
     1    39    38    1
     2    38    37    2
     3    38    40    1
     4    37    36    1
     5    40    41    2
     6    36    35    2
     7    41    35    1
     8    35    32    1
     9    27    25    1
    10    27    28    2
    11    33    32    1
    12    32    31   am
    13    25    24    2
    14    28    29    1
    15    31    34    2
    16    31    30    1
    17    24    26    1
    18    24    23    1
    19    29    26    2
    20    30    23    1
    21    26    21    1
    22    23    22    1
    23     9    10    1
    24     9     7    1
    25     6     5    2
    26    21    22    2
    27    21     1    1
    28    10    11    1
    29     7     5   am
    30     7     8    1
    31     5     2    1
    32     1     2    2
    33     2     3    1
    34    11    12    2
    35    11    17    1
    36    12    13    1
    37    17    20    1
    38    17    14    2
    39     3     4    3
    40    20    19    2
    41    13    14    1
    42    13    15    1
    43    14    16    1
    44    19    18    1
    45    16    18    2
