@<TRIPOS>MOLECULE
69611_out_ligand_01.pdbqt
 43 46 0 0 0
SMALL
GASTEIGER

@<TRIPOS>ATOM
      1  C         23.1170  -21.9470   -9.8430 C.2     1  UNL1        0.2560
      2  O         23.3140  -21.0100   -9.0810 O.2     1  UNL1       -0.2670
      3  N         22.0970  -22.8820   -9.7710 N.am    1  UNL1       -0.3230
      4  H         22.1150  -23.6360  -10.4470 H       1  UNL1        0.1690
      5  C         21.0860  -22.9640   -8.7890 C.2     1  UNL1        0.0350
      6  C         20.2800  -24.1110   -8.7940 C.2     1  UNL1        0.0310
      7  C         19.2630  -24.2730   -7.8470 C.2     1  UNL1        0.0270
      8  C         19.0430  -23.2740   -6.8970 C.2     1  UNL1        0.0800
      9  C         19.8500  -22.1380   -6.8640 C.2     1  UNL1        0.0270
     10  C         20.8620  -21.9830   -7.8180 C.2     1  UNL1        0.0310
     11  S         17.7590  -23.4680   -5.6790 S.O2    1  UNL1        0.2630
     12  O         17.4910  -24.8830   -5.5300 O.2     1  UNL1       -0.2000
     13  O         18.1140  -22.6490   -4.5380 O.2     1  UNL1       -0.2000
     14  N         16.4380  -22.7100   -6.4100 N.pl3   1  UNL1       -0.2810
     15  H         16.2290  -21.8130   -5.9790 H       1  UNL1        0.1790
     16  C         16.2440  -22.8540   -7.8120 C.2     1  UNL1        0.0430
     17  C         15.4970  -23.9160   -8.3200 C.2     1  UNL1        0.0300
     18  C         15.3520  -24.0740   -9.6980 C.2     1  UNL1        0.0030
     19  C         15.9620  -23.1730  -10.5710 C.2     1  UNL1        0.0160
     20  C         16.7070  -22.0920  -10.0730 C.2     1  UNL1        0.0500
     21  C         16.8460  -21.9430   -8.6820 C.2     1  UNL1        0.0460
     22  C         17.3700  -21.1100  -11.0080 C.3     1  UNL1        0.4170
     23  F         16.7990  -19.8750  -10.9570 F       1  UNL1       -0.1660
     24  F         18.6860  -20.9250  -10.7180 F       1  UNL1       -0.1660
     25  F         17.3230  -21.4920  -12.3150 F       1  UNL1       -0.1660
     26  C         24.0720  -22.1490  -10.9660 C.2     1  UNL1        0.0320
     27  C         25.2270  -21.3690  -11.1040 C.2     1  UNL1        0.0170
     28  C         26.0990  -21.6010  -12.1730 C.2     1  UNL1        0.0100
     29  C         25.8330  -22.6160  -13.1070 C.2     1  UNL1       -0.0390
     30  C         24.6780  -23.3980  -12.9510 C.2     1  UNL1        0.0100
     31  C         23.8070  -23.1710  -11.8850 C.2     1  UNL1        0.0170
     32  C         26.7710  -22.8610  -14.2680 C.3     1  UNL1        0.1800
     33  N         26.2970  -22.2610  -15.5340 N.pl3   1  UNL1       -0.2720
     34  S         25.0030  -23.0210  -16.3290 S.O2    1  UNL1        0.2290
     35  C         25.3800  -22.7260  -18.0470 C.3     1  UNL1        0.1860
     36  O         23.7900  -22.2870  -16.0330 O.2     1  UNL1       -0.2060
     37  O         25.0710  -24.4520  -16.1090 O.2     1  UNL1       -0.2060
     38  C         26.4480  -20.8470  -15.7250 C.2     1  UNL1        0.0450
     39  C         27.0120  -20.3800  -16.9160 C.2     1  UNL1        0.0300
     40  C         27.1210  -19.0070  -17.1520 C.2     1  UNL1        0.0020
     41  C         26.6570  -18.0970  -16.2020 C.2     1  UNL1        0.0000
     42  C         26.0790  -18.5580  -15.0200 C.2     1  UNL1        0.0020
     43  C         25.9710  -19.9320  -14.7830 C.2     1  UNL1        0.0300
@<TRIPOS>BOND
     1    35    34    1
     2    40    39    1
     3    40    41    2
     4    39    38    2
     5    34    37    2
     6    34    36    2
     7    34    33    1
     8    41    42    1
     9    38    33    1
    10    38    43    1
    11    33    32    1
    12    42    43    2
    13    32    29    1
    14    29    30    2
    15    29    28    1
    16    30    31    1
    17    25    22    1
    18    28    27    2
    19    31    26    2
    20    27    26    1
    21    22    23    1
    22    22    24    1
    23    22    20    1
    24    26     1    1
    25    19    20    2
    26    19    18    1
    27     4     3    1
    28    20    21    1
    29     1     3   am
    30     1     2    2
    31     3     5    1
    32    18    17    2
    33     6     5    2
    34     6     7    1
    35     5    10    1
    36    21    16    2
    37    17    16    1
    38     7     8    2
    39    10     9    2
    40    16    14    1
    41     8     9    1
    42     8    11    1
    43    14    15    1
    44    14    11    1
    45    11    12    2
    46    11    13    2
