@<TRIPOS>MOLECULE
6961_out_ligand_01.pdbqt
 27 29 0 0 0
SMALL
GASTEIGER

@<TRIPOS>ATOM
      1  C         16.9130  -22.1490  -10.0490 C.2     1  UNL1        0.1430
      2  C         16.3280  -23.3980  -10.1890 C.2     1  UNL1        0.0450
      3  C         15.7750  -23.7420   -8.9300 C.2     1  UNL1        0.0360
      4  C         16.0350  -22.6820   -8.0840 C.2     1  UNL1        0.0660
      5  O         16.7230  -21.7150   -8.7630 O.2     1  UNL1       -0.3090
      6  C         17.6540  -21.2860  -10.9540 C.2     1  UNL1        0.2750
      7  N         18.9600  -21.6750  -11.1880 N.am    1  UNL1       -0.3510
      8  H         19.2650  -22.5810  -10.8740 H       1  UNL1        0.1630
      9  O         17.1760  -20.2810  -11.4780 O.2     1  UNL1       -0.2650
     10  C         19.7970  -20.9940  -12.1490 C.3     1  UNL1        0.1610
     11  C         21.1730  -21.6070  -12.1780 C.2     1  UNL1       -0.0410
     12  C         21.5610  -22.5230  -11.1910 C.2     1  UNL1        0.0090
     13  C         22.8470  -23.0690  -11.1910 C.2     1  UNL1        0.0070
     14  C         23.7690  -22.7060  -12.1780 C.2     1  UNL1       -0.0620
     15  C         25.1620  -23.2630  -12.1530 C.3     1  UNL1        0.0480
     16  C         23.3920  -21.7750  -13.1520 C.2     1  UNL1        0.0070
     17  C         22.1050  -21.2300  -13.1530 C.2     1  UNL1        0.0090
     18  C         15.7560  -22.3680   -6.6580 C.3     1  UNL1        0.1790
     19  S         16.8330  -23.2880   -5.5030 S.O     1  UNL1        0.0560
     20  O         16.6700  -24.7560   -5.7890 O.2     1  UNL1       -0.2520
     21  C         18.4080  -22.8110   -6.2480 C.2     1  UNL1        0.0310
     22  C         19.0220  -21.6170   -5.8500 C.2     1  UNL1        0.0210
     23  C         20.2470  -21.2370   -6.4070 C.2     1  UNL1        0.0080
     24  C         20.8730  -22.0460   -7.3670 C.2     1  UNL1       -0.0620
     25  C         22.1810  -21.6260   -7.9720 C.3     1  UNL1        0.0480
     26  C         20.2440  -23.2290   -7.7780 C.2     1  UNL1        0.0080
     27  C         19.0220  -23.6110   -7.2200 C.2     1  UNL1        0.0210
@<TRIPOS>BOND
     1    17    16    1
     2    17    11    2
     3    16    14    2
     4    14    15    1
     5    14    13    1
     6    11    10    1
     7    11    12    1
     8    10     7    1
     9     9     6    2
    10    12    13    2
    11     7     6   am
    12     7     8    1
    13     6     1    1
    14     2     1    2
    15     2     3    1
    16     1     5    1
    17     3     4    2
    18     5     4    1
    19     4    18    1
    20    25    24    1
    21    26    24    2
    22    26    27    1
    23    24    23    1
    24    27    21    2
    25    18    19    1
    26    23    22    2
    27    21    22    1
    28    21    19    1
    29    20    19    2
