@<TRIPOS>MOLECULE
69629_out_ligand_01.pdbqt
 43 46 0 0 0
SMALL
GASTEIGER

@<TRIPOS>ATOM
      1  N         21.6350  -23.5800  -10.0180 N.am    1  UNL1       -0.3260
      2  C         21.0830  -23.2790   -8.7780 C.2     1  UNL1        0.2410
      3  O         21.4020  -22.3310   -8.0660 O.2     1  UNL1       -0.2710
      4  H         21.3460  -24.4530  -10.4460 H       1  UNL1        0.1690
      5  C         20.0020  -24.2700   -8.3790 C.3     1  UNL1        0.2450
      6  N         18.6070  -23.8010   -8.3930 N.pl3   1  UNL1       -0.2630
      7  C         18.1880  -22.8700   -9.4000 C.2     1  UNL1        0.0450
      8  C         16.9690  -22.1920   -9.3270 C.2     1  UNL1        0.0300
      9  C         16.5970  -21.3020  -10.3380 C.2     1  UNL1        0.0020
     10  C         17.4420  -21.0890  -11.4270 C.2     1  UNL1        0.0000
     11  C         18.6570  -21.7660  -11.5070 C.2     1  UNL1        0.0020
     12  C         19.0290  -22.6540  -10.4960 C.2     1  UNL1        0.0300
     13  S         17.6330  -24.0220   -7.0250 S.O2    1  UNL1        0.2680
     14  O         16.2590  -23.7010   -7.3650 O.2     1  UNL1       -0.2000
     15  O         17.9250  -25.3250   -6.4710 O.2     1  UNL1       -0.2000
     16  C         18.1440  -22.7840   -5.8670 C.2     1  UNL1        0.1130
     17  C         18.8990  -21.7060   -6.3610 C.2     1  UNL1        0.0280
     18  C         19.2710  -20.6550   -5.5190 C.2     1  UNL1        0.0020
     19  C         18.8750  -20.6530   -4.1820 C.2     1  UNL1        0.0030
     20  C         18.1020  -21.7010   -3.6840 C.2     1  UNL1        0.0380
     21  C         17.7350  -22.7590   -4.5330 C.2     1  UNL1        0.1260
     22  N         16.9120  -23.7950   -3.9420 N.pl3   1  UNL1       -0.1140
     23  O         15.6920  -23.7430   -4.1440 O.2     1  UNL1       -0.5320
     24  O         17.5060  -24.7050   -3.3500 O.2     1  UNL1       -0.5320
     25  C         22.6550  -22.8790  -10.6930 C.2     1  UNL1        0.0340
     26  C         23.9420  -22.9340  -10.1350 C.2     1  UNL1        0.0310
     27  C         25.0070  -22.2460  -10.7220 C.2     1  UNL1        0.0270
     28  C         24.7810  -21.4880  -11.8720 C.2     1  UNL1        0.0800
     29  C         23.5180  -21.4590  -12.4630 C.2     1  UNL1        0.0270
     30  C         22.4560  -22.1480  -11.8670 C.2     1  UNL1        0.0310
     31  S         26.1220  -20.5810  -12.6080 S.O2    1  UNL1        0.2630
     32  O         27.0840  -20.2790  -11.5700 O.2     1  UNL1       -0.2000
     33  O         25.5390  -19.5270  -13.4130 O.2     1  UNL1       -0.2000
     34  N         26.7840  -21.6840  -13.6990 N.pl3   1  UNL1       -0.2800
     35  H         27.7820  -21.5380  -13.8430 H       1  UNL1        0.1790
     36  C         26.0060  -22.1680  -14.7900 C.2     1  UNL1        0.0480
     37  C         25.7200  -21.3170  -15.8610 C.2     1  UNL1        0.0310
     38  C         24.9820  -21.7750  -16.9530 C.2     1  UNL1        0.0090
     39  C         24.5140  -23.0910  -16.9840 C.2     1  UNL1       -0.0610
     40  C         23.7220  -23.6030  -18.1520 C.3     1  UNL1        0.0480
     41  C         24.8080  -23.9440  -15.9120 C.2     1  UNL1        0.0150
     42  C         25.5460  -23.4940  -14.8030 C.2     1  UNL1       -0.0340
     43  C         25.8160  -24.4490  -13.6740 C.3     1  UNL1        0.0500
@<TRIPOS>BOND
     1    40    39    1
     2    39    38    2
     3    39    41    1
     4    38    37    1
     5    41    42    2
     6    37    36    2
     7    42    36    1
     8    42    43    1
     9    36    34    1
    10    35    34    1
    11    34    31    1
    12    33    31    2
    13    31    28    1
    14    31    32    2
    15    29    28    2
    16    29    30    1
    17    28    27    1
    18    30    25    2
    19    11    10    2
    20    11    12    1
    21    10     9    1
    22    27    26    2
    23    25    26    1
    24    25     1    1
    25    12     7    2
    26     4     1    1
    27     9     8    2
    28     1     2   am
    29     7     8    1
    30     7     6    1
    31     2     5    1
    32     2     3    2
    33     6     5    1
    34     6    13    1
    35    14    13    2
    36    13    15    2
    37    13    16    1
    38    17    16    2
    39    17    18    1
    40    16    21    1
    41    18    19    2
    42    21    22    1
    43    21    20    2
    44    19    20    1
    45    23    22    2
    46    22    24    2
