@<TRIPOS>MOLECULE
69638_out_ligand_01.pdbqt
 34 36 0 0 0
SMALL
GASTEIGER

@<TRIPOS>ATOM
      1  C         23.3680  -23.2750   -9.8880 C.2     1  UNL1        0.0410
      2  C         23.4440  -22.9980  -11.2050 C.2     1  UNL1        0.1130
      3  C         24.4830  -23.5870  -11.9800 C.1     1  UNL1        0.1050
      4  N         25.3350  -24.1180  -12.5660 N.1     1  UNL1       -0.1910
      5  C         22.5170  -22.0930  -11.9400 C.2     1  UNL1        0.2620
      6  O         22.9170  -21.4130  -12.8790 O.2     1  UNL1       -0.2670
      7  N         21.2030  -22.1420  -11.5390 N.am    1  UNL1       -0.3520
      8  H         20.9540  -22.6310  -10.6900 H       1  UNL1        0.1630
      9  C         20.1780  -21.3470  -12.1740 C.3     1  UNL1        0.1610
     10  C         18.8450  -21.5230  -11.4980 C.2     1  UNL1       -0.0410
     11  C         17.8290  -20.5680  -11.6530 C.2     1  UNL1        0.0090
     12  C         16.6010  -20.7330  -11.0110 C.2     1  UNL1        0.0010
     13  C         16.3730  -21.8570  -10.2180 C.2     1  UNL1        0.0000
     14  C         17.3670  -22.8210  -10.0730 C.2     1  UNL1        0.0010
     15  C         18.5970  -22.6570  -10.7120 C.2     1  UNL1        0.0090
     16  C         22.4730  -22.7340   -8.9180 C.2     1  UNL1       -0.0100
     17  C         22.6340  -21.5500   -8.1770 C.2     1  UNL1        0.0380
     18  C         21.5530  -21.4330   -7.3250 C.2     1  UNL1        0.0140
     19  C         21.3540  -20.3950   -6.2730 C.3     1  UNL1        0.0680
     20  N         20.7100  -22.5210   -7.5370 N.pl3   1  UNL1       -0.3190
     21  C         21.2850  -23.3270   -8.5250 C.2     1  UNL1        0.0230
     22  C         20.6290  -24.5510   -9.0820 C.3     1  UNL1        0.0690
     23  C         19.4830  -22.7690   -6.8550 C.2     1  UNL1        0.0390
     24  C         18.8110  -23.9860   -7.0340 C.2     1  UNL1        0.0310
     25  C         17.6080  -24.2250   -6.3660 C.2     1  UNL1        0.0270
     26  C         17.0840  -23.2470   -5.5170 C.2     1  UNL1        0.0740
     27  C         17.7400  -22.0260   -5.3430 C.2     1  UNL1        0.0270
     28  C         18.9440  -21.7880   -6.0090 C.2     1  UNL1        0.0310
     29  S         15.5500  -23.5350   -4.6760 S.O2    1  UNL1        0.2390
     30  O         15.7810  -24.4880   -3.6140 O.2     1  UNL1       -0.2060
     31  O         14.5140  -23.7090   -5.6660 O.2     1  UNL1       -0.2060
     32  N         15.3010  -22.0550   -3.9130 N.3     1  UNL1       -0.2250
     33  H         15.5490  -21.3040   -4.5590 H       1  UNL1        0.1360
     34  H         14.3580  -21.9430   -3.5430 H       1  UNL1        0.1360
@<TRIPOS>BOND
     1     6     5    2
     2     4     3    3
     3     9     7    1
     4     9    10    1
     5     3     2    1
     6     5     7   am
     7     5     2    1
     8    11    10    2
     9    11    12    1
    10     7     8    1
    11    10    15    1
    12     2     1    2
    13    12    13    2
    14    15    14    2
    15    13    14    1
    16     1    16    1
    17    22    21    1
    18    16    21    2
    19    16    17    1
    20    21    20    1
    21    17    18    2
    22    20    18    1
    23    20    23    1
    24    18    19    1
    25    24    23    2
    26    24    25    1
    27    23    28    1
    28    25    26    2
    29    28    27    2
    30    31    29    2
    31    26    27    1
    32    26    29    1
    33    29    32    1
    34    29    30    2
    35    33    32    1
    36    32    34    1
