@<TRIPOS>MOLECULE
6963_out_ligand_01.pdbqt
 36 39 0 0 0
SMALL
GASTEIGER

@<TRIPOS>ATOM
      1  C         21.4450  -22.6140  -10.1720 C.3     1  UNL1        0.1310
      2  C         22.6530  -21.6420  -10.3860 C.3     1  UNL1        0.1520
      3  N         23.4000  -21.8870  -11.6070 N.am    1  UNL1       -0.3510
      4  C         24.5430  -22.6510  -11.6370 C.2     1  UNL1        0.3090
      5  O         25.0900  -23.1690  -10.6730 O.2     1  UNL1       -0.2620
      6  H         23.0250  -21.6060  -12.5110 H       1  UNL1        0.1620
      7  C         25.1310  -22.8440  -13.0520 C.2     1  UNL1        0.3130
      8  N         24.3670  -22.2180  -14.0130 N.am    1  UNL1       -0.3190
      9  H         23.5480  -21.7370  -13.6500 H       1  UNL1        0.1690
     10  O         26.1580  -23.4960  -13.1750 O.2     1  UNL1       -0.2620
     11  C         24.5900  -22.1740  -15.3990 C.2     1  UNL1        0.0350
     12  C         24.4420  -23.2750  -16.2430 C.2     1  UNL1        0.0290
     13  C         24.6740  -23.1490  -17.6150 C.2     1  UNL1        0.0030
     14  C         25.0620  -21.9230  -18.1530 C.2     1  UNL1        0.0070
     15  C         25.2300  -20.8110  -17.3220 C.2     1  UNL1       -0.0600
     16  C         25.6120  -19.4810  -17.8990 C.3     1  UNL1        0.0480
     17  C         24.9790  -20.9450  -15.9480 C.2     1  UNL1        0.0360
     18  C         20.1310  -22.0590  -10.6880 C.2     1  UNL1       -0.0170
     19  C         18.9530  -22.8120  -10.5960 C.2     1  UNL1        0.0120
     20  C         17.7530  -22.2980  -11.0780 C.2     1  UNL1        0.0200
     21  C         17.7610  -21.0380  -11.6470 C.2     1  UNL1        0.1160
     22  N         18.8700  -20.2790  -11.7630 N.2     1  UNL1       -0.2730
     23  C         20.0220  -20.8070  -11.2910 C.2     1  UNL1        0.1250
     24  N         21.4320  -23.1190   -8.7860 N.3     1  UNL1       -0.4000
     25  C         21.0880  -22.1890   -7.6990 C.3     1  UNL1        0.1320
     26  C         19.5990  -22.1530   -7.2680 C.3     1  UNL1        0.1150
     27  N         19.0990  -23.5150   -7.0030 N.pl3   1  UNL1       -0.2800
     28  C         19.3030  -24.4190   -8.1580 C.3     1  UNL1        0.1150
     29  C         20.7880  -24.4300   -8.5880 C.3     1  UNL1        0.1320
     30  C         17.8320  -23.6450   -6.4110 C.2     1  UNL1        0.0100
     31  C         17.6060  -23.5470   -5.0280 C.2     1  UNL1        0.0260
     32  C         16.3240  -23.6920   -4.4880 C.2     1  UNL1        0.0440
     33  C         15.2490  -23.9460   -5.3290 C.2     1  UNL1        0.1160
     34  F         14.0220  -24.0850   -4.8120 F       1  UNL1       -0.2060
     35  C         15.4350  -24.0640   -6.6960 C.2     1  UNL1        0.0440
     36  C         16.7190  -23.9170   -7.2290 C.2     1  UNL1        0.0260
@<TRIPOS>BOND
     1    14    13    2
     2    14    15    1
     3    16    15    1
     4    13    12    1
     5    15    17    2
     6    12    11    2
     7    17    11    1
     8    11     8    1
     9     8     9    1
    10     8     7   am
    11    10     7    2
    12     7     4    1
    13     6     3    1
    14    22    21    2
    15    22    23    1
    16    21    20    1
    17     4     3   am
    18     4     5    2
    19     3     2    1
    20    23    18    2
    21    20    19    2
    22    18    19    1
    23    18     1    1
    24     2     1    1
    25     1    24    1
    26    24    29    1
    27    24    25    1
    28    29    28    1
    29    28    27    1
    30    25    26    1
    31    26    27    1
    32    36    35    1
    33    36    30    2
    34    27    30    1
    35    35    33    2
    36    30    31    1
    37    33    34    1
    38    33    32    1
    39    31    32    2
