@<TRIPOS>MOLECULE
69641_out_ligand_01.pdbqt
 33 36 0 0 0
SMALL
GASTEIGER

@<TRIPOS>ATOM
      1  C         18.6760  -22.2080  -10.7110 C.2     1  UNL1        0.0070
      2  C         18.9180  -23.2900   -9.8320 C.2     1  UNL1        0.0400
      3  C         20.2790  -23.4930   -9.7420 C.2     1  UNL1        0.0140
      4  C         20.9850  -24.4700   -8.8660 C.3     1  UNL1        0.0680
      5  N         20.9080  -22.5520  -10.5520 N.pl3   1  UNL1       -0.3190
      6  C         19.9210  -21.7560  -11.1380 C.2     1  UNL1        0.0250
      7  C         20.2070  -20.6970  -12.1550 C.3     1  UNL1        0.0700
      8  C         17.4040  -21.6140  -11.1010 C.2     1  UNL1        0.1460
      9  N         16.2430  -21.7890  -10.5330 N.2     1  UNL1       -0.2040
     10  N         16.0980  -22.8020   -9.6130 N.am    1  UNL1       -0.1320
     11  C         16.0520  -22.4890   -8.2400 C.2     1  UNL1        0.3180
     12  N         15.9330  -23.6620   -7.5060 N.am    1  UNL1       -0.3120
     13  O         16.0980  -21.3480   -7.7940 O.2     1  UNL1       -0.2520
     14  H         15.6510  -24.4560   -8.0570 H       1  UNL1        0.1700
     15  H         16.7450  -23.5600   -9.7960 H       1  UNL1        0.1600
     16  C         15.9290  -23.8170   -6.1000 C.2     1  UNL1        0.0420
     17  C         14.7480  -24.0800   -5.3960 C.2     1  UNL1        0.0300
     18  C         14.7580  -24.2220   -4.0110 C.2     1  UNL1        0.0030
     19  C         15.9480  -24.0980   -3.3070 C.2     1  UNL1        0.0070
     20  C         17.1510  -23.8270   -3.9750 C.2     1  UNL1       -0.0540
     21  C         18.4070  -23.7030   -3.1540 C.3     1  UNL1        0.0490
     22  C         17.1490  -23.6790   -5.3860 C.2     1  UNL1       -0.0290
     23  C         18.4320  -23.3860   -6.1280 C.3     1  UNL1        0.0510
     24  C         22.3140  -22.4160  -10.7350 C.2     1  UNL1        0.0400
     25  C         23.0590  -21.5940   -9.8880 C.2     1  UNL1        0.0320
     26  C         24.4420  -21.4770  -10.0730 C.2     1  UNL1        0.0350
     27  C         25.1070  -22.1530  -11.0860 C.2     1  UNL1        0.0660
     28  N         26.4360  -22.0030  -11.2200 N.2     1  UNL1       -0.2600
     29  C         24.3490  -22.9790  -11.9440 C.2     1  UNL1       -0.0050
     30  C         27.0510  -22.6680  -12.2210 C.2     1  UNL1        0.1170
     31  C         26.3970  -23.4950  -13.1150 C.2     1  UNL1        0.0200
     32  C         25.0240  -23.6510  -12.9720 C.2     1  UNL1        0.0150
     33  C         22.9590  -23.1080  -11.7640 C.2     1  UNL1        0.0430
@<TRIPOS>BOND
     1    31    32    2
     2    31    30    1
     3    32    29    1
     4    30    28    2
     5     7     6    1
     6    29    33    1
     7    29    27    2
     8    33    24    2
     9    28    27    1
    10     6     1    2
    11     6     5    1
    12     8     1    1
    13     8     9    2
    14    27    26    1
    15    24     5    1
    16    24    25    1
    17     1     2    1
    18     5     3    1
    19     9    10    1
    20    26    25    2
    21     2     3    2
    22    15    10    1
    23     3     4    1
    24    10    11   am
    25    11    13    2
    26    11    12   am
    27    14    12    1
    28    12    16    1
    29    23    22    1
    30    16    17    2
    31    16    22    1
    32    17    18    1
    33    22    20    2
    34    18    19    2
    35    20    19    1
    36    20    21    1
