@<TRIPOS>MOLECULE
69655_out_ligand_01.pdbqt
 28 30 0 0 0
SMALL
GASTEIGER

@<TRIPOS>ATOM
      1  C         18.4270  -22.6120  -10.1000 C.2     1  UNL1        0.0060
      2  C         18.9780  -23.6520   -9.3150 C.2     1  UNL1        0.0400
      3  C         20.3510  -23.6310   -9.4560 C.2     1  UNL1        0.0140
      4  C         21.3220  -24.6220   -8.9120 C.3     1  UNL1        0.0680
      5  N         20.6770  -22.5690  -10.2960 N.pl3   1  UNL1       -0.3190
      6  C         19.4980  -21.9000  -10.6260 C.2     1  UNL1        0.0250
      7  C         19.4740  -20.5830  -11.3340 C.3     1  UNL1        0.0700
      8  C         21.9860  -22.2180  -10.7420 C.2     1  UNL1        0.0390
      9  C         22.9370  -21.7670   -9.8150 C.2     1  UNL1        0.0310
     10  C         24.2180  -21.4130  -10.2420 C.2     1  UNL1        0.0270
     11  C         24.5470  -21.5200  -11.5970 C.2     1  UNL1        0.0740
     12  C         23.6030  -21.9570  -12.5290 C.2     1  UNL1        0.0270
     13  C         22.3210  -22.3090  -12.1000 C.2     1  UNL1        0.0310
     14  S         26.1740  -21.0600  -12.1320 S.O2    1  UNL1        0.2390
     15  O         27.1200  -22.0100  -11.5940 O.2     1  UNL1       -0.2060
     16  O         26.1160  -20.7280  -13.5350 O.2     1  UNL1       -0.2060
     17  N         26.4210  -19.6360  -11.2680 N.3     1  UNL1       -0.2250
     18  H         25.6560  -18.9690  -11.3590 H       1  UNL1        0.1360
     19  H         26.6100  -19.8720  -10.2920 H       1  UNL1        0.1360
     20  C         17.0110  -22.3140  -10.2210 C.2     1  UNL1        0.1300
     21  N         16.1060  -22.3990   -9.2930 N.2     1  UNL1       -0.2600
     22  C         16.4110  -22.7470   -7.9700 C.2     1  UNL1        0.0570
     23  C         15.9540  -23.9330   -7.3870 C.2     1  UNL1        0.0310
     24  C         16.2980  -24.2560   -6.0730 C.2     1  UNL1        0.0030
     25  C         17.1300  -23.4100   -5.3410 C.2     1  UNL1        0.0070
     26  C         17.6400  -22.2450   -5.9230 C.2     1  UNL1       -0.0600
     27  C         18.5260  -21.3240   -5.1380 C.3     1  UNL1        0.0480
     28  C         17.2720  -21.9230   -7.2380 C.2     1  UNL1        0.0380
@<TRIPOS>BOND
     1    16    14    2
     2    12    13    1
     3    12    11    2
     4    14    11    1
     5    14    15    2
     6    14    17    1
     7    13     8    2
     8    11    10    1
     9    18    17    1
    10     7     6    1
    11    17    19    1
    12     8     5    1
    13     8     9    1
    14     6     5    1
    15     6     1    2
    16     5     3    1
    17    10     9    2
    18    20     1    1
    19    20    21    2
    20     1     2    1
    21     3     2    2
    22     3     4    1
    23    21    22    1
    24    22    23    2
    25    22    28    1
    26    23    24    1
    27    28    26    2
    28    24    25    2
    29    26    25    1
    30    26    27    1
