@<TRIPOS>MOLECULE
69652_out_ligand_01.pdbqt
 37 41 0 0 0
SMALL
GASTEIGER

@<TRIPOS>ATOM
      1  C         21.9010  -21.0000  -13.3250 C.2     1  UNL1        0.1520
      2  N         22.7450  -21.2220  -14.2950 N.2     1  UNL1       -0.1840
      3  N         23.8320  -22.0230  -14.0370 N.am    1  UNL1       -0.2460
      4  C         24.3800  -22.8160  -15.0580 C.2     1  UNL1        0.2610
      5  O         23.9920  -22.8230  -16.2250 O.2     1  UNL1       -0.2690
      6  H         23.7970  -22.4620  -13.1210 H       1  UNL1        0.1920
      7  C         25.5370  -23.6710  -14.5450 C.3     1  UNL1        0.2800
      8  O         26.7780  -22.9930  -14.7230 O.2     1  UNL1       -0.3380
      9  C         26.8980  -21.8300  -13.9900 C.2     1  UNL1        0.1160
     10  C         26.8900  -21.9730  -12.5960 C.2     1  UNL1        0.0480
     11 BR         26.8160  -23.6780  -11.7630 Br      1  UNL1       -0.0480
     12  C         26.9620  -20.8560  -11.7750 C.2     1  UNL1        0.0420
     13  C         27.0250  -19.5890  -12.3520 C.2     1  UNL1        0.0250
     14 BR         27.1210  -18.1200  -11.1400 Br      1  UNL1       -0.0500
     15  C         27.0130  -19.4170  -13.7600 C.2     1  UNL1        0.0130
     16  C         27.0580  -18.1580  -14.4020 C.2     1  UNL1        0.0170
     17  C         26.9460  -20.5600  -14.5950 C.2     1  UNL1        0.1020
     18  C         27.0310  -18.0550  -15.7860 C.2     1  UNL1        0.0200
     19  C         26.9620  -19.2200  -16.5100 C.2     1  UNL1        0.1170
     20  N         26.9280  -20.4430  -15.9450 N.2     1  UNL1       -0.2570
     21  C         21.8400  -21.7240  -12.0640 C.2     1  UNL1        0.0080
     22  C         22.8850  -22.4230  -11.4120 C.2     1  UNL1        0.0400
     23  C         22.3970  -22.9420  -10.2300 C.2     1  UNL1        0.0140
     24  C         23.1720  -23.6570   -9.1770 C.3     1  UNL1        0.0680
     25  N         21.0570  -22.5770  -10.1250 N.pl3   1  UNL1       -0.3190
     26  C         20.7010  -21.8920  -11.2870 C.2     1  UNL1        0.0250
     27  C         19.3110  -21.4360  -11.5900 C.3     1  UNL1        0.0700
     28  C         20.2080  -22.8230   -9.0060 C.2     1  UNL1        0.0400
     29  C         19.4750  -24.0050   -8.9140 C.2     1  UNL1        0.0320
     30  C         18.6850  -24.2470   -7.7830 C.2     1  UNL1        0.0350
     31  C         18.6140  -23.3460   -6.7300 C.2     1  UNL1        0.0660
     32  N         17.8640  -23.6410   -5.6540 N.2     1  UNL1       -0.2600
     33  C         19.3540  -22.1490   -6.8290 C.2     1  UNL1       -0.0050
     34  C         17.8440  -22.7530   -4.6340 C.2     1  UNL1        0.1170
     35  C         18.5350  -21.5580   -4.6370 C.2     1  UNL1        0.0200
     36  C         19.2970  -21.2500   -5.7580 C.2     1  UNL1        0.0150
     37  C         20.1400  -21.8910   -7.9660 C.2     1  UNL1        0.0430
@<TRIPOS>BOND
     1    19    20    2
     2    19    18    1
     3     5     4    2
     4    20    17    1
     5    18    16    2
     6     4     7    1
     7     4     3   am
     8     8     7    1
     9     8     9    1
    10    17     9    2
    11    17    15    1
    12    16    15    1
    13     2     3    1
    14     2     1    2
    15     3     6    1
    16     9    10    1
    17    15    13    2
    18     1    21    1
    19    10    12    2
    20    10    11    1
    21    13    12    1
    22    13    14    1
    23    21    22    1
    24    21    26    2
    25    27    26    1
    26    22    23    2
    27    26    25    1
    28    23    25    1
    29    23    24    1
    30    25    28    1
    31    28    29    2
    32    28    37    1
    33    29    30    1
    34    37    33    2
    35    30    31    2
    36    33    31    1
    37    33    36    1
    38    31    32    1
    39    36    35    2
    40    32    34    2
    41    35    34    1
