@<TRIPOS>MOLECULE
69651_out_ligand_01.pdbqt
 29 31 0 0 0
SMALL
GASTEIGER

@<TRIPOS>ATOM
      1  C         18.4520  -22.5310   -9.8510 C.2     1  UNL1        0.0060
      2  C         18.9880  -23.6930   -9.2470 C.2     1  UNL1        0.0400
      3  C         20.3460  -23.7280   -9.4910 C.2     1  UNL1        0.0140
      4  C         21.3280  -24.7070   -8.9410 C.3     1  UNL1        0.0680
      5  N         20.6710  -22.6180  -10.2660 N.pl3   1  UNL1       -0.3190
      6  C         19.4880  -21.9350  -10.5570 C.2     1  UNL1        0.0250
      7  C         19.4080  -20.8260  -11.5560 C.3     1  UNL1        0.0700
      8  C         21.9780  -22.2350  -10.6860 C.2     1  UNL1        0.0390
      9  C         22.8770  -21.6960   -9.7520 C.2     1  UNL1        0.0310
     10  C         24.1600  -21.3180  -10.1520 C.2     1  UNL1        0.0270
     11  C         24.5440  -21.4870  -11.4840 C.2     1  UNL1        0.0740
     12  C         23.6520  -22.0120  -12.4240 C.2     1  UNL1        0.0270
     13  C         22.3690  -22.3920  -12.0220 C.2     1  UNL1        0.0310
     14  S         26.1670  -20.9990  -12.0050 S.O2    1  UNL1        0.2390
     15  O         26.0970  -20.5680  -13.3810 O.2     1  UNL1       -0.2060
     16  O         27.1110  -21.9900  -11.5450 O.2     1  UNL1       -0.2060
     17  N         26.4020  -19.5980  -11.1010 N.3     1  UNL1       -0.2250
     18  H         26.0210  -18.8040  -11.6200 H       1  UNL1        0.1360
     19  H         26.0190  -19.6560  -10.1580 H       1  UNL1        0.1360
     20  C         17.0560  -22.1320   -9.8000 C.2     1  UNL1        0.1300
     21  N         16.2800  -22.0950   -8.7590 N.2     1  UNL1       -0.2600
     22  C         16.6960  -22.5030   -7.4810 C.2     1  UNL1        0.0620
     23  C         16.3950  -23.8010   -7.0330 C.2     1  UNL1       -0.0330
     24  C         16.8280  -24.2130   -5.7630 C.2     1  UNL1        0.0090
     25  C         15.6270  -24.7550   -7.9060 C.3     1  UNL1        0.0500
     26  C         17.5740  -23.3560   -4.9520 C.2     1  UNL1        0.0070
     27  C         17.9250  -22.0840   -5.4070 C.2     1  UNL1       -0.0600
     28  C         18.7170  -21.1510   -4.5410 C.3     1  UNL1        0.0480
     29  C         17.4860  -21.6710   -6.6720 C.2     1  UNL1        0.0380
@<TRIPOS>BOND
     1    15    14    2
     2    12    13    1
     3    12    11    2
     4    13     8    2
     5    14    16    2
     6    14    11    1
     7    14    17    1
     8    18    17    1
     9     7     6    1
    10    11    10    1
    11    17    19    1
    12     8     5    1
    13     8     9    1
    14     6     5    1
    15     6     1    2
    16     5     3    1
    17    10     9    2
    18     1    20    1
    19     1     2    1
    20    20    21    2
    21     3     2    2
    22     3     4    1
    23    21    22    1
    24    25    23    1
    25    22    23    2
    26    22    29    1
    27    23    24    1
    28    29    27    2
    29    24    26    2
    30    27    26    1
    31    27    28    1
