@<TRIPOS>MOLECULE
69672_out_ligand_01.pdbqt
 32 34 0 0 0
SMALL
GASTEIGER

@<TRIPOS>ATOM
      1  C         18.5110  -23.2850   -9.0660 C.2     1  UNL1        0.0800
      2  C         18.6320  -22.3070  -10.0530 C.2     1  UNL1        0.0270
      3  C         19.8710  -22.0960  -10.6640 C.2     1  UNL1        0.0310
      4  C         20.9940  -22.8460  -10.2860 C.2     1  UNL1        0.0340
      5  C         20.8610  -23.8100   -9.2830 C.2     1  UNL1        0.0310
      6  C         19.6240  -24.0270   -8.6650 C.2     1  UNL1        0.0270
      7  S         16.9510  -23.5340   -8.2570 S.O2    1  UNL1        0.2630
      8  O         17.1390  -24.5920   -7.2830 O.2     1  UNL1       -0.2000
      9  O         15.9240  -23.6400   -9.2690 O.2     1  UNL1       -0.2000
     10  N         16.7530  -22.1200   -7.3570 N.pl3   1  UNL1       -0.2800
     11  H         17.1190  -21.3010   -7.8400 H       1  UNL1        0.1790
     12  C         16.8870  -22.1620   -5.9390 C.2     1  UNL1        0.0540
     13  C         15.7590  -22.4720   -5.1550 C.2     1  UNL1       -0.0340
     14  C         15.9010  -22.5670   -3.7620 C.2     1  UNL1        0.0090
     15  C         14.3940  -22.7200   -5.7350 C.3     1  UNL1        0.0500
     16  C         17.1270  -22.3190   -3.1530 C.2     1  UNL1        0.0010
     17  C         18.2250  -21.9570   -3.9290 C.2     1  UNL1        0.0090
     18  C         18.1170  -21.8540   -5.3250 C.2     1  UNL1       -0.0340
     19  C         19.3480  -21.4540   -6.0930 C.3     1  UNL1        0.0500
     20  N         22.2020  -22.5670  -10.9520 N.am    1  UNL1       -0.3260
     21  C         23.2350  -21.7400  -10.5410 C.2     1  UNL1        0.2360
     22  O         23.2940  -21.1380   -9.4720 O.2     1  UNL1       -0.2720
     23  H         22.3000  -22.9470  -11.8890 H       1  UNL1        0.1690
     24  C         24.4170  -21.6870  -11.5170 C.3     1  UNL1        0.1400
     25  C         25.6850  -21.2760  -10.7770 C.3     1  UNL1        0.0310
     26  S         24.7000  -23.3160  -12.3290 S.3     1  UNL1       -0.1160
     27  C         24.8340  -22.8100  -14.0350 C.2     1  UNL1        0.0010
     28  C         24.4750  -21.5040  -14.3850 C.2     1  UNL1        0.0180
     29  C         24.5720  -21.0770  -15.7120 C.2     1  UNL1        0.0010
     30  C         25.0180  -21.9560  -16.6960 C.2     1  UNL1        0.0000
     31  C         25.3610  -23.2640  -16.3570 C.2     1  UNL1        0.0010
     32  C         25.2650  -23.6920  -15.0300 C.2     1  UNL1        0.0180
@<TRIPOS>BOND
     1    30    31    2
     2    30    29    1
     3    31    32    1
     4    29    28    2
     5    32    27    2
     6    28    27    1
     7    27    26    1
     8    26    24    1
     9    23    20    1
    10    24    25    1
    11    24    21    1
    12    20    21   am
    13    20     4    1
    14     3     4    2
    15     3     2    1
    16    21    22    2
    17     4     5    1
    18     2     1    2
    19     5     6    2
    20     9     7    2
    21     1     6    1
    22     1     7    1
    23     7    10    1
    24     7     8    2
    25    11    10    1
    26    10    12    1
    27    19    18    1
    28    12    18    2
    29    12    13    1
    30    15    13    1
    31    18    17    1
    32    13    14    2
    33    17    16    2
    34    14    16    1
