@<TRIPOS>MOLECULE
69688_out_ligand_01.pdbqt
 35 38 0 0 0
SMALL
GASTEIGER

@<TRIPOS>ATOM
      1  C         22.5660  -23.1100   -8.7960 C.2     1  UNL1        0.0340
      2  C         22.0140  -22.0680   -8.0460 C.2     1  UNL1        0.0310
      3  C         20.7140  -22.1670   -7.5390 C.2     1  UNL1        0.0270
      4  C         19.9660  -23.3200   -7.7770 C.2     1  UNL1        0.0750
      5  C         20.4980  -24.3660   -8.5340 C.2     1  UNL1        0.0270
      6  C         21.7960  -24.2570   -9.0390 C.2     1  UNL1        0.0310
      7  S         18.3080  -23.4560   -7.1550 S.O2    1  UNL1        0.2450
      8  O         17.9410  -22.1660   -6.6150 O.2     1  UNL1       -0.2060
      9  O         18.2150  -24.6730   -6.3760 O.2     1  UNL1       -0.2060
     10  N         17.4560  -23.7530   -8.6070 N.pl3   1  UNL1       -0.1810
     11  H         16.4760  -23.8830   -8.3470 H       1  UNL1        0.1460
     12  C         17.5860  -22.7000   -9.5710 C.2     1  UNL1        0.0230
     13  C         16.4480  -21.9950   -9.9590 C.2     1  UNL1        0.0240
     14  C         16.5430  -21.0050  -10.9360 C.2     1  UNL1        0.0030
     15  C         17.7750  -20.7310  -11.5330 C.2     1  UNL1        0.0160
     16  C         18.9250  -21.4460  -11.1590 C.2     1  UNL1        0.0490
     17  C         18.8160  -22.4450  -10.1790 C.2     1  UNL1        0.0400
     18  C         20.2460  -21.1770  -11.8360 C.3     1  UNL1        0.4170
     19  F         21.2460  -20.8920  -10.9550 F       1  UNL1       -0.1660
     20  F         20.6930  -22.2330  -12.5710 F       1  UNL1       -0.1660
     21  F         20.1880  -20.1200  -12.6910 F       1  UNL1       -0.1660
     22  N         23.8630  -23.0850   -9.3420 N.am    1  UNL1       -0.3250
     23  C         24.2280  -23.0240  -10.6770 C.2     1  UNL1        0.2540
     24  O         23.4620  -23.0160  -11.6370 O.2     1  UNL1       -0.2700
     25  H         24.6360  -23.0460   -8.6840 H       1  UNL1        0.1690
     26  C         25.7580  -23.0490  -10.8740 C.3     1  UNL1        0.2450
     27  C         26.1340  -23.7000  -12.2010 C.3     1  UNL1        0.2180
     28  O         25.7830  -22.8740  -13.3170 O.2     1  UNL1       -0.3450
     29  C         26.1440  -21.5700  -13.1160 C.2     1  UNL1        0.1020
     30  C         26.1770  -20.7470  -14.2390 C.2     1  UNL1        0.0390
     31  C         26.4590  -21.0500  -11.8600 C.2     1  UNL1        0.1030
     32  C         26.5610  -19.4100  -14.1130 C.2     1  UNL1        0.0030
     33  C         26.9070  -18.8990  -12.8630 C.2     1  UNL1        0.0030
     34  C         26.8550  -19.7190  -11.7340 C.2     1  UNL1        0.0400
     35  O         26.3910  -21.7780  -10.7020 O.2     1  UNL1       -0.3310
@<TRIPOS>BOND
     1    30    32    1
     2    30    29    2
     3    32    33    2
     4    28    29    1
     5    28    27    1
     6    29    31    1
     7    33    34    1
     8    21    18    1
     9    20    18    1
    10    27    26    1
    11    31    34    2
    12    31    35    1
    13    18    16    1
    14    18    19    1
    15    24    23    2
    16    15    16    2
    17    15    14    1
    18    16    17    1
    19    14    13    2
    20    26    35    1
    21    26    23    1
    22    23    22   am
    23    17    12    2
    24    13    12    1
    25    12    10    1
    26    22     1    1
    27    22    25    1
    28     6     1    2
    29     6     5    1
    30     1     2    1
    31    10    11    1
    32    10     7    1
    33     5     4    2
    34     2     3    2
    35     4     3    1
    36     4     7    1
    37     7     8    2
    38     7     9    2
