@<TRIPOS>MOLECULE
69697_out_ligand_01.pdbqt
 42 47 0 0 0
SMALL
GASTEIGER

@<TRIPOS>ATOM
      1  C         22.5140  -21.9940  -10.6850 C.2     1  UNL1        0.0350
      2  C         23.7240  -21.8480  -10.0010 C.2     1  UNL1        0.0310
      3  C         24.8680  -21.3920  -10.6670 C.2     1  UNL1        0.0270
      4  C         24.7940  -21.0650  -12.0210 C.2     1  UNL1        0.0800
      5  C         23.5990  -21.2230  -12.7230 C.2     1  UNL1        0.0270
      6  C         22.4620  -21.6800  -12.0510 C.2     1  UNL1        0.0310
      7  N         21.3210  -22.4460  -10.0830 N.am    1  UNL1       -0.3230
      8  C         20.0250  -22.2000  -10.5030 C.2     1  UNL1        0.2560
      9  O         19.6760  -21.5180  -11.4580 O.2     1  UNL1       -0.2670
     10  H         21.4310  -22.9470   -9.2110 H       1  UNL1        0.1690
     11  C         18.9680  -22.8220   -9.6590 C.2     1  UNL1        0.0320
     12  C         17.6120  -22.7540  -10.0070 C.2     1  UNL1        0.0170
     13  C         16.6500  -23.3340   -9.1770 C.2     1  UNL1        0.0100
     14  C         17.0270  -23.9830   -7.9910 C.2     1  UNL1       -0.0300
     15  C         18.3870  -24.0390   -7.6490 C.2     1  UNL1        0.0100
     16  C         19.3510  -23.4570   -8.4730 C.2     1  UNL1        0.0170
     17  C         15.9830  -24.5870   -7.0730 C.3     1  UNL1        0.3110
     18  N         15.1090  -23.5760   -6.4590 N.3     1  UNL1        0.0970
     19  C         14.6680  -23.9730   -5.1120 C.3     1  UNL1        0.2770
     20  C         15.8010  -24.0880   -4.0810 C.3     1  UNL1        0.0690
     21  C         16.7870  -22.9500   -4.1710 C.2     1  UNL1       -0.0490
     22  C         17.7440  -22.7730   -3.1640 C.2     1  UNL1        0.0070
     23  C         16.7890  -22.1000   -5.2940 C.2     1  UNL1       -0.0240
     24  C         18.6830  -21.7460   -3.2560 C.2     1  UNL1        0.0010
     25  C         18.6740  -20.8910   -4.3550 C.2     1  UNL1        0.0010
     26  C         17.7310  -21.0640   -5.3670 C.2     1  UNL1        0.0090
     27  C         15.7460  -22.2470   -6.3830 C.3     1  UNL1        0.3110
     28  S         26.2490  -20.4890  -12.8650 S.O2    1  UNL1        0.2630
     29  O         25.8160  -19.7950  -14.0600 O.2     1  UNL1       -0.2000
     30  O         27.1020  -19.8390  -11.8920 O.2     1  UNL1       -0.2000
     31  N         26.9800  -21.9130  -13.3960 N.pl3   1  UNL1       -0.2800
     32  H         27.9600  -21.7880  -13.6370 H       1  UNL1        0.1790
     33  C         26.2150  -22.8560  -14.1480 C.2     1  UNL1        0.0530
     34  C         25.8750  -24.0630  -13.5300 C.2     1  UNL1        0.0310
     35  C         25.1150  -25.0100  -14.2080 C.2     1  UNL1        0.0030
     36  C         24.6890  -24.7530  -15.5090 C.2     1  UNL1        0.0120
     37  C         25.0100  -23.5450  -16.1480 C.2     1  UNL1       -0.0240
     38  C         24.5630  -23.3020  -17.4580 C.2     1  UNL1        0.0120
     39  C         25.7820  -22.5690  -15.4700 C.2     1  UNL1        0.0010
     40  C         24.8610  -22.1060  -18.1070 C.2     1  UNL1        0.0010
     41  C         25.6100  -21.1340  -17.4560 C.2     1  UNL1        0.0010
     42  C         26.0660  -21.3630  -16.1550 C.2     1  UNL1        0.0140
@<TRIPOS>BOND
     1    40    38    2
     2    40    41    1
     3    38    37    1
     4    41    42    2
     5    42    39    1
     6    37    36    2
     7    37    39    1
     8    36    35    1
     9    39    33    2
    10    35    34    2
    11    33    34    1
    12    33    31    1
    13    29    28    2
    14    32    31    1
    15    31    28    1
    16    28     4    1
    17    28    30    2
    18     5     6    1
    19     5     4    2
    20     6     1    2
    21     4     3    1
    22     9     8    2
    23     1     7    1
    24     1     2    1
    25     3     2    2
    26     8     7   am
    27     8    11    1
    28     7    10    1
    29    12    11    2
    30    12    13    1
    31    11    16    1
    32    13    14    2
    33    16    15    2
    34    14    15    1
    35    14    17    1
    36    17    18    1
    37    18    27    1
    38    18    19    1
    39    27    23    1
    40    26    23    1
    41    26    25    2
    42    23    21    2
    43    19    20    1
    44    25    24    1
    45    21    20    1
    46    21    22    1
    47    24    22    2
