@<TRIPOS>MOLECULE
696_out_ligand_01.pdbqt
 32 34 0 0 0
SMALL
GASTEIGER

@<TRIPOS>ATOM
      1  C         20.1790  -22.9080   -9.9330 C.2     1  UNL1        0.0320
      2  C         20.4220  -23.8130   -8.8880 C.2     1  UNL1        0.0180
      3  C         19.3730  -24.2230   -8.0610 C.2     1  UNL1        0.0260
      4  C         18.0810  -23.7300   -8.2850 C.2     1  UNL1        0.0740
      5  C         17.8240  -22.8510   -9.3400 C.2     1  UNL1        0.0260
      6  C         18.8760  -22.4440  -10.1640 C.2     1  UNL1        0.0180
      7  C         21.2670  -22.4480  -10.8420 C.2     1  UNL1        0.2560
      8  O         20.9520  -21.8420  -11.8590 O.2     1  UNL1       -0.2670
      9  N         22.5510  -22.7290  -10.4080 N.am    1  UNL1       -0.3230
     10  H         22.6460  -23.1150   -9.4770 H       1  UNL1        0.1690
     11  C         23.7600  -22.4490  -11.0780 C.2     1  UNL1        0.0350
     12  C         24.6720  -21.4750  -10.6710 C.2     1  UNL1        0.0290
     13  C         25.8450  -21.2510  -11.3950 C.2     1  UNL1        0.0030
     14  C         26.1210  -22.0020  -12.5360 C.2     1  UNL1        0.0160
     15  C         25.2240  -22.9890  -12.9630 C.2     1  UNL1        0.0500
     16  C         24.0420  -23.1980  -12.2290 C.2     1  UNL1        0.0450
     17  C         25.4980  -23.7920  -14.2100 C.3     1  UNL1        0.4170
     18  F         26.8270  -24.0120  -14.4010 F       1  UNL1       -0.1660
     19  F         25.0560  -23.1750  -15.3430 F       1  UNL1       -0.1660
     20  F         24.9100  -25.0200  -14.2020 F       1  UNL1       -0.1660
     21  S         16.7520  -24.2770   -7.2370 S.O2    1  UNL1        0.2450
     22  O         17.3440  -25.0350   -6.1550 O.2     1  UNL1       -0.2060
     23  O         15.7130  -24.8240   -8.0810 O.2     1  UNL1       -0.2060
     24  N         16.1920  -22.7740   -6.6510 N.pl3   1  UNL1       -0.1780
     25  H         15.2280  -22.9220   -6.3340 H       1  UNL1        0.1460
     26  C         16.9700  -22.2610   -5.5510 C.2     1  UNL1        0.0610
     27  C         18.1440  -21.5460   -5.7810 C.2     1  UNL1        0.0270
     28  C         18.9010  -21.0900   -4.6990 C.2     1  UNL1        0.0020
     29  C         18.4880  -21.3500   -3.3890 C.2     1  UNL1        0.0030
     30  C         17.3160  -22.0700   -3.1570 C.2     1  UNL1        0.0440
     31  C         16.5680  -22.5210   -4.2380 C.2     1  UNL1        0.1380
     32  F         15.4330  -23.2040   -4.0170 F       1  UNL1       -0.2040
@<TRIPOS>BOND
     1    19    17    1
     2    18    17    1
     3    17    20    1
     4    17    15    1
     5    15    14    2
     6    15    16    1
     7    14    13    1
     8    16    11    2
     9     8     7    2
    10    13    12    2
    11    11    12    1
    12    11     9    1
    13     7     9   am
    14     7     1    1
    15     9    10    1
    16     6     1    2
    17     6     5    1
    18     1     2    1
    19     5     4    2
    20     2     3    2
    21     4     3    1
    22     4    21    1
    23    23    21    2
    24    21    24    1
    25    21    22    2
    26    24    25    1
    27    24    26    1
    28    27    26    2
    29    27    28    1
    30    26    31    1
    31    28    29    2
    32    31    32    1
    33    31    30    2
    34    29    30    1
