@<TRIPOS>MOLECULE
69735_out_ligand_01.pdbqt
 41 45 0 0 0
SMALL
GASTEIGER

@<TRIPOS>ATOM
      1  C         20.0070  -22.5380  -11.0410 C.2     1  UNL1        0.0350
      2  C         19.9310  -23.5760  -10.1020 C.2     1  UNL1        0.0310
      3  C         18.7600  -23.7970   -9.3730 C.2     1  UNL1        0.0270
      4  C         17.6550  -22.9730   -9.5830 C.2     1  UNL1        0.0800
      5  C         17.7020  -21.9580  -10.5410 C.2     1  UNL1        0.0270
      6  C         18.8820  -21.7370  -11.2590 C.2     1  UNL1        0.0310
      7  N         21.2360  -22.3770  -11.7150 N.am    1  UNL1       -0.3230
      8  C         22.3970  -21.8000  -11.2350 C.2     1  UNL1        0.2570
      9  O         22.5500  -21.3330  -10.1100 O.2     1  UNL1       -0.2670
     10  H         21.2570  -22.7430  -12.6570 H       1  UNL1        0.1690
     11  C         23.5340  -21.7730  -12.2410 C.2     1  UNL1        0.0430
     12  C         23.3260  -21.0440  -13.3590 C.2     1  UNL1        0.0290
     13  C         24.2430  -20.8780  -14.4960 C.2     1  UNL1       -0.0350
     14  C         24.1730  -21.6880  -15.6340 C.2     1  UNL1        0.0140
     15  C         25.0730  -21.5130  -16.6940 C.2     1  UNL1        0.0370
     16  C         26.0650  -20.5350  -16.6170 C.2     1  UNL1        0.0680
     17  C         26.1470  -19.7370  -15.4730 C.2     1  UNL1        0.0370
     18  C         25.2460  -19.9070  -14.4170 C.2     1  UNL1        0.0140
     19  O         27.0080  -20.2650  -17.5700 O.2     1  UNL1       -0.3560
     20  C         27.0850  -18.9220  -18.0320 C.3     1  UNL1        0.2100
     21  C         24.7810  -22.5350  -12.0260 C.2     1  UNL1       -0.0210
     22  C         25.6130  -22.2290  -10.9380 C.2     1  UNL1        0.0120
     23  C         26.7790  -22.9640  -10.7200 C.2     1  UNL1        0.0010
     24  C         27.1210  -24.0050  -11.5840 C.2     1  UNL1        0.0000
     25  C         26.2990  -24.3140  -12.6680 C.2     1  UNL1        0.0010
     26  C         25.1320  -23.5820  -12.8880 C.2     1  UNL1        0.0120
     27  S         16.1620  -23.2450   -8.6590 S.O2    1  UNL1        0.2630
     28  O         15.7190  -21.9610   -8.1570 O.2     1  UNL1       -0.2000
     29  O         15.2840  -24.0770   -9.4570 O.2     1  UNL1       -0.2000
     30  N         16.6850  -24.1160   -7.3160 N.pl3   1  UNL1       -0.2800
     31  H         16.5500  -25.1190   -7.4190 H       1  UNL1        0.1790
     32  C         16.5590  -23.5470   -6.0090 C.2     1  UNL1        0.0530
     33  C         15.5160  -23.9970   -5.1920 C.2     1  UNL1        0.0310
     34  C         15.3600  -23.4790   -3.9120 C.2     1  UNL1        0.0030
     35  C         16.2410  -22.5090   -3.4410 C.2     1  UNL1        0.0120
     36  C         17.3020  -22.0500   -4.2380 C.2     1  UNL1       -0.0240
     37  C         18.1850  -21.0750   -3.7430 C.2     1  UNL1        0.0120
     38  C         17.4820  -22.5720   -5.5440 C.2     1  UNL1        0.0010
     39  C         19.2540  -20.6170   -4.5110 C.2     1  UNL1        0.0010
     40  C         19.4540  -21.1280   -5.7870 C.2     1  UNL1        0.0010
     41  C         18.5790  -22.0900   -6.2980 C.2     1  UNL1        0.0140
@<TRIPOS>BOND
     1    20    19    1
     2    19    16    1
     3    15    16    2
     4    15    14    1
     5    16    17    1
     6    14    13    2
     7    17    18    2
     8    13    18    1
     9    13    12    1
    10    12    11    2
    11    26    25    1
    12    26    21    2
    13    25    24    2
    14    10     7    1
    15    11    21    1
    16    11     8    1
    17    21    22    1
    18     7     8   am
    19     7     1    1
    20    24    23    1
    21     6     1    2
    22     6     5    1
    23     8     9    2
    24     1     2    1
    25    22    23    2
    26     5     4    2
    27     2     3    2
    28     4     3    1
    29     4    27    1
    30    29    27    2
    31    27    28    2
    32    27    30    1
    33    31    30    1
    34    30    32    1
    35    41    40    2
    36    41    38    1
    37    32    38    2
    38    32    33    1
    39    40    39    1
    40    38    36    1
    41    33    34    2
    42    39    37    2
    43    36    37    1
    44    36    35    2
    45    34    35    1
