@<TRIPOS>MOLECULE
69731_out_ligand_01.pdbqt
 38 42 0 0 0
SMALL
GASTEIGER

@<TRIPOS>ATOM
      1  O         19.5690  -21.5900  -11.6500 O.2     1  UNL1       -0.2670
      2  C         19.9610  -22.3030  -10.7330 C.2     1  UNL1        0.2560
      3  N         21.2670  -22.6890  -10.4860 N.am    1  UNL1       -0.3230
      4  H         21.4070  -23.3970   -9.7760 H       1  UNL1        0.1690
      5  C         18.9500  -22.8710   -9.7960 C.2     1  UNL1        0.0320
      6  C         17.5950  -22.7770  -10.1390 C.2     1  UNL1        0.0170
      7  C         16.6170  -23.3040   -9.2920 C.2     1  UNL1        0.0100
      8  C         16.9800  -23.9220   -8.0870 C.2     1  UNL1       -0.0300
      9  C         18.3370  -23.9940   -7.7390 C.2     1  UNL1        0.0100
     10  C         19.3190  -23.4670   -8.5830 C.2     1  UNL1        0.0170
     11  C         15.9200  -24.4880   -7.1610 C.3     1  UNL1        0.3110
     12  N         15.0870  -23.4410   -6.5480 N.3     1  UNL1        0.0970
     13  C         14.5830  -23.8400   -5.2240 C.3     1  UNL1        0.2770
     14  C         15.6730  -24.0330   -4.1590 C.3     1  UNL1        0.0690
     15  C         16.7240  -22.9520   -4.1950 C.2     1  UNL1       -0.0490
     16  C         17.6550  -22.8450   -3.1530 C.2     1  UNL1        0.0070
     17  C         16.8140  -22.0880   -5.3030 C.2     1  UNL1       -0.0240
     18  C         18.6550  -21.8750   -3.1990 C.2     1  UNL1        0.0010
     19  C         18.7370  -21.0070   -4.2850 C.2     1  UNL1        0.0010
     20  C         17.8180  -21.1100   -5.3300 C.2     1  UNL1        0.0090
     21  C         15.7990  -22.1530   -6.4260 C.3     1  UNL1        0.3110
     22  C         22.4270  -22.2750  -11.1730 C.2     1  UNL1        0.0350
     23  C         22.2640  -21.8500  -12.5000 C.2     1  UNL1        0.0310
     24  C         23.3620  -21.4250  -13.2540 C.2     1  UNL1        0.0270
     25  C         24.6310  -21.4190  -12.6740 C.2     1  UNL1        0.0800
     26  C         24.8120  -21.8570  -11.3620 C.2     1  UNL1        0.0270
     27  C         23.7090  -22.2810  -10.6140 C.2     1  UNL1        0.0310
     28  S         26.0350  -20.8970  -13.6260 S.O2    1  UNL1        0.2630
     29  O         27.0880  -20.4880  -12.7210 O.2     1  UNL1       -0.2000
     30  O         25.5510  -19.9980  -14.6530 O.2     1  UNL1       -0.2000
     31  N         26.4920  -22.3140  -14.4250 N.pl3   1  UNL1       -0.2810
     32  H         26.5830  -23.0870  -13.7670 H       1  UNL1        0.1790
     33  C         25.8950  -22.5930  -15.6840 C.2     1  UNL1        0.0420
     34  C         24.7520  -23.3880  -15.7530 C.2     1  UNL1        0.0300
     35  C         24.1480  -23.6270  -16.9890 C.2     1  UNL1        0.0020
     36  C         24.6870  -23.0690  -18.1500 C.2     1  UNL1        0.0000
     37  C         25.8270  -22.2690  -18.0750 C.2     1  UNL1        0.0020
     38  C         26.4310  -22.0260  -16.8400 C.2     1  UNL1        0.0300
@<TRIPOS>BOND
     1    36    37    2
     2    36    35    1
     3    37    38    1
     4    35    34    2
     5    38    33    2
     6    34    33    1
     7    33    31    1
     8    30    28    2
     9    31    32    1
    10    31    28    1
    11    28    29    2
    12    28    25    1
    13    24    25    2
    14    24    23    1
    15    25    26    1
    16    23    22    2
    17     1     2    2
    18    26    27    2
    19    22    27    1
    20    22     3    1
    21     2     3   am
    22     2     5    1
    23     3     4    1
    24     6     5    2
    25     6     7    1
    26     5    10    1
    27     7     8    2
    28    10     9    2
    29     8     9    1
    30     8    11    1
    31    11    12    1
    32    12    21    1
    33    12    13    1
    34    21    17    1
    35    20    17    1
    36    20    19    2
    37    17    15    2
    38    13    14    1
    39    19    18    1
    40    15    14    1
    41    15    16    1
    42    18    16    2
