@<TRIPOS>MOLECULE
69768_out_ligand_01.pdbqt
 37 40 0 0 0
SMALL
GASTEIGER

@<TRIPOS>ATOM
      1  C         20.7970  -22.4040  -10.8240 C.2     1  UNL1        0.0340
      2  C         19.7030  -21.6430  -11.2480 C.2     1  UNL1        0.0310
      3  C         18.4390  -21.8450  -10.6880 C.2     1  UNL1        0.0270
      4  C         18.2640  -22.8190   -9.7040 C.2     1  UNL1        0.0800
      5  C         19.3520  -23.5680   -9.2490 C.2     1  UNL1        0.0270
      6  C         20.6120  -23.3610   -9.8160 C.2     1  UNL1        0.0310
      7  N         22.0940  -22.2820  -11.3600 N.am    1  UNL1       -0.3270
      8  C         23.2030  -21.6900  -10.7770 C.2     1  UNL1        0.2310
      9  O         23.2740  -21.2160   -9.6460 O.2     1  UNL1       -0.2720
     10  H         22.2160  -22.5990  -12.3160 H       1  UNL1        0.1690
     11  C         24.4190  -21.6840  -11.6950 C.3     1  UNL1        0.1770
     12  S         25.7300  -22.7860  -11.0640 S.3     1  UNL1       -0.1550
     13  C         26.9940  -22.4870  -12.3490 C.3     1  UNL1        0.1120
     14  C         26.3760  -22.5350  -13.7280 C.2     1  UNL1       -0.0490
     15  C         25.7580  -23.7070  -14.1910 C.2     1  UNL1        0.0100
     16  C         25.1680  -23.7480  -15.4590 C.2     1  UNL1        0.0360
     17  C         25.1900  -22.6030  -16.2670 C.2     1  UNL1        0.1020
     18  C         25.7990  -21.4250  -15.8170 C.2     1  UNL1        0.0360
     19  C         26.3880  -21.3950  -14.5510 C.2     1  UNL1        0.0100
     20  N         24.5630  -22.6380  -17.5980 N.pl3   1  UNL1       -0.1160
     21  O         24.4460  -23.7420  -18.1530 O.2     1  UNL1       -0.5320
     22  O         24.1830  -21.5610  -18.0840 O.2     1  UNL1       -0.5320
     23  S         16.6520  -23.0880   -9.0080 S.O2    1  UNL1        0.2630
     24  O         15.8630  -23.8410   -9.9550 O.2     1  UNL1       -0.2000
     25  O         16.1830  -21.8190   -8.4950 O.2     1  UNL1       -0.2000
     26  N         16.9970  -24.0380   -7.6680 N.pl3   1  UNL1       -0.2800
     27  H         17.7990  -24.6570   -7.7560 H       1  UNL1        0.1790
     28  C         16.5800  -23.6100   -6.3710 C.2     1  UNL1        0.0530
     29  C         15.3730  -24.1020   -5.8620 C.2     1  UNL1        0.0310
     30  C         14.9420  -23.7230   -4.5940 C.2     1  UNL1        0.0030
     31  C         15.7070  -22.8330   -3.8380 C.2     1  UNL1        0.0120
     32  C         16.9040  -22.2960   -4.3460 C.2     1  UNL1       -0.0240
     33  C         17.6590  -21.3880   -3.5830 C.2     1  UNL1        0.0120
     34  C         17.3510  -22.6710   -5.6380 C.2     1  UNL1        0.0010
     35  C         18.8400  -20.8350   -4.0830 C.2     1  UNL1        0.0010
     36  C         19.2820  -21.1810   -5.3550 C.2     1  UNL1        0.0010
     37  C         18.5490  -22.0920   -6.1230 C.2     1  UNL1        0.0140
@<TRIPOS>BOND
     1    21    20    2
     2    22    20    2
     3    20    17    1
     4    17    18    2
     5    17    16    1
     6    18    19    1
     7    16    15    2
     8    19    14    2
     9    15    14    1
    10    14    13    1
    11    13    12    1
    12    10     7    1
    13    11    12    1
    14    11     8    1
    15     7     1    1
    16     7     8   am
    17     2     1    2
    18     2     3    1
    19     1     6    1
    20     8     9    2
    21     3     4    2
    22    24    23    2
    23     6     5    2
    24     4     5    1
    25     4    23    1
    26    23    25    2
    27    23    26    1
    28    27    26    1
    29    26    28    1
    30    28    29    2
    31    28    34    1
    32    37    34    1
    33    37    36    2
    34    29    30    1
    35    34    32    2
    36    36    35    1
    37    30    31    2
    38    32    31    1
    39    32    33    1
    40    35    33    2
