@<TRIPOS>MOLECULE
69761_out_ligand_01.pdbqt
 42 46 0 0 0
SMALL
GASTEIGER

@<TRIPOS>ATOM
      1  N         21.4220  -22.2910  -10.0320 N.am    1  UNL1       -0.3230
      2  C         21.2610  -23.3290   -9.1300 C.2     1  UNL1        0.2560
      3  O         21.8610  -24.3990   -9.1130 O.2     1  UNL1       -0.2670
      4  H         20.9310  -21.4280   -9.8310 H       1  UNL1        0.1690
      5  C         22.2730  -22.2670  -11.1570 C.2     1  UNL1        0.0350
      6  C         23.4850  -22.9600  -11.2330 C.2     1  UNL1        0.0310
      7  C         24.2750  -22.8910  -12.3850 C.2     1  UNL1        0.0270
      8  C         23.8440  -22.1310  -13.4730 C.2     1  UNL1        0.0800
      9  C         22.6450  -21.4150  -13.4060 C.2     1  UNL1        0.0270
     10  C         21.8610  -21.4930  -12.2520 C.2     1  UNL1        0.0310
     11  S         24.8500  -22.0400  -14.9390 S.O2    1  UNL1        0.2630
     12  O         24.0710  -21.3730  -15.9620 O.2     1  UNL1       -0.2000
     13  O         25.4240  -23.3480  -15.1730 O.2     1  UNL1       -0.2000
     14  N         26.0680  -20.9540  -14.5000 N.pl3   1  UNL1       -0.2810
     15  H         26.8630  -21.4310  -14.0790 H       1  UNL1        0.1790
     16  C         26.3280  -19.8270  -15.3280 C.2     1  UNL1        0.0430
     17  C         26.2440  -19.9690  -16.7090 C.2     1  UNL1        0.0300
     18  C         26.4410  -18.8610  -17.5360 C.2     1  UNL1        0.0090
     19  C         26.7160  -17.5980  -16.9930 C.2     1  UNL1       -0.0560
     20  C         26.9250  -16.4280  -17.9180 C.3     1  UNL1        0.0490
     21  C         26.8250  -17.4570  -15.5950 C.2     1  UNL1       -0.0540
     22  C         26.6280  -18.5810  -14.7750 C.2     1  UNL1        0.0370
     23  C         27.1200  -16.1290  -14.9520 C.3     1  UNL1        0.0490
     24  C         20.2590  -23.0710   -8.0610 C.2     1  UNL1        0.0320
     25  C         20.2760  -21.8320   -7.4150 C.2     1  UNL1        0.0170
     26  C         19.3620  -21.5610   -6.3930 C.2     1  UNL1        0.0110
     27  C         18.4290  -22.5320   -5.9850 C.2     1  UNL1       -0.0250
     28  C         18.4460  -23.7870   -6.6260 C.2     1  UNL1        0.0110
     29  C         19.3470  -24.0550   -7.6630 C.2     1  UNL1        0.0170
     30  C         17.4910  -22.2110   -4.8320 C.3     1  UNL1        0.1830
     31  S         18.1710  -22.8400   -3.2710 S.3     1  UNL1       -0.1300
     32  C         16.9710  -24.1790   -3.1540 C.3     1  UNL1        0.1790
     33  C         15.8600  -23.8530   -4.1240 C.2     1  UNL1        0.2300
     34  O         14.8100  -24.4820   -4.1660 O.2     1  UNL1       -0.2720
     35  N         16.1710  -22.7930   -4.9560 N.am    1  UNL1       -0.3300
     36  C         15.2240  -22.2870   -5.9410 C.3     1  UNL1        0.1660
     37  C         15.5690  -22.6690   -7.3600 C.2     1  UNL1       -0.0400
     38  C         16.1020  -21.7140   -8.2420 C.2     1  UNL1        0.0090
     39  C         16.4600  -22.0710   -9.5440 C.2     1  UNL1        0.0010
     40  C         16.2890  -23.3840   -9.9800 C.2     1  UNL1        0.0000
     41  C         15.7680  -24.3430   -9.1130 C.2     1  UNL1        0.0010
     42  C         15.4200  -23.9920   -7.8070 C.2     1  UNL1        0.0090
@<TRIPOS>BOND
     1    20    19    1
     2    18    19    2
     3    18    17    1
     4    19    21    1
     5    17    16    2
     6    12    11    2
     7    21    23    1
     8    21    22    2
     9    16    22    1
    10    16    14    1
    11    13    11    2
    12    11    14    1
    13    11     8    1
    14    14    15    1
    15     8     9    2
    16     8     7    1
    17     9    10    1
    18     7     6    2
    19    10     5    2
    20     6     5    1
    21     5     1    1
    22     1     4    1
    23     1     2   am
    24    40    39    2
    25    40    41    1
    26    39    38    1
    27     2     3    2
    28     2    24    1
    29    41    42    2
    30    38    37    2
    31    24    29    2
    32    24    25    1
    33    42    37    1
    34    29    28    1
    35    25    26    2
    36    37    36    1
    37    28    27    2
    38    26    27    1
    39    27    30    1
    40    36    35    1
    41    35    30    1
    42    35    33   am
    43    30    31    1
    44    34    33    2
    45    33    32    1
    46    31    32    1
