@<TRIPOS>MOLECULE
69791_out_ligand_01.pdbqt
 36 41 0 0 0
SMALL
GASTEIGER

@<TRIPOS>ATOM
      1  N         17.6170  -21.1400  -12.1660 N.1     1  UNL1       -0.1910
      2  C         18.1020  -21.7630  -11.3140 C.1     1  UNL1        0.1030
      3  C         18.5830  -22.5100  -10.1860 C.ar    1  UNL1        0.0860
      4  C         19.8960  -22.6330   -9.7790 C.ar    1  UNL1        0.0980
      5  S         20.0400  -23.4240   -8.2690 S.2     1  UNL1       -0.0730
      6  C         18.3680  -23.6980   -8.1840 C.ar    1  UNL1        0.0100
      7  C         17.6940  -23.1700   -9.2670 C.ar    1  UNL1       -0.0180
      8  C         16.1970  -23.2550   -9.3520 C.3     1  UNL1        0.0600
      9  C         15.6050  -24.1700   -8.2520 C.3     1  UNL1        0.1220
     10  N         16.2820  -24.1660   -6.9460 N.3     1  UNL1       -0.4040
     11  C         17.7260  -24.4240   -7.0390 C.3     1  UNL1        0.1640
     12  N         21.1320  -22.2560  -10.2600 N.am    1  UNL1       -0.3150
     13  C         22.2760  -23.0290  -10.1770 C.2     1  UNL1        0.2630
     14  O         22.3230  -24.0920   -9.5670 O.2     1  UNL1       -0.2670
     15  H         21.2350  -21.2730  -10.4720 H       1  UNL1        0.1700
     16  C         23.4380  -22.4240  -10.8240 C.2     1  UNL1        0.0730
     17  C         24.7320  -22.2650  -10.3620 C.2     1  UNL1        0.0260
     18  C         25.5780  -21.6190  -11.3150 C.2     1  UNL1        0.0230
     19  C         24.9180  -21.2900  -12.4850 C.2     1  UNL1        0.0410
     20  S         23.2680  -21.7630  -12.3960 S.3     1  UNL1       -0.0820
     21  C         25.4410  -20.6380  -13.6680 C.ar    1  UNL1        0.1160
     22  N         25.7740  -19.3660  -13.6880 N.ar    1  UNL1       -0.2390
     23  C         26.2360  -19.0050  -14.9400 C.ar    1  UNL1        0.0750
     24  C         26.6810  -17.7220  -15.3190 C.2     1  UNL1        0.0330
     25  C         26.2480  -20.0270  -15.8890 C.ar    1  UNL1        0.0350
     26  C         27.1210  -17.4970  -16.6280 C.2     1  UNL1        0.0020
     27  C         27.1210  -18.5310  -17.5590 C.2     1  UNL1        0.0020
     28  C         26.6860  -19.8130  -17.2070 C.2     1  UNL1        0.0210
     29  S         25.6650  -21.4710  -15.1570 S.2     1  UNL1       -0.0670
     30  C         15.8880  -23.1030   -6.0180 C.3     1  UNL1        0.1550
     31  C         16.9770  -22.3890   -5.2490 C.2     1  UNL1       -0.0410
     32  C         17.8390  -21.4860   -5.8890 C.2     1  UNL1        0.0090
     33  C         18.8310  -20.8170   -5.1700 C.2     1  UNL1        0.0010
     34  C         18.9850  -21.0550   -3.8070 C.2     1  UNL1        0.0000
     35  C         18.1540  -21.9670   -3.1630 C.2     1  UNL1        0.0010
     36  C         17.1600  -22.6350   -3.8800 C.2     1  UNL1        0.0090
@<TRIPOS>BOND
     1    27    28    2
     2    27    26    1
     3    28    25    1
     4    26    24    2
     5    25    29   ar
     6    25    23   ar
     7    24    23    1
     8    29    21   ar
     9    23    22   ar
    10    22    21   ar
    11    21    19    1
    12    19    20    1
    13    19    18    2
    14    20    16    1
    15     1     2    3
    16    18    17    1
    17     2     3    1
    18    16    17    2
    19    16    13    1
    20    15    12    1
    21    12    13   am
    22    12     4    1
    23     3     4   ar
    24     3     7   ar
    25    13    14    2
    26     4     5   ar
    27     8     7    1
    28     8     9    1
    29     7     6   ar
    30     5     6   ar
    31     9    10    1
    32     6    11    1
    33    11    10    1
    34    10    30    1
    35    30    31    1
    36    32    31    2
    37    32    33    1
    38    31    36    1
    39    33    34    2
    40    36    35    2
    41    34    35    1
