@<TRIPOS>MOLECULE
6979_out_ligand_01.pdbqt
 32 35 0 0 0
SMALL
GASTEIGER

@<TRIPOS>ATOM
      1  C         21.4340  -21.7900  -11.9850 C.2     1  UNL1        0.0330
      2  C         21.7310  -22.6050  -10.8940 C.2     1  UNL1        0.0190
      3  C         20.7450  -22.8890   -9.9390 C.2     1  UNL1        0.0310
      4  C         19.4350  -22.3960  -10.0550 C.2     1  UNL1        0.0430
      5  C         19.1380  -21.5930  -11.1790 C.2     1  UNL1       -0.0300
      6  C         20.1370  -21.2940  -12.1270 C.2     1  UNL1        0.0260
      7  C         17.7710  -21.0020  -11.4000 C.3     1  UNL1        0.0420
      8  C         16.7170  -21.7920  -10.6540 C.3     1  UNL1        0.0250
      9  C         17.1440  -21.9430   -9.2070 C.3     1  UNL1        0.1330
     10  N         18.4220  -22.6560   -9.0600 N.am    1  UNL1       -0.3130
     11  C         18.6120  -23.5670   -8.0020 C.2     1  UNL1        0.2580
     12  O         19.4500  -24.4640   -7.9530 O.2     1  UNL1       -0.2670
     13  C         22.4480  -21.4460  -13.0230 C.2     1  UNL1        0.2560
     14  O         22.1970  -20.5320  -13.7990 O.2     1  UNL1       -0.2670
     15  N         23.6150  -22.1880  -12.9750 N.am    1  UNL1       -0.3230
     16  H         23.7260  -22.8180  -12.1910 H       1  UNL1        0.1690
     17  C         24.7210  -22.1040  -13.8460 C.2     1  UNL1        0.0350
     18  C         25.9740  -21.8670  -13.2680 C.2     1  UNL1        0.0290
     19  C         27.1200  -21.7750  -14.0590 C.2     1  UNL1        0.0030
     20  C         27.0260  -21.9210  -15.4410 C.2     1  UNL1        0.0160
     21  C         25.7830  -22.1610  -16.0430 C.2     1  UNL1        0.0500
     22  C         24.6360  -22.2530  -15.2330 C.2     1  UNL1        0.0450
     23  C         25.6570  -22.3270  -17.5360 C.3     1  UNL1        0.4170
     24  F         26.8620  -22.4880  -18.1500 F       1  UNL1       -0.1660
     25  F         25.0690  -21.2600  -18.1510 F       1  UNL1       -0.1660
     26  F         24.9080  -23.4100  -17.8860 F       1  UNL1       -0.1660
     27  C         17.7200  -23.4640   -6.8210 C.2     1  UNL1        0.0320
     28  C         16.4950  -24.1410   -6.7930 C.2     1  UNL1        0.0170
     29  C         15.6630  -24.0170   -5.6810 C.2     1  UNL1        0.0010
     30  C         16.0470  -23.2090   -4.6080 C.2     1  UNL1        0.0000
     31  C         17.2580  -22.5130   -4.6490 C.2     1  UNL1        0.0010
     32  C         18.0930  -22.6330   -5.7590 C.2     1  UNL1        0.0170
@<TRIPOS>BOND
     1    25    23    1
     2    24    23    1
     3    26    23    1
     4    23    21    1
     5    21    20    2
     6    21    22    1
     7    20    19    1
     8    22    17    2
     9    19    18    2
    10    17    18    1
    11    17    15    1
    12    14    13    2
    13    13    15   am
    14    13     1    1
    15    15    16    1
    16     6     1    2
    17     6     5    1
    18     1     2    1
    19     7     5    1
    20     7     8    1
    21     5     4    2
    22     2     3    2
    23     8     9    1
    24     4     3    1
    25     4    10    1
    26     9    10    1
    27    10    11   am
    28    11    12    2
    29    11    27    1
    30    27    28    2
    31    27    32    1
    32    28    29    1
    33    32    31    2
    34    29    30    2
    35    31    30    1
