@<TRIPOS>MOLECULE
697_out_ligand_01.pdbqt
 39 42 0 0 0
SMALL
GASTEIGER

@<TRIPOS>ATOM
      1  N         18.8980  -21.4490   -5.9050 N.am    1  UNL1       -0.2430
      2  C         18.0700  -21.4980   -4.8000 C.2     1  UNL1        0.2730
      3  O         18.1460  -20.7970   -3.7940 O.2     1  UNL1       -0.2660
      4  H         18.6610  -21.9540   -6.7510 H       1  UNL1        0.1920
      5  N         19.9970  -20.6460   -5.8990 N.2     1  UNL1       -0.1830
      6  C         21.0520  -21.0250   -6.5580 C.2     1  UNL1        0.1500
      7  C         21.1880  -22.1580   -7.4920 C.2     1  UNL1       -0.0150
      8  C         20.2210  -23.1650   -7.5390 C.2     1  UNL1        0.0130
      9  C         20.3610  -24.2060   -8.4510 C.2     1  UNL1        0.0030
     10  C         21.4570  -24.2270   -9.3190 C.2     1  UNL1        0.0290
     11  C         22.4180  -23.2050   -9.2930 C.2     1  UNL1        0.0350
     12  C         22.2730  -22.1630   -8.3750 C.2     1  UNL1        0.0420
     13  N         23.4820  -23.3060  -10.2140 N.am    1  UNL1       -0.3230
     14  C         23.5310  -22.8140  -11.5040 C.2     1  UNL1        0.2570
     15  O         22.6500  -22.1640  -12.0580 O.2     1  UNL1       -0.2670
     16  H         24.2850  -23.8380   -9.8990 H       1  UNL1        0.1690
     17  C         24.8000  -23.0540  -12.2600 C.2     1  UNL1        0.0540
     18  C         24.7680  -24.0980  -13.2040 C.2     1  UNL1        0.0190
     19  C         25.8920  -24.4080  -13.9720 C.2     1  UNL1        0.0010
     20  C         27.0670  -23.6840  -13.8040 C.2     1  UNL1        0.0020
     21  C         27.1190  -22.6560  -12.8640 C.2     1  UNL1        0.0250
     22  C         25.9960  -22.3390  -12.0880 C.2     1  UNL1        0.0490
     23 CL         26.1990  -21.0740  -10.9270 Cl      1  UNL1       -0.0830
     24  C         16.9400  -22.4520   -4.9070 C.2     1  UNL1        0.0550
     25  C         16.4990  -23.1580   -3.7790 C.2     1  UNL1        0.0190
     26  C         15.4250  -24.0410   -3.8900 C.2     1  UNL1        0.0010
     27  C         14.7870  -24.2160   -5.1190 C.2     1  UNL1        0.0020
     28  C         15.2180  -23.5090   -6.2420 C.2     1  UNL1        0.0250
     29  C         16.2860  -22.6140   -6.1410 C.2     1  UNL1        0.0380
     30  N         16.7650  -21.9720   -7.3390 N.pl3   1  UNL1       -0.1800
     31  H         17.7820  -21.7920   -7.2820 H       1  UNL1        0.1460
     32  S         16.5000  -22.8540   -8.7730 S.O2    1  UNL1        0.2520
     33  O         16.9950  -24.1970   -8.5690 O.2     1  UNL1       -0.2050
     34  O         15.1470  -22.6100   -9.2350 O.2     1  UNL1       -0.2050
     35  C         17.5340  -22.1590  -10.0470 C.2     1  UNL1        0.1150
     36  C         18.7490  -22.5570  -10.5730 C.2     1  UNL1        0.0330
     37  C         19.2060  -21.6840  -11.6020 C.2     1  UNL1        0.0090
     38  C         18.3250  -20.6490  -11.8270 C.2     1  UNL1        0.0510
     39  S         16.9580  -20.7340  -10.8000 S.3     1  UNL1       -0.0890
@<TRIPOS>BOND
     1    19    20    2
     2    19    18    1
     3    20    21    1
     4    18    17    2
     5    21    22    2
     6    17    22    1
     7    17    14    1
     8    22    23    1
     9    15    14    2
    10    38    37    2
    11    38    39    1
    12    37    36    1
    13    14    13   am
    14    39    35    1
    15    36    35    2
    16    13    16    1
    17    13    11    1
    18    35    32    1
    19    10    11    2
    20    10     9    1
    21    11    12    1
    22    34    32    2
    23    32    33    2
    24    32    30    1
    25     9     8    2
    26    12     7    2
    27     8     7    1
    28     7     6    1
    29    30    31    1
    30    30    29    1
    31     4     1    1
    32     6     5    2
    33    28    29    1
    34    28    27    2
    35    29    24    2
    36     1     5    1
    37     1     2   am
    38    27    26    1
    39    24     2    1
    40    24    25    1
    41     2     3    2
    42    26    25    2
