@<TRIPOS>MOLECULE
6980_out_ligand_01.pdbqt
 32 35 0 0 0
SMALL
GASTEIGER

@<TRIPOS>ATOM
      1  C         19.2360  -22.3590  -10.3360 C.2     1  UNL1        0.0320
      2  C         19.0630  -21.4140  -11.3540 C.2     1  UNL1        0.0190
      3  C         20.1240  -21.1160  -12.2180 C.2     1  UNL1        0.0300
      4  C         21.3630  -21.7560  -12.0800 C.2     1  UNL1        0.0350
      5  C         21.5300  -22.6910  -11.0560 C.2     1  UNL1        0.0300
      6  C         20.4750  -22.9860  -10.1850 C.2     1  UNL1        0.0190
      7  C         18.1420  -22.6910   -9.3840 C.2     1  UNL1        0.2510
      8  N         18.4970  -23.4770   -8.3120 N.am    1  UNL1       -0.3530
      9  H         19.4750  -23.5310   -8.0600 H       1  UNL1        0.1630
     10  O         17.0120  -22.2550   -9.5650 O.2     1  UNL1       -0.2680
     11  C         17.5610  -23.7200   -7.2390 C.3     1  UNL1        0.1640
     12  C         17.8910  -22.8690   -6.0370 C.2     1  UNL1       -0.0070
     13  C         18.7540  -21.7710   -6.1930 C.2     1  UNL1        0.0110
     14  C         19.0680  -20.9550   -5.1090 C.2     1  UNL1        0.0010
     15  C         18.5260  -21.2280   -3.8580 C.2     1  UNL1        0.0030
     16  C         17.6580  -22.3100   -3.6890 C.2     1  UNL1        0.0370
     17  C         17.3310  -23.1330   -4.7720 C.2     1  UNL1        0.0760
     18  O         16.4680  -24.1960   -4.7100 O.2     1  UNL1       -0.3550
     19  C         15.0950  -23.9110   -4.4690 C.3     1  UNL1        0.2100
     20  N         22.3780  -21.3850  -12.9840 N.am    1  UNL1       -0.3220
     21  C         23.7180  -21.7480  -12.9540 C.2     1  UNL1        0.2760
     22  O         24.2280  -22.5380  -12.1680 O.2     1  UNL1       -0.2660
     23  H         22.0880  -20.8320  -13.7810 H       1  UNL1        0.1690
     24  C         24.5070  -21.0900  -14.0120 C.ar    1  UNL1        0.1440
     25  N         25.0680  -19.9010  -13.7580 N.ar    1  UNL1       -0.2050
     26  S         25.9140  -19.3980  -15.0790 S.2     1  UNL1        0.0120
     27  C         25.5700  -20.7600  -16.0650 C.ar    1  UNL1        0.0360
     28  C         25.9880  -21.0340  -17.3780 C.2     1  UNL1        0.0210
     29  C         24.7540  -21.6320  -15.3400 C.ar    1  UNL1        0.0170
     30  C         25.5560  -22.2180  -17.9800 C.2     1  UNL1        0.0010
     31  C         24.7270  -23.0990  -17.2960 C.2     1  UNL1        0.0010
     32  C         24.3190  -22.8190  -15.9870 C.2     1  UNL1        0.0150
@<TRIPOS>BOND
     1    30    28    1
     2    30    31    2
     3    28    27    2
     4    31    32    1
     5    27    29   ar
     6    27    26   ar
     7    32    29    2
     8    29    24   ar
     9    26    25   ar
    10    24    25   ar
    11    24    21    1
    12    23    20    1
    13    20    21   am
    14    20     4    1
    15    21    22    2
    16     3     4    2
    17     3     2    1
    18     4     5    1
    19     2     1    2
    20     5     6    2
    21     1     6    1
    22     1     7    1
    23    10     7    2
    24     7     8   am
    25     8     9    1
    26     8    11    1
    27    11    12    1
    28    13    12    2
    29    13    14    1
    30    12    17    1
    31    14    15    2
    32    17    18    1
    33    17    16    2
    34    18    19    1
    35    15    16    1
