@<TRIPOS>MOLECULE
69813_out_ligand_01.pdbqt
 36 40 0 0 0
SMALL
GASTEIGER

@<TRIPOS>ATOM
      1  C         20.0690  -22.0900  -11.0250 C.2     1  UNL1        0.0320
      2  C         18.9320  -21.2670  -11.0380 C.2     1  UNL1        0.0180
      3  C         17.8490  -21.5640  -10.2070 C.2     1  UNL1        0.0260
      4  C         17.9120  -22.6750   -9.3580 C.2     1  UNL1        0.0800
      5  C         19.0420  -23.4960   -9.3330 C.2     1  UNL1        0.0260
      6  C         20.1240  -23.1950  -10.1630 C.2     1  UNL1        0.0180
      7  C         21.2520  -21.8070  -11.8880 C.2     1  UNL1        0.2580
      8  N         22.4050  -22.4550  -11.5180 N.am    1  UNL1       -0.2850
      9  H         22.4650  -23.0010  -10.6720 H       1  UNL1        0.1720
     10  O         21.1170  -21.0190  -12.8160 O.2     1  UNL1       -0.2670
     11  C         23.5790  -22.3300  -12.2020 C.ar    1  UNL1        0.2740
     12  N         24.6900  -22.9880  -11.9590 N.ar    1  UNL1       -0.1020
     13  N         25.6080  -22.5520  -12.8930 N.ar    1  UNL1       -0.1190
     14  C         24.9900  -21.6530  -13.6400 C.ar    1  UNL1        0.2040
     15  O         23.6910  -21.4760  -13.2560 O.2     1  UNL1       -0.2550
     16  C         25.4960  -20.8890  -14.7840 C.2     1  UNL1        0.0250
     17  C         26.0470  -19.6200  -14.5080 C.2     1  UNL1        0.0170
     18  C         26.5650  -18.8070  -15.5180 C.2     1  UNL1        0.0070
     19  C         26.5360  -19.2340  -16.8430 C.2     1  UNL1       -0.0610
     20  C         27.1210  -18.3830  -17.9330 C.3     1  UNL1        0.0480
     21  C         26.0020  -20.4930  -17.1350 C.2     1  UNL1        0.0140
     22  C         25.4700  -21.3270  -16.1280 C.2     1  UNL1       -0.0470
     23  C         24.9040  -22.6570  -16.5540 C.3     1  UNL1        0.0490
     24  S         16.5140  -23.0340   -8.3070 S.O2    1  UNL1        0.2650
     25  O         15.8930  -21.7500   -8.0530 O.2     1  UNL1       -0.2000
     26  O         15.7720  -24.1140   -8.9240 O.2     1  UNL1       -0.2000
     27  N         17.2850  -23.6360   -6.8830 N.pl3   1  UNL1       -0.2710
     28  C         16.5290  -24.6930   -6.1480 C.3     1  UNL1        0.1420
     29  C         15.5930  -24.0820   -5.1180 C.3     1  UNL1        0.0260
     30  C         16.3840  -23.2820   -4.0960 C.3     1  UNL1        0.0420
     31  C         17.4430  -22.4150   -4.7230 C.2     1  UNL1       -0.0310
     32  C         18.0490  -21.4220   -3.9360 C.2     1  UNL1        0.0090
     33  C         17.8930  -22.6240   -6.0390 C.2     1  UNL1        0.0510
     34  C         19.0880  -20.6460   -4.4460 C.2     1  UNL1        0.0010
     35  C         19.5450  -20.8660   -5.7410 C.2     1  UNL1        0.0020
     36  C         18.9550  -21.8550   -6.5290 C.2     1  UNL1        0.0310
@<TRIPOS>BOND
     1    20    19    1
     2    21    19    2
     3    21    22    1
     4    19    18    1
     5    23    22    1
     6    22    16    2
     7    18    17    2
     8    16    17    1
     9    16    14    1
    10    14    15   ar
    11    14    13   ar
    12    15    11   ar
    13    13    12   ar
    14    10     7    2
    15    11    12   ar
    16    11     8    1
    17     7     8   am
    18     7     1    1
    19     8     9    1
    20     2     1    2
    21     2     3    1
    22     1     6    1
    23     3     4    2
    24     6     5    2
    25     4     5    1
    26     4    24    1
    27    26    24    2
    28    24    25    2
    29    24    27    1
    30    27    28    1
    31    27    33    1
    32    36    33    1
    33    36    35    2
    34    28    29    1
    35    33    31    2
    36    35    34    1
    37    29    30    1
    38    31    30    1
    39    31    32    1
    40    34    32    2
