@<TRIPOS>MOLECULE
6981_out_ligand_01.pdbqt
 29 32 0 0 0
SMALL
GASTEIGER

@<TRIPOS>ATOM
      1  C         19.9990  -22.4570   -9.0000 C.3     1  UNL1        0.1690
      2  C         19.9420  -22.3610  -10.5250 C.3     1  UNL1        0.0770
      3  C         21.3480  -22.3920  -11.0540 C.2     1  UNL1       -0.0380
      4  C         21.6960  -21.7340  -12.2410 C.2     1  UNL1        0.0250
      5  C         23.0100  -21.7960  -12.7270 C.2     1  UNL1        0.0320
      6  C         23.9700  -22.5530  -12.0410 C.2     1  UNL1        0.0180
      7  C         23.6210  -23.2210  -10.8640 C.2     1  UNL1        0.0190
      8  C         22.3130  -23.1390  -10.3680 C.2     1  UNL1        0.0450
      9  C         21.9520  -23.8900   -9.1350 C.2     1  UNL1        0.2940
     10  O         22.7240  -24.6940   -8.6340 O.2     1  UNL1       -0.2590
     11  O         20.7190  -23.6530   -8.6200 O.3     1  UNL1       -0.3070
     12  C         23.3320  -21.0780  -13.9950 C.2     1  UNL1        0.2560
     13  O         22.5330  -20.2400  -14.3960 O.2     1  UNL1       -0.2670
     14  N         24.5440  -21.4150  -14.5660 N.am    1  UNL1       -0.3230
     15  H         25.1510  -22.0290  -14.0390 H       1  UNL1        0.1690
     16  C         25.0850  -20.9290  -15.7770 C.2     1  UNL1        0.0350
     17  C         24.9850  -21.5950  -16.9980 C.2     1  UNL1        0.0290
     18  C         25.5610  -21.0510  -18.1490 C.2     1  UNL1        0.0030
     19  C         26.2400  -19.8360  -18.0900 C.2     1  UNL1        0.0070
     20  C         26.3420  -19.1470  -16.8790 C.2     1  UNL1       -0.0600
     21  C         27.1020  -17.8550  -16.8010 C.3     1  UNL1        0.0480
     22  C         25.7740  -19.7080  -15.7260 C.2     1  UNL1        0.0360
     23  C         18.6590  -22.4830   -8.2820 C.2     1  UNL1       -0.0290
     24  C         18.6420  -22.3090   -6.8860 C.2     1  UNL1        0.0100
     25  C         17.4420  -22.3040   -6.1710 C.2     1  UNL1        0.0070
     26  C         16.2240  -22.4810   -6.8320 C.2     1  UNL1       -0.0620
     27  C         14.9320  -22.4470   -6.0720 C.3     1  UNL1        0.0480
     28  C         16.2270  -22.6380   -8.2210 C.2     1  UNL1        0.0070
     29  C         17.4300  -22.6430   -8.9380 C.2     1  UNL1        0.0100
@<TRIPOS>BOND
     1    18    19    2
     2    18    17    1
     3    19    20    1
     4    17    16    2
     5    20    21    1
     6    20    22    2
     7    16    22    1
     8    16    14    1
     9    14    15    1
    10    14    12   am
    11    13    12    2
    12    12     5    1
    13     5     4    1
    14     5     6    2
    15     4     3    2
    16     6     7    1
    17     3     2    1
    18     3     8    1
    19     7     8    2
    20     2     1    1
    21     8     9    1
    22     9    10    2
    23     9    11    1
    24     1    11    1
    25     1    23    1
    26    29    23    2
    27    29    28    1
    28    23    24    1
    29    28    26    2
    30    24    25    2
    31    26    25    1
    32    26    27    1
