@<TRIPOS>MOLECULE
69833_out_ligand_01.pdbqt
 38 41 0 0 0
SMALL
GASTEIGER

@<TRIPOS>ATOM
      1  N         20.6170  -23.0090   -9.3850 N.am    1  UNL1       -0.3040
      2  C         21.9600  -22.8040   -9.6790 C.2     1  UNL1        0.2560
      3  O         22.8690  -23.2730   -8.9950 O.2     1  UNL1       -0.2670
      4  C         22.3010  -21.9540  -10.8610 C.2     1  UNL1        0.0240
      5  C         21.3180  -21.3940  -11.5830 C.2     1  UNL1        0.0270
      6  C         19.9160  -21.5800  -11.2290 C.2     1  UNL1       -0.0080
      7  C         18.9210  -20.9460  -11.9840 C.2     1  UNL1        0.0140
      8  C         17.5760  -21.1110  -11.6570 C.2     1  UNL1        0.0070
      9  C         17.2110  -21.9190  -10.5790 C.2     1  UNL1       -0.0600
     10  C         15.7670  -22.0700  -10.1950 C.3     1  UNL1        0.0480
     11  C         18.2120  -22.5440   -9.8200 C.2     1  UNL1        0.0370
     12  C         19.5710  -22.3890  -10.1380 C.2     1  UNL1        0.0480
     13  C         20.2900  -23.9110   -8.2700 C.3     1  UNL1        0.2350
     14  C         19.4350  -23.2880   -7.1570 C.2     1  UNL1        0.2400
     15  N         18.3660  -24.0720   -6.7650 N.am    1  UNL1       -0.3260
     16  H         18.2740  -24.9560   -7.2490 H       1  UNL1        0.1690
     17  O         19.6930  -22.1580   -6.7500 O.2     1  UNL1       -0.2710
     18  C         17.4020  -23.7980   -5.7760 C.2     1  UNL1        0.0370
     19  C         17.8130  -23.9030   -4.4430 C.2     1  UNL1        0.0290
     20  C         16.9210  -23.6420   -3.4010 C.2     1  UNL1        0.0050
     21  C         15.6040  -23.2740   -3.6810 C.2     1  UNL1        0.0370
     22  C         15.1800  -23.1650   -5.0060 C.2     1  UNL1        0.0700
     23  C         16.0820  -23.4280   -6.0460 C.2     1  UNL1        0.0660
     24  O         13.9230  -22.8120   -5.4160 O.2     1  UNL1       -0.3560
     25  C         13.7040  -21.4420   -5.7240 C.3     1  UNL1        0.2100
     26  C         23.7820  -21.8390  -11.1310 C.3     1  UNL1        0.1360
     27  N         24.3240  -23.1000  -11.6480 N.pl3   1  UNL1       -0.2880
     28  H         23.7550  -23.8950  -11.3670 H       1  UNL1        0.1280
     29  C         24.6540  -23.2040  -13.0070 C.2     1  UNL1        0.0110
     30  C         24.2280  -22.1820  -13.8640 C.2     1  UNL1        0.0260
     31  C         24.4580  -22.2360  -15.2430 C.2     1  UNL1        0.0410
     32  C         25.1040  -23.3380  -15.8040 C.2     1  UNL1        0.1010
     33  C         25.5040  -24.3960  -14.9700 C.2     1  UNL1        0.1030
     34  C         25.2610  -24.3250  -13.5860 C.2     1  UNL1        0.0630
     35  O         25.3780  -23.4810  -17.1420 O.2     1  UNL1       -0.3530
     36  C         24.3290  -23.2130  -18.0610 C.3     1  UNL1        0.2100
     37  O         26.1150  -25.4560  -15.5960 O.2     1  UNL1       -0.3530
     38  C         27.1210  -26.1580  -14.8830 C.3     1  UNL1        0.2100
@<TRIPOS>BOND
     1    36    35    1
     2    35    32    1
     3    32    31    2
     4    32    33    1
     5    37    33    1
     6    37    38    1
     7    31    30    1
     8    33    34    2
     9    30    29    2
    10    34    29    1
    11    29    27    1
    12     7     8    1
    13     7     6    2
    14     8     9    2
    15    27    28    1
    16    27    26    1
    17     5     6    1
    18     5     4    2
    19     6    12    1
    20    26     4    1
    21     4     2    1
    22     9    10    1
    23     9    11    1
    24    12    11    2
    25    12     1    1
    26     2     1   am
    27     2     3    2
    28     1    13    1
    29    13    14    1
    30    16    15    1
    31    14    15   am
    32    14    17    2
    33    15    18    1
    34    23    18    2
    35    23    22    1
    36    18    19    1
    37    25    24    1
    38    24    22    1
    39    22    21    2
    40    19    20    2
    41    21    20    1
