@<TRIPOS>MOLECULE
69843_out_ligand_01.pdbqt
 37 41 0 0 0
SMALL
GASTEIGER

@<TRIPOS>ATOM
      1  N         17.3490  -23.3890   -9.7370 N.pl3   1  UNL1       -0.3530
      2  C         18.3540  -24.1540   -9.2000 C.2     1  UNL1        0.1100
      3  C         19.5500  -23.6110   -9.5990 C.2     1  UNL1        0.0290
      4  C         19.2770  -22.4770  -10.4090 C.2     1  UNL1        0.0090
      5  C         20.0780  -21.5310  -11.0870 C.2     1  UNL1        0.0150
      6  C         19.4710  -20.4740  -11.7740 C.2     1  UNL1        0.0010
      7  C         18.0860  -20.3470  -11.7920 C.2     1  UNL1        0.0020
      8  C         17.2700  -21.2700  -11.1320 C.2     1  UNL1        0.0300
      9  C         17.8850  -22.3330  -10.4490 C.2     1  UNL1        0.0450
     10  S         21.1310  -24.2000   -9.1560 S.3     1  UNL1       -0.1180
     11  C         21.8990  -22.6720   -8.5430 C.3     1  UNL1        0.1820
     12  C         22.8550  -22.0890   -9.5740 C.2     1  UNL1        0.2310
     13  O         23.3440  -20.9720   -9.4150 O.2     1  UNL1       -0.2720
     14  N         23.0780  -22.9300  -10.6520 N.am    1  UNL1       -0.3260
     15  H         22.7270  -23.8790  -10.5660 H       1  UNL1        0.1690
     16  C         23.8830  -22.6850  -11.7830 C.2     1  UNL1        0.0370
     17  C         25.1990  -23.1690  -11.9220 C.2     1  UNL1        0.0320
     18  C         25.9530  -22.8880  -13.0690 C.2     1  UNL1        0.0420
     19  C         25.3660  -22.1280  -14.0560 C.2     1  UNL1        0.1050
     20  C         24.0840  -21.6480  -13.9270 C.2     1  UNL1        0.1070
     21  O         25.9410  -21.7640  -15.2320 O.2     1  UNL1       -0.3230
     22  C         23.3220  -21.9010  -12.8040 C.2     1  UNL1        0.0690
     23  O         23.6870  -20.9270  -15.0110 O.2     1  UNL1       -0.3230
     24  C         24.8620  -21.0230  -15.8430 C.3     1  UNL1        0.3520
     25  C         15.9300  -23.6760   -9.5690 C.3     1  UNL1        0.1480
     26  C         15.5890  -24.0770   -8.1330 C.3     1  UNL1        0.1430
     27  N         16.1850  -23.2140   -7.1300 N.am    1  UNL1       -0.3550
     28  C         17.0320  -23.7190   -6.1680 C.2     1  UNL1        0.2520
     29  O         17.3230  -24.9050   -6.0820 O.2     1  UNL1       -0.2680
     30  H         16.2020  -22.2160   -7.3050 H       1  UNL1        0.1620
     31  C         17.6670  -22.7150   -5.2740 C.2     1  UNL1        0.0370
     32  C         18.5720  -21.8260   -5.8760 C.2     1  UNL1        0.0170
     33  C         19.1840  -20.8270   -5.1220 C.2     1  UNL1        0.0010
     34  C         18.9010  -20.7140   -3.7640 C.2     1  UNL1        0.0010
     35  C         18.0220  -21.6100   -3.1530 C.2     1  UNL1        0.0070
     36  C         17.4080  -22.6370   -3.8910 C.2     1  UNL1       -0.0460
     37  C         16.5080  -23.6030   -3.1710 C.3     1  UNL1        0.0490
@<TRIPOS>BOND
     1    24    21    1
     2    24    23    1
     3    21    19    1
     4    23    20    1
     5    19    20    2
     6    19    18    1
     7    20    22    1
     8    18    17    2
     9    22    16    2
    10    17    16    1
    11     7     6    2
    12     7     8    1
    13    16    14    1
    14     6     5    1
    15     8     9    2
    16     5     4    2
    17    14    15    1
    18    14    12   am
    19     9     4    1
    20     9     1    1
    21     4     3    1
    22     1    25    1
    23     1     2    1
    24     3     2    2
    25     3    10    1
    26    12    13    2
    27    12    11    1
    28    25    26    1
    29    10    11    1
    30    26    27    1
    31    30    27    1
    32    27    28   am
    33    28    29    2
    34    28    31    1
    35    32    31    2
    36    32    33    1
    37    31    36    1
    38    33    34    2
    39    36    37    1
    40    36    35    2
    41    34    35    1
