@<TRIPOS>MOLECULE
69840_out_ligand_01.pdbqt
 35 38 0 0 0
SMALL
GASTEIGER

@<TRIPOS>ATOM
      1  C         23.9760  -21.7860  -11.1350 C.2     1  UNL1        0.0750
      2  C         23.7870  -21.8070   -9.7530 C.2     1  UNL1        0.0270
      3  C         22.5500  -22.1960   -9.2260 C.2     1  UNL1        0.0310
      4  C         21.4980  -22.5530  -10.0720 C.2     1  UNL1        0.0350
      5  C         21.6970  -22.5090  -11.4600 C.2     1  UNL1        0.0310
      6  C         22.9290  -22.1240  -11.9950 C.2     1  UNL1        0.0270
      7  N         20.2210  -22.9510   -9.6240 N.am    1  UNL1       -0.3230
      8  C         19.0040  -22.3430   -9.8640 C.2     1  UNL1        0.2590
      9  O         18.8480  -21.3020  -10.4960 O.2     1  UNL1       -0.2670
     10  H         20.2040  -23.7910   -9.0610 H       1  UNL1        0.1690
     11  C         17.7830  -23.0180   -9.3000 C.2     1  UNL1        0.0660
     12  C         16.6330  -23.0240  -10.1110 C.2     1  UNL1        0.0200
     13  C         15.4450  -23.6250   -9.6840 C.2     1  UNL1        0.0010
     14  C         15.3830  -24.2280   -8.4330 C.2     1  UNL1        0.0030
     15  C         16.5090  -24.2370   -7.6140 C.2     1  UNL1        0.0380
     16  C         17.7100  -23.6530   -8.0480 C.2     1  UNL1        0.0910
     17  O         18.7900  -23.6450   -7.1910 O.2     1  UNL1       -0.3100
     18  C         18.7730  -22.7190   -6.1690 C.2     1  UNL1        0.0760
     19  C         18.0280  -23.0530   -5.0380 C.2     1  UNL1        0.0370
     20  C         17.9280  -22.1490   -3.9810 C.2     1  UNL1        0.0030
     21  C         18.5610  -20.9080   -4.0630 C.2     1  UNL1        0.0000
     22  C         19.2870  -20.5670   -5.2030 C.2     1  UNL1        0.0030
     23  C         19.3900  -21.4700   -6.2640 C.2     1  UNL1        0.0370
     24  S         25.5310  -21.2670  -11.8160 S.O2    1  UNL1        0.2480
     25  O         26.3680  -22.4250  -12.0490 O.2     1  UNL1       -0.2050
     26  O         26.0060  -20.1890  -10.9690 O.2     1  UNL1       -0.2050
     27  N         25.1210  -20.5580  -13.2610 N.pl3   1  UNL1       -0.1480
     28  H         25.2370  -19.5510  -13.2640 H       1  UNL1        0.1490
     29  C         25.5900  -21.1630  -14.4200 C.cat   1  UNL1        0.2150
     30  N         26.7120  -20.6120  -14.8900 N.2     1  UNL1       -0.2300
     31  C         27.1190  -21.0770  -16.0840 C.2     1  UNL1        0.1220
     32  C         26.4240  -22.0180  -16.8120 C.2     1  UNL1        0.0460
     33  C         25.2480  -22.4750  -16.2500 C.2     1  UNL1        0.0350
     34  C         24.4030  -23.4820  -16.9680 C.3     1  UNL1        0.0700
     35  N         24.8060  -22.0330  -15.0560 N.2     1  UNL1       -0.2230
@<TRIPOS>BOND
     1    34    33    1
     2    32    33    1
     3    32    31    2
     4    33    35    2
     5    31    30    1
     6    35    29    1
     7    30    29    2
     8    29    27    1
     9    28    27    1
    10    27    24    1
    11    25    24    2
    12     6     5    1
    13     6     1    2
    14    24     1    1
    15    24    26    2
    16     5     4    2
    17     1     2    1
    18     9     8    2
    19    12    13    1
    20    12    11    2
    21     4     7    1
    22     4     3    1
    23     8     7   am
    24     8    11    1
    25     2     3    2
    26    13    14    2
    27     7    10    1
    28    11    16    1
    29    14    15    1
    30    16    15    2
    31    16    17    1
    32    17    18    1
    33    23    18    2
    34    23    22    1
    35    18    19    1
    36    22    21    2
    37    19    20    2
    38    21    20    1
