@<TRIPOS>MOLECULE
69866_out_ligand_01.pdbqt
 34 38 0 0 0
SMALL
GASTEIGER

@<TRIPOS>ATOM
      1  C         19.7200  -22.3680  -10.1590 C.2     1  UNL1        0.0320
      2  C         18.3490  -22.0720  -10.2180 C.2     1  UNL1        0.0180
      3  C         17.4580  -22.6780   -9.3300 C.2     1  UNL1        0.0260
      4  C         17.9480  -23.5670   -8.3700 C.2     1  UNL1        0.0800
      5  C         19.3150  -23.8640   -8.2950 C.2     1  UNL1        0.0260
      6  C         20.2030  -23.2580   -9.1880 C.2     1  UNL1        0.0180
      7  C         20.6310  -21.6900  -11.1260 C.2     1  UNL1        0.2570
      8  O         20.2460  -20.6500  -11.6420 O.2     1  UNL1       -0.2670
      9  N         21.8170  -22.3500  -11.3530 N.am    1  UNL1       -0.3010
     10  H         21.9720  -23.2680  -10.9600 H       1  UNL1        0.1710
     11  C         22.8430  -21.9460  -12.1680 C.ar    1  UNL1        0.1740
     12  N         24.0880  -22.0690  -11.7780 N.ar    1  UNL1       -0.2200
     13  C         24.9410  -21.5890  -12.7630 C.ar    1  UNL1        0.1150
     14  C         26.3530  -21.5540  -12.7260 C.2     1  UNL1        0.1490
     15  C         24.3030  -21.0920  -13.9030 C.ar    1  UNL1        0.0430
     16  F         27.0160  -22.0160  -11.6560 F       1  UNL1       -0.2030
     17  C         27.0840  -21.0390  -13.7950 C.2     1  UNL1        0.0870
     18  C         26.4130  -20.5570  -14.9050 C.2     1  UNL1        0.1200
     19  F         27.1210  -20.0630  -15.9300 F       1  UNL1       -0.2060
     20  C         25.0210  -20.5680  -14.9910 C.2     1  UNL1        0.0630
     21  S         22.6020  -21.2460  -13.6960 S.2     1  UNL1       -0.0500
     22  S         16.8340  -24.3570   -7.2200 S.O2    1  UNL1        0.2650
     23  O         17.6840  -25.1330   -6.3410 O.2     1  UNL1       -0.2000
     24  O         15.7850  -24.9870   -7.9940 O.2     1  UNL1       -0.2000
     25  N         16.1640  -22.9990   -6.3860 N.pl3   1  UNL1       -0.2710
     26  C         14.8000  -23.2090   -5.8180 C.3     1  UNL1        0.1420
     27  C         14.8730  -23.7630   -4.4050 C.3     1  UNL1        0.0260
     28  C         15.6090  -22.7910   -3.4960 C.3     1  UNL1        0.0420
     29  C         16.8570  -22.2310   -4.1250 C.2     1  UNL1       -0.0310
     30  C         17.7740  -21.5530   -3.3060 C.2     1  UNL1        0.0090
     31  C         17.0860  -22.2990   -5.5100 C.2     1  UNL1        0.0510
     32  C         18.9050  -20.9490   -3.8520 C.2     1  UNL1        0.0010
     33  C         19.1210  -21.0010   -5.2240 C.2     1  UNL1        0.0020
     34  C         18.2130  -21.6670   -6.0490 C.2     1  UNL1        0.0310
@<TRIPOS>BOND
     1    19    18    1
     2    20    18    2
     3    20    15    1
     4    18    17    1
     5    15    21   ar
     6    15    13   ar
     7    17    14    2
     8    21    11   ar
     9    13    14    1
    10    13    12   ar
    11    14    16    1
    12    11    12   ar
    13    11     9    1
    14     8     7    2
    15     9     7   am
    16     9    10    1
    17     7     1    1
    18     2     1    2
    19     2     3    1
    20     1     6    1
    21     3     4    2
    22     6     5    2
    23     4     5    1
    24     4    22    1
    25    24    22    2
    26    22    25    1
    27    22    23    2
    28    25    26    1
    29    25    31    1
    30    34    31    1
    31    34    33    2
    32    26    27    1
    33    31    29    2
    34    33    32    1
    35    27    28    1
    36    29    28    1
    37    29    30    1
    38    32    30    2
