@<TRIPOS>MOLECULE
69897_out_ligand_01.pdbqt
 33 36 0 0 0
SMALL
GASTEIGER

@<TRIPOS>ATOM
      1  C         25.2850  -22.0790  -12.0750 C.ar    1  UNL1        0.1600
      2  N         25.5270  -21.1480  -11.1740 N.ar    1  UNL1       -0.1330
      3  N         24.5220  -21.0730  -10.2330 N.ar    1  UNL1       -0.1220
      4  C         23.5840  -21.9720  -10.4400 C.ar    1  UNL1        0.1970
      5  S         23.8380  -22.9500  -11.8120 S.2     1  UNL1       -0.0220
      6  N         22.4870  -22.0800   -9.6190 N.am    1  UNL1       -0.3000
      7  C         22.0230  -23.2260   -9.0160 C.2     1  UNL1        0.2570
      8  O         22.5260  -24.3400   -9.0590 O.2     1  UNL1       -0.2670
      9  H         22.0590  -21.1900   -9.4060 H       1  UNL1        0.1710
     10  C         20.7920  -23.0400   -8.1950 C.2     1  UNL1        0.0320
     11  C         19.7510  -23.9630   -8.3370 C.2     1  UNL1        0.0180
     12  C         18.5810  -23.8260   -7.5830 C.2     1  UNL1        0.0130
     13  C         18.4200  -22.7600   -6.6830 C.2     1  UNL1       -0.0260
     14  C         19.4670  -21.8300   -6.5650 C.2     1  UNL1        0.0130
     15  C         20.6410  -21.9610   -7.3170 C.2     1  UNL1        0.0180
     16  C         17.1860  -22.6150   -5.8930 C.2     1  UNL1       -0.0260
     17  C         17.2320  -22.5030   -4.4920 C.2     1  UNL1        0.0120
     18  C         16.0610  -22.3630   -3.7420 C.2     1  UNL1        0.0010
     19  C         14.8240  -22.3320   -4.3800 C.2     1  UNL1        0.0000
     20  C         14.7560  -22.4410   -5.7670 C.2     1  UNL1        0.0010
     21  C         15.9280  -22.5820   -6.5150 C.2     1  UNL1        0.0120
     22  S         26.3550  -22.3780  -13.4210 S.3     1  UNL1       -0.0920
     23  C         25.1770  -22.5180  -14.7950 C.3     1  UNL1        0.1840
     24  C         24.9660  -21.1710  -15.4690 C.2     1  UNL1        0.2310
     25  O         23.8610  -20.8550  -15.9040 O.2     1  UNL1       -0.2720
     26  N         26.1160  -20.4020  -15.5250 N.am    1  UNL1       -0.3270
     27  H         26.9230  -20.7550  -15.0110 H       1  UNL1        0.1690
     28  C         26.2770  -19.1240  -16.0960 C.2     1  UNL1        0.0340
     29  C         26.6040  -18.0760  -15.2260 C.2     1  UNL1        0.0290
     30  C         26.7860  -16.7780  -15.7090 C.2     1  UNL1        0.0020
     31  C         26.6440  -16.5160  -17.0700 C.2     1  UNL1        0.0000
     32  C         26.3200  -17.5530  -17.9420 C.2     1  UNL1        0.0020
     33  C         26.1370  -18.8520  -17.4580 C.2     1  UNL1        0.0290
@<TRIPOS>BOND
     1    32    33    1
     2    32    31    2
     3    33    28    2
     4    31    30    1
     5    28    26    1
     6    28    29    1
     7    25    24    2
     8    30    29    2
     9    26    24   am
    10    26    27    1
    11    24    23    1
    12    23    22    1
    13    22     1    1
    14     1     5   ar
    15     1     2   ar
    16     5     4   ar
    17     2     3   ar
    18     4     3   ar
    19     4     6    1
    20     6     9    1
    21     6     7   am
    22     8     7    2
    23     7    10    1
    24    11    10    2
    25    11    12    1
    26    10    15    1
    27    12    13    2
    28    15    14    2
    29    13    14    1
    30    13    16    1
    31    21    16    2
    32    21    20    1
    33    16    17    1
    34    20    19    2
    35    17    18    2
    36    19    18    1
