@<TRIPOS>MOLECULE
69890_out_ligand_01.pdbqt
 35 39 0 0 0
SMALL
GASTEIGER

@<TRIPOS>ATOM
      1  C         19.8570  -22.7240  -10.1000 C.2     1  UNL1        0.0320
      2  C         18.5050  -22.4030  -10.2920 C.2     1  UNL1        0.0180
      3  C         17.5300  -22.9170   -9.4350 C.2     1  UNL1        0.0260
      4  C         17.9180  -23.7390   -8.3730 C.2     1  UNL1        0.0800
      5  C         19.2640  -24.0600   -8.1670 C.2     1  UNL1        0.0260
      6  C         20.2360  -23.5470   -9.0290 C.2     1  UNL1        0.0180
      7  C         20.8620  -22.1470  -11.0380 C.2     1  UNL1        0.2570
      8  N         22.1510  -22.5750  -10.8240 N.am    1  UNL1       -0.3010
      9  H         22.3420  -23.3030  -10.1510 H       1  UNL1        0.1710
     10  O         20.4580  -21.3880  -11.9090 O.2     1  UNL1       -0.2670
     11  C         23.2730  -22.1950  -11.5160 C.ar    1  UNL1        0.1740
     12  S         24.4810  -21.2020  -10.8600 S.2     1  UNL1       -0.0500
     13  C         25.3690  -21.3010  -12.3310 C.ar    1  UNL1        0.0370
     14  C         26.5960  -20.7060  -12.6560 C.2     1  UNL1        0.0210
     15  C         24.6700  -22.1100  -13.2310 C.ar    1  UNL1        0.0830
     16  C         27.1200  -20.9370  -13.9270 C.2     1  UNL1        0.0020
     17  C         26.4400  -21.7370  -14.8410 C.2     1  UNL1        0.0100
     18  C         25.2050  -22.3450  -14.5250 C.2     1  UNL1       -0.0250
     19  N         23.4710  -22.6170  -12.7410 N.ar    1  UNL1       -0.2230
     20  C         24.4860  -23.2120  -15.5470 C.3     1  UNL1        0.0130
     21  C         24.9400  -24.6720  -15.4740 C.3     1  UNL1        0.0150
     22  C         24.6390  -22.6570  -16.9640 C.3     1  UNL1        0.0150
     23  S         16.6940  -24.4100   -7.2610 S.O2    1  UNL1        0.2650
     24  O         15.6310  -24.9720   -8.0690 O.2     1  UNL1       -0.2000
     25  O         17.4380  -25.2340   -6.3310 O.2     1  UNL1       -0.2000
     26  N         16.1000  -22.9860   -6.4830 N.pl3   1  UNL1       -0.2710
     27  C         14.7310  -23.1010   -5.9030 C.3     1  UNL1        0.1420
     28  C         14.7820  -23.6010   -4.4680 C.3     1  UNL1        0.0260
     29  C         15.5740  -22.6360   -3.6020 C.3     1  UNL1        0.0420
     30  C         16.8450  -22.1670   -4.2580 C.2     1  UNL1       -0.0310
     31  C         17.8020  -21.5060   -3.4690 C.2     1  UNL1        0.0090
     32  C         17.0630  -22.3010   -5.6400 C.2     1  UNL1        0.0510
     33  C         18.9590  -20.9830   -4.0420 C.2     1  UNL1        0.0010
     34  C         19.1640  -21.1010   -5.4140 C.2     1  UNL1        0.0020
     35  C         18.2170  -21.7490   -6.2070 C.2     1  UNL1        0.0310
@<TRIPOS>BOND
     1    22    20    1
     2    20    21    1
     3    20    18    1
     4    17    18    2
     5    17    16    1
     6    18    15    1
     7    16    14    2
     8    15    19   ar
     9    15    13   ar
    10    19    11   ar
    11    14    13    1
    12    13    12   ar
    13    10     7    2
    14    11    12   ar
    15    11     8    1
    16     7     8   am
    17     7     1    1
    18     8     9    1
    19     2     1    2
    20     2     3    1
    21     1     6    1
    22     3     4    2
    23     6     5    2
    24     4     5    1
    25     4    23    1
    26    24    23    2
    27    23    26    1
    28    23    25    2
    29    26    27    1
    30    26    32    1
    31    35    32    1
    32    35    34    2
    33    27    28    1
    34    32    30    2
    35    34    33    1
    36    28    29    1
    37    30    29    1
    38    30    31    1
    39    33    31    2
