@<TRIPOS>MOLECULE
698_out_ligand_01.pdbqt
 34 37 0 0 0
SMALL
GASTEIGER

@<TRIPOS>ATOM
      1  C         21.6290  -21.8880  -10.2020 C.3     1  UNL1        0.1620
      2  C         21.6860  -22.0990   -8.6780 C.2     1  UNL1        0.1800
      3  O         22.6980  -21.8360   -8.0210 O.2     1  UNL1       -0.2910
      4  C         20.5430  -22.7450   -8.0150 C.2     1  UNL1        0.0390
      5  C         19.6860  -22.3000   -6.9500 C.2     1  UNL1        0.0060
      6  C         19.6380  -21.1630   -6.1150 C.2     1  UNL1        0.0150
      7  C         18.7220  -23.2950   -6.7430 C.2     1  UNL1        0.0490
      8  C         18.6280  -21.0360   -5.1580 C.2     1  UNL1        0.0020
      9  C         17.6690  -22.0310   -5.0060 C.2     1  UNL1        0.0090
     10  C         17.6920  -23.2010   -5.7850 C.2     1  UNL1       -0.0310
     11  N         19.0050  -24.3150   -7.6240 N.pl3   1  UNL1       -0.3640
     12  C         20.1070  -24.0100   -8.3670 C.2     1  UNL1        0.1040
     13  H         18.4780  -25.1750   -7.6920 H       1  UNL1        0.1650
     14  C         16.6400  -24.2600   -5.5790 C.3     1  UNL1        0.0360
     15  C         15.3390  -23.6690   -5.0570 C.3     1  UNL1        0.0100
     16  S         22.4630  -23.2580  -11.1030 S.3     1  UNL1       -0.0850
     17  C         23.7730  -22.3600  -11.8320 C.ar    1  UNL1        0.1360
     18  N         23.6580  -21.8360  -13.0290 N.ar    1  UNL1       -0.2380
     19  C         24.8050  -21.1270  -13.3500 C.ar    1  UNL1        0.0460
     20  C         24.8570  -20.4270  -14.6620 C.3     1  UNL1        0.0710
     21  C         25.7830  -21.1350  -12.3670 C.ar    1  UNL1        0.0180
     22  S         25.2580  -22.0850  -11.0380 S.2     1  UNL1       -0.0650
     23  C         27.1170  -20.4630  -12.3400 C.3     1  UNL1        0.1500
     24  C         26.9540  -19.0060  -11.9560 C.2     1  UNL1        0.2200
     25  N         27.0950  -18.1020  -12.9720 N.am    1  UNL1       -0.3700
     26  H         27.0980  -17.1280  -12.6940 H       1  UNL1        0.1590
     27  H         27.6420  -18.3370  -13.7920 H       1  UNL1        0.1590
     28  O         26.6860  -18.6360  -10.8170 O.2     1  UNL1       -0.2730
     29  C         20.1920  -21.7260  -10.6830 C.2     1  UNL1       -0.0360
     30  C         19.7500  -20.4810  -11.1630 C.2     1  UNL1        0.0090
     31  C         18.4340  -20.3130  -11.5980 C.2     1  UNL1        0.0010
     32  C         17.5430  -21.3820  -11.5570 C.2     1  UNL1        0.0000
     33  C         17.9660  -22.6220  -11.0830 C.2     1  UNL1        0.0010
     34  C         19.2800  -22.7940  -10.6480 C.2     1  UNL1        0.0090
@<TRIPOS>BOND
     1    20    19    1
     2    27    25    1
     3    19    18   ar
     4    19    21   ar
     5    18    17   ar
     6    25    26    1
     7    25    24   am
     8    21    23    1
     9    21    22   ar
    10    23    24    1
    11    24    28    2
    12    17    16    1
    13    17    22   ar
    14    31    32    2
    15    31    30    1
    16    32    33    1
    17    30    29    2
    18    16     1    1
    19    33    34    2
    20    29    34    1
    21    29     1    1
    22     1     2    1
    23     2     3    2
    24     2     4    1
    25    12     4    2
    26    12    11    1
    27     4     5    1
    28    13    11    1
    29    11     7    1
    30     5     7    2
    31     5     6    1
    32     7    10    1
    33     6     8    2
    34    10    14    1
    35    10     9    2
    36    14    15    1
    37     8     9    1
