@<TRIPOS>MOLECULE
69930_out_ligand_01.pdbqt
 39 44 0 0 0
SMALL
GASTEIGER

@<TRIPOS>ATOM
      1  C         17.4000  -22.4260  -10.5450 C.ar    1  UNL1        0.1530
      2  N         16.8030  -21.5510  -11.3360 N.ar    1  UNL1       -0.1320
      3  N         17.7150  -20.5960  -11.6790 N.ar    1  UNL1       -0.1220
      4  C         18.8600  -20.9060  -11.1200 C.ar    1  UNL1        0.1960
      5  N         18.7450  -22.0980  -10.4200 N.ar    1  UNL1       -0.2740
      6  C         16.6980  -23.5120   -9.8030 C.3     1  UNL1        0.2040
      7  N         16.3650  -23.0080   -8.4880 N.am    1  UNL1       -0.3500
      8  C         15.9520  -23.8790   -7.5020 C.2     1  UNL1        0.2520
      9  O         15.5630  -25.0200   -7.7140 O.2     1  UNL1       -0.2680
     10  H         16.8640  -22.1780   -8.1950 H       1  UNL1        0.1630
     11  C         16.0550  -23.3480   -6.1220 C.2     1  UNL1        0.0430
     12  C         15.0290  -23.6890   -5.2270 C.2     1  UNL1        0.0180
     13  C         15.0680  -23.2200   -3.9190 C.2     1  UNL1        0.0020
     14  C         16.1250  -22.4100   -3.5060 C.2     1  UNL1        0.0120
     15  C         17.1560  -22.0490   -4.3920 C.2     1  UNL1       -0.0250
     16  C         18.2090  -21.2290   -3.9560 C.2     1  UNL1        0.0120
     17  C         17.1320  -22.5150   -5.7300 C.2     1  UNL1       -0.0100
     18  C         19.2400  -20.8620   -4.8220 C.2     1  UNL1        0.0010
     19  C         19.2300  -21.3100   -6.1360 C.2     1  UNL1        0.0010
     20  C         18.1900  -22.1260   -6.5840 C.2     1  UNL1        0.0130
     21  C         19.7440  -22.8400   -9.7380 C.2     1  UNL1        0.0430
     22  C         19.7030  -24.2390   -9.7180 C.2     1  UNL1        0.0300
     23  C         20.7000  -24.9540   -9.0510 C.2     1  UNL1        0.0020
     24  C         21.7340  -24.2810   -8.4030 C.2     1  UNL1        0.0000
     25  C         21.7780  -22.8880   -8.4190 C.2     1  UNL1        0.0020
     26  C         20.7870  -22.1650   -9.0860 C.2     1  UNL1        0.0300
     27  S         20.3470  -20.0790  -11.4510 S.3     1  UNL1       -0.0800
     28  C         20.9690  -20.9780  -12.8970 C.3     1  UNL1        0.1850
     29  C         22.2000  -21.8340  -12.6340 C.2     1  UNL1        0.2340
     30  O         22.1250  -22.7280  -11.7860 O.2     1  UNL1       -0.2720
     31  N         23.3080  -21.6360  -13.4410 N.am    1  UNL1       -0.3170
     32  C         23.4360  -20.6880  -14.5630 C.3     1  UNL1        0.1370
     33  C         24.5470  -22.2960  -13.3000 C.2     1  UNL1        0.0430
     34  C         24.7110  -21.0570  -15.3290 C.3     1  UNL1        0.0610
     35  C         25.4010  -21.9480  -14.3510 C.2     1  UNL1       -0.0300
     36  C         26.6860  -22.4610  -14.4380 C.2     1  UNL1        0.0090
     37  C         27.1200  -23.3320  -13.4370 C.2     1  UNL1        0.0010
     38  C         26.2680  -23.6830  -12.3810 C.2     1  UNL1        0.0020
     39  C         24.9700  -23.1650  -12.3080 C.2     1  UNL1        0.0300
@<TRIPOS>BOND
     1    34    32    1
     2    34    35    1
     3    32    31    1
     4    36    35    1
     5    36    37    2
     6    35    33    2
     7    31    33    1
     8    31    29   am
     9    37    38    1
    10    33    39    1
    11    28    29    1
    12    28    27    1
    13    29    30    2
    14    38    39    2
    15     3     2   ar
    16     3     4   ar
    17    27     4    1
    18     2     1   ar
    19     4     5   ar
    20     1     5   ar
    21     1     6    1
    22     5    21    1
    23     6     7    1
    24    21    22    2
    25    21    26    1
    26    22    23    1
    27    26    25    2
    28    23    24    2
    29     7    10    1
    30     7     8   am
    31    25    24    1
    32     9     8    2
    33     8    11    1
    34    20    19    2
    35    20    17    1
    36    19    18    1
    37    11    17    2
    38    11    12    1
    39    17    15    1
    40    12    13    2
    41    18    16    2
    42    15    16    1
    43    15    14    2
    44    13    14    1
