@<TRIPOS>MOLECULE
69941_out_ligand_01.pdbqt
 37 41 0 0 0
SMALL
GASTEIGER

@<TRIPOS>ATOM
      1  C         20.0370  -22.5460  -10.0180 C.2     1  UNL1        0.0320
      2  C         20.3840  -23.4890   -9.0370 C.2     1  UNL1        0.0180
      3  C         19.4030  -24.0720   -8.2330 C.2     1  UNL1        0.0260
      4  C         18.0660  -23.7120   -8.4180 C.2     1  UNL1        0.0750
      5  C         17.7070  -22.7520   -9.3720 C.2     1  UNL1        0.0260
      6  C         18.6940  -22.1660  -10.1690 C.2     1  UNL1        0.0180
      7  C         21.1320  -21.9610  -10.8480 C.2     1  UNL1        0.2570
      8  N         22.3180  -22.6590  -10.8270 N.am    1  UNL1       -0.3010
      9  H         22.4490  -23.4650  -10.2370 H       1  UNL1        0.1710
     10  O         20.9040  -20.9120  -11.4390 O.2     1  UNL1       -0.2670
     11  C         23.4140  -22.2560  -11.5390 C.2     1  UNL1        0.1730
     12  S         24.9010  -22.5790  -10.7680 S.3     1  UNL1       -0.0610
     13  C         25.7200  -21.8810  -12.1080 C.2     1  UNL1        0.0850
     14  C         24.8050  -21.4510  -13.0530 C.2     1  UNL1        0.0760
     15  N         23.4810  -21.6750  -12.7040 N.2     1  UNL1       -0.2230
     16  C         25.1400  -20.8010  -14.3200 C.2     1  UNL1       -0.0070
     17  C         25.9500  -19.6620  -14.3960 C.2     1  UNL1        0.0160
     18  C         26.2410  -19.0790  -15.6370 C.2     1  UNL1        0.0370
     19  C         25.7370  -19.6200  -16.8230 C.2     1  UNL1        0.0680
     20  C         24.9280  -20.7510  -16.7560 C.2     1  UNL1        0.0370
     21  C         24.6360  -21.3360  -15.5170 C.2     1  UNL1        0.0160
     22  O         26.1000  -18.9450  -17.9530 O.2     1  UNL1       -0.3520
     23  C         26.6000  -17.6140  -17.8270 C.3     1  UNL1        0.1710
     24  C         25.5170  -16.5970  -18.1520 C.3     1  UNL1        0.0340
     25  S         16.7890  -24.4430   -7.4050 S.O2    1  UNL1        0.2480
     26  O         17.4810  -25.3590   -6.5210 O.2     1  UNL1       -0.2050
     27  O         15.7410  -24.9080   -8.2920 O.2     1  UNL1       -0.2050
     28  N         16.1810  -23.0610   -6.5270 N.pl3   1  UNL1       -0.1720
     29  C         14.8910  -23.3800   -5.8320 C.3     1  UNL1        0.1140
     30  C         14.4860  -22.2840   -4.8660 C.3     1  UNL1        0.0200
     31  C         15.5460  -22.1680   -3.7890 C.3     1  UNL1        0.0420
     32  C         16.8890  -21.9200   -4.4150 C.2     1  UNL1       -0.0360
     33  C         17.8590  -21.2400   -3.6570 C.2     1  UNL1        0.0090
     34  C         17.1870  -22.3570   -5.7220 C.2     1  UNL1        0.0310
     35  C         19.0960  -20.9240   -4.2080 C.2     1  UNL1        0.0010
     36  C         19.3620  -21.2660   -5.5270 C.2     1  UNL1        0.0020
     37  C         18.4100  -21.9610   -6.2790 C.2     1  UNL1        0.0250
@<TRIPOS>BOND
     1    24    23    1
     2    22    23    1
     3    22    19    1
     4    19    20    2
     5    19    18    1
     6    20    21    1
     7    18    17    2
     8    21    16    2
     9    17    16    1
    10    16    14    1
    11    14    15    1
    12    14    13    2
    13    15    11    2
    14    13    12    1
    15    11     8    1
    16    11    12    1
    17    10     7    2
    18     7     8   am
    19     7     1    1
    20     8     9    1
    21     6     1    2
    22     6     5    1
    23     1     2    1
    24     5     4    2
    25     2     3    2
    26     4     3    1
    27     4    25    1
    28    27    25    2
    29    25    28    1
    30    25    26    2
    31    28    29    1
    32    28    34    1
    33    37    34    1
    34    37    36    2
    35    29    30    1
    36    34    32    2
    37    36    35    1
    38    30    31    1
    39    32    31    1
    40    32    33    1
    41    35    33    2
