@<TRIPOS>MOLECULE
69956_out_ligand_01.pdbqt
 41 45 0 0 0
SMALL
GASTEIGER

@<TRIPOS>ATOM
      1  N         21.8700  -22.2070  -11.1890 N.am    1  UNL1       -0.3230
      2  C         20.5850  -21.6960  -11.1380 C.2     1  UNL1        0.2560
      3  O         20.1630  -20.7250  -11.7560 O.2     1  UNL1       -0.2670
      4  H         22.1110  -22.9260  -10.5200 H       1  UNL1        0.1690
      5  C         19.6540  -22.3830  -10.1910 C.2     1  UNL1        0.0320
      6  C         20.0860  -23.3730   -9.2950 C.2     1  UNL1        0.0180
      7  C         19.1710  -23.9790   -8.4270 C.2     1  UNL1        0.0260
      8  C         17.8240  -23.6020   -8.4660 C.2     1  UNL1        0.0750
      9  C         17.3750  -22.6460   -9.3790 C.2     1  UNL1        0.0260
     10  C         18.2940  -22.0370  -10.2370 C.2     1  UNL1        0.0180
     11  S         16.6690  -24.4050   -7.3650 S.O2    1  UNL1        0.2480
     12  O         15.5870  -24.9310   -8.1740 O.2     1  UNL1       -0.2050
     13  O         17.4710  -25.2780   -6.5340 O.2     1  UNL1       -0.2050
     14  N         16.0460  -23.0600   -6.4410 N.pl3   1  UNL1       -0.1720
     15  C         14.7460  -23.4070   -5.7740 C.3     1  UNL1        0.1140
     16  C         14.3730  -22.4120   -4.6910 C.3     1  UNL1        0.0200
     17  C         15.4560  -22.4210   -3.6300 C.3     1  UNL1        0.0420
     18  C         16.7750  -22.0730   -4.2630 C.2     1  UNL1       -0.0360
     19  C         17.7460  -21.4260   -3.4770 C.2     1  UNL1        0.0090
     20  C         17.0450  -22.3870   -5.6090 C.2     1  UNL1        0.0310
     21  C         18.9570  -21.0300   -4.0340 C.2     1  UNL1        0.0010
     22  C         19.1970  -21.2610   -5.3820 C.2     1  UNL1        0.0020
     23  C         18.2430  -21.9180   -6.1630 C.2     1  UNL1        0.0250
     24  C         22.9300  -21.7750  -12.0170 C.2     1  UNL1        0.0350
     25  C         24.2610  -21.6850  -11.5990 C.2     1  UNL1        0.0310
     26  C         25.2550  -21.2450  -12.4800 C.2     1  UNL1        0.0270
     27  C         24.9180  -20.9010  -13.7900 C.2     1  UNL1        0.0750
     28  C         23.5920  -20.9670  -14.2180 C.2     1  UNL1        0.0270
     29  C         22.6040  -21.4060  -13.3310 C.2     1  UNL1        0.0310
     30  S         26.1670  -20.3190  -14.9110 S.O2    1  UNL1        0.2480
     31  O         25.4690  -19.8950  -16.1090 O.2     1  UNL1       -0.2050
     32  O         27.0460  -19.3990  -14.2210 O.2     1  UNL1       -0.2050
     33  N         26.9990  -21.6940  -15.3340 N.pl3   1  UNL1       -0.1480
     34  H         27.8170  -21.8620  -14.7640 H       1  UNL1        0.1490
     35  C         26.2520  -22.8440  -15.5620 C.cat   1  UNL1        0.2150
     36  N         26.2720  -23.8190  -14.6550 N.2     1  UNL1       -0.2300
     37  C         25.3960  -24.8180  -14.8600 C.2     1  UNL1        0.1220
     38  C         24.4960  -24.8340  -15.9010 C.2     1  UNL1        0.0460
     39  C         24.5280  -23.7440  -16.7500 C.2     1  UNL1        0.0350
     40  C         23.5720  -23.6550  -17.9010 C.3     1  UNL1        0.0700
     41  N         25.3910  -22.7210  -16.5770 N.2     1  UNL1       -0.2230
@<TRIPOS>BOND
     1    40    39    1
     2    39    41    2
     3    39    38    1
     4    41    35    1
     5    31    30    2
     6    38    37    2
     7    35    33    1
     8    35    36    2
     9    33    30    1
    10    33    34    1
    11    30    32    2
    12    30    27    1
    13    37    36    1
    14    28    27    2
    15    28    29    1
    16    27    26    1
    17    29    24    2
    18    26    25    2
    19    24    25    1
    20    24     1    1
    21     3     2    2
    22     1     2   am
    23     1     4    1
    24     2     5    1
    25    10     5    2
    26    10     9    1
    27     5     6    1
    28     9     8    2
    29     6     7    2
    30     8     7    1
    31     8    11    1
    32    12    11    2
    33    11    13    2
    34    11    14    1
    35    14    15    1
    36    14    20    1
    37    23    20    1
    38    23    22    2
    39    15    16    1
    40    20    18    2
    41    22    21    1
    42    16    17    1
    43    18    17    1
    44    18    19    1
    45    21    19    2
