@<TRIPOS>MOLECULE
699_out_ligand_01.pdbqt
 35 37 0 0 0
SMALL
GASTEIGER

@<TRIPOS>ATOM
      1  C         21.2950  -23.1230   -9.7530 C.3     1  UNL1        0.3450
      2  C         22.6290  -22.3380   -9.9620 C.2     1  UNL1        0.2600
      3  N         23.3080  -22.7570  -11.0890 N.am    1  UNL1       -0.3230
      4  H         22.8450  -23.5030  -11.6100 H       1  UNL1        0.1690
      5  O         22.9780  -21.4380   -9.2050 O.2     1  UNL1       -0.2700
      6  C         24.5080  -22.2820  -11.6510 C.2     1  UNL1        0.0690
      7  C         24.5500  -21.3500  -12.6900 C.2     1  UNL1        0.0390
      8  C         25.7750  -20.9240  -13.2210 C.2     1  UNL1       -0.0600
      9  C         26.9630  -21.4520  -12.7060 C.2     1  UNL1        0.0090
     10  C         25.7950  -19.9400  -14.3540 C.3     1  UNL1        0.0480
     11  C         26.9320  -22.3820  -11.6630 C.2     1  UNL1        0.0390
     12  C         25.7110  -22.8000  -11.1260 C.2     1  UNL1        0.0950
     13  O         25.5710  -23.7080  -10.1010 O.2     1  UNL1       -0.3540
     14  C         26.7450  -24.3930   -9.6810 C.3     1  UNL1        0.2100
     15  N         21.0580  -23.3400   -8.2960 N.3     1  UNL1        0.1050
     16  H         21.9520  -23.5650   -7.8550 H       1  UNL1        0.3170
     17  C         20.5100  -22.1460   -7.6510 C.3     1  UNL1        0.3090
     18  C         19.2930  -22.4920   -6.8200 C.2     1  UNL1       -0.0300
     19  C         18.8730  -21.6440   -5.7780 C.2     1  UNL1        0.0100
     20  C         17.7660  -21.9720   -4.9950 C.2     1  UNL1        0.0250
     21  C         17.0780  -23.1600   -5.2460 C.2     1  UNL1        0.0740
     22  C         17.4950  -24.0300   -6.2560 C.2     1  UNL1        0.0250
     23  C         18.5990  -23.6920   -7.0430 C.2     1  UNL1        0.0100
     24  S         15.6730  -23.5940   -4.2550 S.O2    1  UNL1        0.2390
     25  O         14.6020  -23.9880   -5.1390 O.2     1  UNL1       -0.2060
     26  O         16.1180  -24.4160   -3.1530 O.2     1  UNL1       -0.2060
     27  N         15.2330  -22.0980   -3.6210 N.3     1  UNL1       -0.2250
     28  H         15.1050  -21.4320   -4.3840 H       1  UNL1        0.1360
     29  H         15.8740  -21.7590   -2.9070 H       1  UNL1        0.1360
     30  C         20.1050  -22.4360  -10.4040 C.2     1  UNL1       -0.0160
     31  C         18.8150  -22.9890  -10.3330 C.2     1  UNL1        0.0100
     32  C         17.7390  -22.3690  -10.9710 C.2     1  UNL1        0.0010
     33  C         17.9390  -21.1930  -11.6910 C.2     1  UNL1        0.0000
     34  C         19.2120  -20.6310  -11.7680 C.2     1  UNL1        0.0010
     35  C         20.2900  -21.2480  -11.1310 C.2     1  UNL1        0.0100
@<TRIPOS>BOND
     1    10     8    1
     2     8     9    2
     3     8     7    1
     4     9    11    1
     5     7     6    2
     6    34    33    2
     7    34    35    1
     8    33    32    1
     9    11    12    2
    10     6    12    1
    11     6     3    1
    12     4     3    1
    13    35    30    2
    14    12    13    1
    15     3     2   am
    16    32    31    2
    17    30    31    1
    18    30     1    1
    19    13    14    1
    20     2     1    1
    21     2     5    2
    22     1    15    1
    23    15    16    1
    24    15    17    1
    25    17    18    1
    26    23    18    2
    27    23    22    1
    28    18    19    1
    29    22    21    2
    30    19    20    2
    31    21    20    1
    32    21    24    1
    33    25    24    2
    34    28    27    1
    35    24    27    1
    36    24    26    2
    37    27    29    1
