@<TRIPOS>MOLECULE
7000_out_ligand_01.pdbqt
 37 40 0 0 0
SMALL
GASTEIGER

@<TRIPOS>ATOM
      1  C         21.9490  -21.9770  -11.2500 C.2     1  UNL1        0.0980
      2  C         21.4120  -21.0050  -12.0070 C.2     1  UNL1        0.1090
      3  N         20.0850  -20.6630  -12.0370 N.pl3   1  UNL1       -0.3640
      4  C         19.1400  -21.3930  -11.3090 C.2     1  UNL1        0.0460
      5  C         17.7810  -21.0640  -11.3580 C.2     1  UNL1        0.0320
      6  C         16.8530  -21.7810  -10.5970 C.2     1  UNL1        0.0270
      7  C         17.2900  -22.8270   -9.7770 C.2     1  UNL1        0.0810
      8  C         18.6420  -23.1660   -9.7070 C.2     1  UNL1        0.0430
      9  C         19.5620  -22.4370  -10.4660 C.2     1  UNL1        0.0430
     10  C         21.0130  -22.7570  -10.3900 C.2     1  UNL1        0.2010
     11  O         21.4100  -23.6460   -9.6380 O.2     1  UNL1       -0.2860
     12  H         19.7710  -20.0070  -12.7460 H       1  UNL1        0.1650
     13  S         16.1170  -23.7480   -8.8150 S.O2    1  UNL1        0.2630
     14  O         16.8760  -24.5580   -7.8880 O.2     1  UNL1       -0.2000
     15  O         15.1470  -24.3460   -9.7080 O.2     1  UNL1       -0.2000
     16  N         15.3600  -22.5460   -7.8970 N.pl3   1  UNL1       -0.2810
     17  H         15.2460  -21.6930   -8.4450 H       1  UNL1        0.1790
     18  C         15.7420  -22.4140   -6.5340 C.2     1  UNL1        0.0430
     19  C         14.9120  -22.9230   -5.5370 C.2     1  UNL1        0.0300
     20  C         15.3010  -22.8410   -4.2010 C.2     1  UNL1        0.0030
     21  C         16.5240  -22.2590   -3.8670 C.2     1  UNL1        0.0160
     22  C         17.3740  -21.7510   -4.8660 C.2     1  UNL1        0.0500
     23  C         16.9680  -21.8320   -6.2070 C.2     1  UNL1        0.0460
     24  C         18.6950  -21.1310   -4.4850 C.3     1  UNL1        0.4170
     25  F         19.1070  -21.5010   -3.2410 F       1  UNL1       -0.1660
     26  F         19.7130  -21.4520   -5.3280 F       1  UNL1       -0.1660
     27  F         18.6360  -19.7710   -4.4680 F       1  UNL1       -0.1660
     28  C         23.4220  -22.1970  -11.3180 C.2     1  UNL1        0.2570
     29  O         24.2100  -21.4490  -10.7430 O.2     1  UNL1       -0.2670
     30  N         23.8150  -23.2840  -12.0580 N.am    1  UNL1       -0.3540
     31  H         23.0980  -23.8150  -12.5550 H       1  UNL1        0.1620
     32  C         25.2050  -23.6600  -12.2330 C.3     1  UNL1        0.1550
     33  C         25.6650  -23.4810  -13.6820 C.3     1  UNL1        0.1390
     34  C         25.2130  -24.6170  -14.5860 C.3     1  UNL1        0.0350
     35  C         25.1200  -23.9340  -15.9280 C.3     1  UNL1        0.0290
     36  C         24.5940  -22.5680  -15.5480 C.3     1  UNL1        0.1680
     37  O         25.1140  -22.2730  -14.2460 O.3     1  UNL1       -0.3840
@<TRIPOS>BOND
     1    35    36    1
     2    35    34    1
     3    36    37    1
     4    34    33    1
     5    37    33    1
     6    33    32    1
     7    12     3    1
     8    31    30    1
     9    32    30    1
    10    30    28   am
    11     3     2    1
    12     3     4    1
    13     2     1    2
    14     5     4    2
    15     5     6    1
    16    28     1    1
    17    28    29    2
    18     4     9    1
    19     1    10    1
    20     6     7    2
    21     9    10    1
    22     9     8    2
    23    10    11    2
    24     7     8    1
    25     7    13    1
    26    15    13    2
    27    13    16    1
    28    13    14    2
    29    17    16    1
    30    16    18    1
    31    18    23    2
    32    18    19    1
    33    23    22    1
    34    19    20    2
    35    26    24    1
    36    22    24    1
    37    22    21    2
    38    24    27    1
    39    24    25    1
    40    20    21    1
