@<TRIPOS>MOLECULE
70009_out_ligand_01.pdbqt
 40 44 0 0 0
SMALL
GASTEIGER

@<TRIPOS>ATOM
      1  C         18.9080  -20.9670  -11.2910 C.ar    1  UNL1        0.1960
      2  N         17.7960  -20.5770  -11.8670 N.ar    1  UNL1       -0.1220
      3  N         16.7770  -21.3270  -11.3620 N.ar    1  UNL1       -0.1320
      4  C         17.2760  -22.1800  -10.4860 C.ar    1  UNL1        0.1530
      5  N         18.6640  -22.0460  -10.4500 N.ar    1  UNL1       -0.2740
      6  C         16.4390  -23.1670   -9.7610 C.3     1  UNL1        0.2040
      7  N         16.2310  -22.7480   -8.3940 N.am    1  UNL1       -0.3500
      8  C         16.0380  -23.6910   -7.4080 C.2     1  UNL1        0.2520
      9  O         15.8470  -24.8810   -7.6220 O.2     1  UNL1       -0.2680
     10  H         16.6160  -21.8510   -8.1180 H       1  UNL1        0.1630
     11  C         16.1560  -23.1880   -6.0210 C.2     1  UNL1        0.0430
     12  C         15.1290  -23.5600   -5.1430 C.2     1  UNL1        0.0180
     13  C         15.1810  -23.1690   -3.8100 C.2     1  UNL1        0.0020
     14  C         16.2540  -22.4010   -3.3560 C.2     1  UNL1        0.0120
     15  C         17.2820  -21.9980   -4.2260 C.2     1  UNL1       -0.0250
     16  C         18.3420  -21.2060   -3.7530 C.2     1  UNL1        0.0120
     17  C         17.2430  -22.3840   -5.5890 C.2     1  UNL1       -0.0100
     18  C         19.3560  -20.7770   -4.6080 C.2     1  UNL1        0.0010
     19  C         19.3220  -21.1300   -5.9500 C.2     1  UNL1        0.0010
     20  C         18.2780  -21.9200   -6.4350 C.2     1  UNL1        0.0130
     21  C         19.6160  -22.8380   -9.7450 C.2     1  UNL1        0.0430
     22  C         20.6470  -22.2180   -9.0210 C.2     1  UNL1        0.0300
     23  C         21.5760  -22.9850   -8.3120 C.2     1  UNL1        0.0020
     24  C         21.4950  -24.3740   -8.3300 C.2     1  UNL1        0.0000
     25  C         20.4840  -24.9980   -9.0570 C.2     1  UNL1        0.0020
     26  C         19.5460  -24.2360   -9.7610 C.2     1  UNL1        0.0300
     27  S         20.4020  -20.0960  -11.4880 S.3     1  UNL1       -0.0800
     28  C         21.2030  -20.9580  -12.8710 C.3     1  UNL1        0.1850
     29  C         22.2900  -21.9160  -12.4120 C.2     1  UNL1        0.2310
     30  N         23.5470  -21.5610  -12.8850 N.am    1  UNL1       -0.3260
     31  H         23.6740  -20.6020  -13.1750 H       1  UNL1        0.1690
     32  O         22.0400  -22.8760  -11.6900 O.2     1  UNL1       -0.2720
     33  C         24.7020  -22.3780  -12.9070 C.2     1  UNL1        0.0410
     34  C         25.1670  -22.8770  -14.1410 C.2     1  UNL1       -0.0350
     35  C         26.2700  -23.7470  -14.1570 C.2     1  UNL1        0.0090
     36  C         24.5450  -22.4930  -15.4580 C.3     1  UNL1        0.0500
     37  C         26.9070  -24.1170  -12.9720 C.2     1  UNL1        0.0070
     38  C         26.4600  -23.6180  -11.7480 C.2     1  UNL1       -0.0600
     39  C         27.1200  -24.0450  -10.4700 C.3     1  UNL1        0.0480
     40  C         25.3510  -22.7610  -11.7250 C.2     1  UNL1        0.0370
@<TRIPOS>BOND
     1    36    34    1
     2    35    34    1
     3    35    37    2
     4    34    33    2
     5    31    30    1
     6    37    38    1
     7    33    30    1
     8    33    40    1
     9    30    29   am
    10    28    29    1
    11    28    27    1
    12    29    32    2
    13     2     3   ar
    14     2     1   ar
    15    38    40    2
    16    38    39    1
    17    27     1    1
    18     3     4   ar
    19     1     5   ar
    20     4     5   ar
    21     4     6    1
    22     5    21    1
    23    26    21    2
    24    26    25    1
    25     6     7    1
    26    21    22    1
    27    25    24    2
    28    22    23    2
    29     7    10    1
    30     7     8   am
    31    24    23    1
    32     9     8    2
    33     8    11    1
    34    20    19    2
    35    20    17    1
    36    11    17    2
    37    11    12    1
    38    19    18    1
    39    17    15    1
    40    12    13    2
    41    18    16    2
    42    15    16    1
    43    15    14    2
    44    13    14    1
