@<TRIPOS>MOLECULE
70015_out_ligand_01.pdbqt
 40 44 0 0 0
SMALL
GASTEIGER

@<TRIPOS>ATOM
      1  C         22.5460  -22.2450   -8.7050 C.ar    1  UNL1        0.1530
      2  N         23.7660  -22.7340   -8.5780 N.ar    1  UNL1       -0.1320
      3  N         24.2110  -23.1050   -9.8160 N.ar    1  UNL1       -0.1220
      4  C         23.2590  -22.8430  -10.6800 C.ar    1  UNL1        0.1960
      5  N         22.1470  -22.3310  -10.0320 N.ar    1  UNL1       -0.2740
      6  C         21.8100  -21.5580   -7.6110 C.3     1  UNL1        0.2040
      7  N         20.4930  -22.1550   -7.5120 N.am    1  UNL1       -0.3500
      8  C         19.6140  -21.7410   -6.5370 C.2     1  UNL1        0.2520
      9  O         19.8390  -20.7970   -5.7880 O.2     1  UNL1       -0.2680
     10  H         20.4140  -23.1030   -7.8600 H       1  UNL1        0.1630
     11  C         18.3520  -22.5160   -6.3970 C.2     1  UNL1        0.0340
     12  C         18.0600  -23.6160   -7.2140 C.2     1  UNL1        0.0180
     13  C         16.8480  -24.3010   -7.0720 C.2     1  UNL1        0.0100
     14  C         15.9010  -23.9020   -6.1160 C.2     1  UNL1       -0.0290
     15  C         14.6070  -24.6620   -6.0130 C.3     1  UNL1        0.0500
     16  C         16.2010  -22.7760   -5.3270 C.2     1  UNL1        0.1090
     17  C         17.4150  -22.0890   -5.4510 C.2     1  UNL1        0.0530
     18  N         15.2420  -22.2660   -4.3510 N.pl3   1  UNL1       -0.1150
     19  O         15.4920  -22.4690   -3.1560 O.2     1  UNL1       -0.5320
     20  O         14.2530  -21.6550   -4.7850 O.2     1  UNL1       -0.5320
     21  C         20.8730  -22.0220  -10.5760 C.2     1  UNL1        0.0430
     22  C         20.7160  -20.8790  -11.3730 C.2     1  UNL1        0.0330
     23  C         19.4580  -20.5600  -11.8890 C.2     1  UNL1        0.0440
     24  C         18.3720  -21.3840  -11.6120 C.2     1  UNL1        0.1160
     25  F         17.1680  -21.0750  -12.1110 F       1  UNL1       -0.2060
     26  C         18.5160  -22.5210  -10.8250 C.2     1  UNL1        0.0440
     27  C         19.7690  -22.8430  -10.2990 C.2     1  UNL1        0.0330
     28  S         23.3400  -23.2710  -12.3610 S.3     1  UNL1       -0.0800
     29  C         25.1030  -22.9600  -12.6830 C.3     1  UNL1        0.1850
     30  C         25.4030  -21.5130  -13.0250 C.2     1  UNL1        0.2340
     31  O         25.5840  -20.6610  -12.1470 O.2     1  UNL1       -0.2720
     32  N         25.4590  -21.1500  -14.3620 N.am    1  UNL1       -0.3170
     33  C         25.8900  -19.7850  -14.7050 C.2     1  UNL1        0.1370
     34  C         25.0710  -21.8060  -15.5460 C.2     1  UNL1        0.0430
     35  C         25.9980  -19.7000  -16.2230 C.2     1  UNL1        0.0610
     36  C         25.3530  -20.9820  -16.6440 C.2     1  UNL1       -0.0300
     37  C         25.0650  -21.3670  -17.9460 C.2     1  UNL1        0.0090
     38  C         24.4650  -22.6080  -18.1510 C.2     1  UNL1        0.0010
     39  C         24.1650  -23.4350  -17.0610 C.2     1  UNL1        0.0020
     40  C         24.4600  -23.0340  -15.7500 C.2     1  UNL1        0.0300
@<TRIPOS>BOND
     1    38    37    2
     2    38    39    1
     3    37    36    1
     4    39    40    2
     5    36    35    1
     6    36    34    2
     7    35    33    2
     8    40    34    1
     9    34    32    1
    10    33    32    1
    11    32    30   am
    12    30    29    1
    13    30    31    2
    14    29    28    1
    15    28     4    1
    16    25    24    1
    17    23    24    2
    18    23    22    1
    19    24    26    1
    20    22    21    2
    21    26    27    2
    22     4     5   ar
    23     4     3   ar
    24    21    27    1
    25    21     5    1
    26     5     1   ar
    27     3     2   ar
    28     1     2   ar
    29     1     6    1
    30    10     7    1
    31     6     7    1
    32     7     8   am
    33    12    13    1
    34    12    11    2
    35    13    14    2
    36     8    11    1
    37     8     9    2
    38    11    17    1
    39    14    15    1
    40    14    16    1
    41    17    16    2
    42    16    18    1
    43    20    18    2
    44    18    19    2
