@<TRIPOS>MOLECULE
7003_out_ligand_01.pdbqt
 31 34 0 0 0
SMALL
GASTEIGER

@<TRIPOS>ATOM
      1  C         19.6430  -22.1370  -10.5230 C.2     1  UNL1        0.0330
      2  C         19.6480  -21.5140  -11.7700 C.2     1  UNL1        0.0190
      3  C         20.8370  -21.4290  -12.5080 C.2     1  UNL1        0.0310
      4  C         22.0520  -21.9380  -12.0200 C.2     1  UNL1        0.0430
      5  C         22.0390  -22.5460  -10.7450 C.2     1  UNL1       -0.0300
      6  C         20.8400  -22.6430  -10.0120 C.2     1  UNL1        0.0260
      7  C         23.2780  -23.1410  -10.1300 C.3     1  UNL1        0.0420
      8  C         24.5260  -22.5430  -10.7420 C.3     1  UNL1        0.0250
      9  C         24.4250  -22.6290  -12.2530 C.3     1  UNL1        0.1330
     10  N         23.2760  -21.8820  -12.7870 N.am    1  UNL1       -0.3130
     11  C         23.3840  -21.1600  -13.9920 C.2     1  UNL1        0.2610
     12  O         22.6370  -20.2590  -14.3710 O.2     1  UNL1       -0.2670
     13  C         18.4030  -22.2650   -9.7050 C.2     1  UNL1        0.2560
     14  N         18.5890  -22.8210   -8.4510 N.am    1  UNL1       -0.3220
     15  H         19.5490  -22.9700   -8.1760 H       1  UNL1        0.1690
     16  O         17.3550  -21.8420  -10.1790 O.2     1  UNL1       -0.2670
     17  C         17.6050  -23.1140   -7.4720 C.2     1  UNL1        0.0420
     18  C         16.5430  -23.9900   -7.7360 C.2     1  UNL1        0.0300
     19  C         15.5860  -24.2770   -6.7630 C.2     1  UNL1        0.0040
     20  C         15.6800  -23.6950   -5.5070 C.2     1  UNL1        0.0240
     21  C         16.7330  -22.8240   -5.2180 C.2     1  UNL1        0.0420
     22  C         17.7120  -22.5180   -6.1870 C.2     1  UNL1       -0.0130
     23 CL         16.7600  -22.1560   -3.6210 Cl      1  UNL1       -0.0840
     24  C         18.8520  -21.5770   -5.8780 C.3     1  UNL1        0.0520
     25  C         24.5160  -21.4460  -14.8970 C.2     1  UNL1        0.0710
     26  C         24.4450  -22.5570  -15.7460 C.2     1  UNL1        0.0200
     27  C         25.5200  -22.8590  -16.5840 C.2     1  UNL1        0.0010
     28  C         26.6690  -22.0650  -16.5630 C.2     1  UNL1        0.0030
     29  C         26.7480  -20.9720  -15.6980 C.2     1  UNL1        0.0430
     30  C         25.6750  -20.6720  -14.8620 C.2     1  UNL1        0.1320
     31  F         25.7810  -19.6280  -14.0290 F       1  UNL1       -0.2050
@<TRIPOS>BOND
     1    27    28    2
     2    27    26    1
     3    28    29    1
     4    26    25    2
     5    29    30    2
     6    25    30    1
     7    25    11    1
     8    30    31    1
     9    12    11    2
    10    11    10   am
    11    10     9    1
    12    10     4    1
    13     3     4    2
    14     3     2    1
    15     9     8    1
    16     4     5    1
    17     2     1    2
    18     5     7    1
    19     5     6    2
    20     8     7    1
    21     1     6    1
    22     1    13    1
    23    16    13    2
    24    13    14   am
    25    14    15    1
    26    14    17    1
    27    18    17    2
    28    18    19    1
    29    17    22    1
    30    19    20    2
    31    22    24    1
    32    22    21    2
    33    20    21    1
    34    21    23    1
