@<TRIPOS>MOLECULE
70040_out_ligand_01.pdbqt
 39 43 0 0 0
SMALL
GASTEIGER

@<TRIPOS>ATOM
      1  O         19.9120  -20.9460  -12.0890 O.2     1  UNL1       -0.2670
      2  C         20.3790  -21.7720  -11.3140 C.2     1  UNL1        0.2560
      3  N         21.7040  -22.1560  -11.2080 N.am    1  UNL1       -0.3230
      4  H         21.9480  -22.7620  -10.4370 H       1  UNL1        0.1690
      5  C         19.4540  -22.4220  -10.3410 C.2     1  UNL1        0.0320
      6  C         18.0800  -22.1330  -10.3200 C.2     1  UNL1        0.0180
      7  C         17.2500  -22.7620   -9.3900 C.2     1  UNL1        0.0260
      8  C         17.7970  -23.6740   -8.4800 C.2     1  UNL1        0.0750
      9  C         19.1670  -23.9480   -8.4730 C.2     1  UNL1        0.0260
     10  C         19.9930  -23.3180   -9.4060 C.2     1  UNL1        0.0180
     11  S         16.7180  -24.4510   -7.2860 S.O2    1  UNL1        0.2480
     12  O         17.5780  -25.3150   -6.5050 O.2     1  UNL1       -0.2050
     13  O         15.5800  -24.9820   -8.0070 O.2     1  UNL1       -0.2050
     14  N         16.1700  -23.0860   -6.3450 N.pl3   1  UNL1       -0.1720
     15  C         14.9720  -23.4420   -5.5150 C.3     1  UNL1        0.1140
     16  C         14.6390  -22.3570   -4.5080 C.3     1  UNL1        0.0200
     17  C         15.8090  -22.2060   -3.5550 C.3     1  UNL1        0.0420
     18  C         17.0650  -21.9090   -4.3260 C.2     1  UNL1       -0.0360
     19  C         18.0860  -21.1860   -3.6800 C.2     1  UNL1        0.0090
     20  C         17.2340  -22.3470   -5.6550 C.2     1  UNL1        0.0310
     21  C         19.2420  -20.8270   -4.3650 C.2     1  UNL1        0.0010
     22  C         19.3790  -21.1760   -5.7030 C.2     1  UNL1        0.0020
     23  C         18.3760  -21.9120   -6.3420 C.2     1  UNL1        0.0250
     24  C         22.7830  -21.7300  -12.0110 C.2     1  UNL1        0.0350
     25  C         24.1040  -21.6340  -11.5610 C.2     1  UNL1        0.0310
     26  C         25.1190  -21.1950  -12.4180 C.2     1  UNL1        0.0270
     27  C         24.8090  -20.8390  -13.7320 C.2     1  UNL1        0.0750
     28  C         23.4990  -20.9400  -14.2020 C.2     1  UNL1        0.0270
     29  C         22.4910  -21.3800  -13.3380 C.2     1  UNL1        0.0310
     30  S         26.1030  -20.2940  -14.8240 S.O2    1  UNL1        0.2470
     31  O         26.8770  -19.3010  -14.1090 O.2     1  UNL1       -0.2050
     32  O         25.5030  -19.9990  -16.1060 O.2     1  UNL1       -0.2050
     33  N         27.0570  -21.6820  -14.8810 N.pl3   1  UNL1       -0.1590
     34  H         27.6930  -21.5920  -15.6720 H       1  UNL1        0.1480
     35  C         26.2900  -22.8980  -15.0470 C.2     1  UNL1        0.1580
     36  N         25.5800  -23.0410  -16.1380 N.2     1  UNL1       -0.2400
     37  C         24.9960  -24.2950  -16.1320 C.2     1  UNL1        0.1260
     38  C         25.3180  -25.0980  -15.0570 C.2     1  UNL1        0.0720
     39  S         26.3990  -24.2600  -14.0210 S.3     1  UNL1       -0.0680
@<TRIPOS>BOND
     1    36    37    1
     2    36    35    2
     3    37    38    2
     4    32    30    2
     5    34    33    1
     6    38    39    1
     7    35    33    1
     8    35    39    1
     9    33    30    1
    10    30    31    2
    11    30    27    1
    12    28    27    2
    13    28    29    1
    14    27    26    1
    15    29    24    2
    16    26    25    2
    17     1     2    2
    18    24    25    1
    19    24     3    1
    20     2     3   am
    21     2     5    1
    22     3     4    1
    23     5     6    2
    24     5    10    1
    25     6     7    1
    26    10     9    2
    27     7     8    2
    28     8     9    1
    29     8    11    1
    30    13    11    2
    31    11    12    2
    32    11    14    1
    33    14    20    1
    34    14    15    1
    35    23    22    2
    36    23    20    1
    37    22    21    1
    38    20    18    2
    39    15    16    1
    40    16    17    1
    41    21    19    2
    42    18    19    1
    43    18    17    1
