@<TRIPOS>MOLECULE
70053_out_ligand_01.pdbqt
 37 41 0 0 0
SMALL
GASTEIGER

@<TRIPOS>ATOM
      1  C         23.5060  -22.6600   -9.7280 C.3     1  UNL1        0.1620
      2  C         23.1510  -22.9940  -11.1980 C.3     1  UNL1        0.1620
      3  N         24.2260  -22.6420  -12.1430 N.am    1  UNL1       -0.3260
      4  C         23.9500  -21.7410  -13.1520 C.2     1  UNL1        0.3190
      5  O         22.8040  -21.3800  -13.4080 O.2     1  UNL1       -0.2470
      6  N         25.0500  -21.2450  -13.8030 N.am    1  UNL1       -0.3380
      7  H         25.7800  -21.0400  -13.1340 H       1  UNL1        0.1640
      8  C         24.9010  -20.2440  -14.8570 C.3     1  UNL1        0.0860
      9  C         25.9670  -19.1470  -14.6770 C.3     1  UNL1        0.0250
     10  C         26.3280  -18.4780  -15.9940 C.3     1  UNL1        0.0020
     11  C         26.9370  -19.4800  -16.9770 C.3     1  UNL1        0.0000
     12  C         26.3640  -20.8920  -16.8360 C.3     1  UNL1        0.0020
     13  C         24.9510  -20.8850  -16.2590 C.3     1  UNL1        0.0250
     14  C         25.5360  -23.2690  -11.9560 C.3     1  UNL1        0.1920
     15  C         25.9940  -23.9080  -13.2160 C.2     1  UNL1        0.0700
     16  C         27.1210  -23.7570  -13.9960 C.2     1  UNL1        0.0360
     17  C         26.9770  -24.6480  -15.0850 C.2     1  UNL1        0.0270
     18  C         25.7790  -25.2960  -14.8940 C.2     1  UNL1        0.1420
     19  O         25.1890  -24.8720  -13.7490 O.2     1  UNL1       -0.3250
     20  O         23.7430  -21.2580   -9.5310 O.3     1  UNL1       -0.3920
     21  H         24.7060  -21.0920   -9.6060 H       1  UNL1        0.2100
     22  C         22.3720  -23.0680   -8.7860 C.3     1  UNL1        0.2370
     23  O         21.4500  -23.9270   -9.4600 O.2     1  UNL1       -0.2530
     24  N         20.3990  -24.2080   -8.5830 N.2     1  UNL1       -0.1320
     25  C         19.3080  -23.5760   -8.8740 C.2     1  UNL1        0.1060
     26  C         18.9580  -22.6460   -9.9780 C.2     1  UNL1        0.0070
     27  C         18.0960  -23.7000   -8.0320 C.2     1  UNL1        0.0070
     28  C         19.6850  -22.2150  -11.0730 C.2     1  UNL1        0.0150
     29  C         17.6290  -22.2300   -9.7630 C.2     1  UNL1       -0.0120
     30  C         19.0720  -21.3250  -11.9600 C.2     1  UNL1        0.0010
     31  C         17.7540  -20.8900  -11.7420 C.2     1  UNL1        0.0010
     32  C         17.0210  -21.3470  -10.6430 C.2     1  UNL1        0.0130
     33  C         17.1050  -22.8760   -8.5800 C.2     1  UNL1       -0.0120
     34  C         15.8600  -22.8070   -7.9750 C.2     1  UNL1        0.0130
     35  C         15.6370  -23.5720   -6.8220 C.2     1  UNL1        0.0010
     36  C         16.6470  -24.3920   -6.2860 C.2     1  UNL1        0.0010
     37  C         17.9010  -24.4610   -6.8930 C.2     1  UNL1        0.0150
@<TRIPOS>BOND
     1    11    12    1
     2    11    10    1
     3    12    13    1
     4    13     8    1
     5    10     9    1
     6    17    18    2
     7    17    16    1
     8    18    19    1
     9     8     9    1
    10     8     6    1
    11    16    15    2
    12     6     4   am
    13     6     7    1
    14    19    15    1
    15     5     4    2
    16    15    14    1
    17     4     3   am
    18     3    14    1
    19     3     2    1
    20    30    31    2
    21    30    28    1
    22    31    32    1
    23     2     1    1
    24    28    26    2
    25    32    29    2
    26    26    29    1
    27    26    25    1
    28    29    33    1
    29     1    20    1
    30     1    22    1
    31    21    20    1
    32    23    22    1
    33    23    24    1
    34    25    24    2
    35    25    27    1
    36    33    27    2
    37    33    34    1
    38    27    37    1
    39    34    35    2
    40    37    36    2
    41    35    36    1
