@<TRIPOS>MOLECULE
70061_out_ligand_01.pdbqt
 35 39 0 0 0
SMALL
GASTEIGER

@<TRIPOS>ATOM
      1  C         19.6360  -22.4910  -10.3240 C.2     1  UNL1        0.0320
      2  C         18.2830  -22.1210  -10.3270 C.2     1  UNL1        0.0180
      3  C         17.3960  -22.6840   -9.4060 C.2     1  UNL1        0.0260
      4  C         17.8760  -23.6040   -8.4700 C.2     1  UNL1        0.0800
      5  C         19.2260  -23.9760   -8.4520 C.2     1  UNL1        0.0260
      6  C         20.1090  -23.4130   -9.3780 C.2     1  UNL1        0.0180
      7  C         20.5440  -21.8580  -11.3220 C.2     1  UNL1        0.2570
      8  N         21.8090  -22.3930  -11.3630 N.am    1  UNL1       -0.3010
      9  H         22.0340  -23.2160  -10.8240 H       1  UNL1        0.1710
     10  O         20.0880  -20.9580  -12.0180 O.2     1  UNL1       -0.2670
     11  C         22.8510  -21.9950  -12.1620 C.ar    1  UNL1        0.1740
     12  S         22.6410  -21.2420  -13.6670 S.2     1  UNL1       -0.0500
     13  C         24.3490  -21.1400  -13.8610 C.ar    1  UNL1        0.0400
     14  C         25.0800  -20.6090  -14.9330 C.2     1  UNL1        0.0210
     15  C         24.9670  -21.6910  -12.7360 C.ar    1  UNL1        0.1100
     16  C         26.4730  -20.6490  -14.8610 C.2     1  UNL1        0.0040
     17  C         27.1180  -21.1930  -13.7520 C.2     1  UNL1        0.0390
     18  C         26.3850  -21.7090  -12.6710 C.2     1  UNL1        0.0990
     19  N         24.0870  -22.1690  -11.7680 N.ar    1  UNL1       -0.2200
     20  O         26.9640  -22.2720  -11.5600 O.2     1  UNL1       -0.3490
     21  C         27.1190  -23.6910  -11.5790 C.3     1  UNL1        0.1710
     22  C         26.9680  -24.1960  -10.1560 C.3     1  UNL1        0.0340
     23  S         16.7690  -24.3370   -7.2770 S.O2    1  UNL1        0.2650
     24  O         17.6190  -25.1090   -6.3940 O.2     1  UNL1       -0.2000
     25  O         15.6910  -24.9650   -8.0120 O.2     1  UNL1       -0.2000
     26  N         16.1450  -22.9430   -6.4670 N.pl3   1  UNL1       -0.2710
     27  C         14.7670  -23.0920   -5.9150 C.3     1  UNL1        0.1420
     28  C         14.7990  -23.6350   -4.4950 C.3     1  UNL1        0.0260
     29  C         15.5640  -22.6870   -3.5860 C.3     1  UNL1        0.0420
     30  C         16.8420  -22.1860   -4.2050 C.2     1  UNL1       -0.0310
     31  C         17.7760  -21.5390   -3.3790 C.2     1  UNL1        0.0090
     32  C         17.0840  -22.2740   -5.5860 C.2     1  UNL1        0.0510
     33  C         18.9390  -20.9880   -3.9170 C.2     1  UNL1        0.0010
     34  C         19.1680  -21.0590   -5.2860 C.2     1  UNL1        0.0020
     35  C         18.2420  -21.6920   -6.1160 C.2     1  UNL1        0.0310
@<TRIPOS>BOND
     1    14    16    1
     2    14    13    2
     3    16    17    2
     4    13    12   ar
     5    13    15   ar
     6    17    18    1
     7    12    11   ar
     8    15    18    2
     9    15    19   ar
    10    18    20    1
    11    11    19   ar
    12    11     8    1
    13    10     7    2
    14    21    20    1
    15    21    22    1
    16     8     7   am
    17     8     9    1
    18     7     1    1
    19     2     1    2
    20     2     3    1
    21     1     6    1
    22     3     4    2
    23     6     5    2
    24     4     5    1
    25     4    23    1
    26    25    23    2
    27    23    26    1
    28    23    24    2
    29    26    27    1
    30    26    32    1
    31    35    32    1
    32    35    34    2
    33    27    28    1
    34    32    30    2
    35    34    33    1
    36    28    29    1
    37    30    29    1
    38    30    31    1
    39    33    31    2
