@<TRIPOS>MOLECULE
7009_out_ligand_01.pdbqt
 29 32 0 0 0
SMALL
GASTEIGER

@<TRIPOS>ATOM
      1  C         20.5080  -21.9840  -10.6080 C.2     1  UNL1        0.0320
      2  C         19.4300  -21.6580  -11.4430 C.2     1  UNL1        0.0180
      3  C         18.1200  -21.8470  -10.9950 C.2     1  UNL1        0.0190
      4  C         17.8790  -22.3450   -9.7080 C.2     1  UNL1        0.0450
      5  C         18.9520  -22.6450   -8.8590 C.2     1  UNL1       -0.0380
      6  C         20.2660  -22.4700   -9.3150 C.2     1  UNL1        0.0250
      7  C         18.6640  -23.1880   -7.4890 C.3     1  UNL1        0.0770
      8  C         17.3450  -22.5880   -6.9990 C.3     1  UNL1        0.1690
      9  O         16.3010  -22.8840   -7.9560 O.3     1  UNL1       -0.3070
     10  C         16.4790  -22.5780   -9.2650 C.2     1  UNL1        0.2940
     11  O         15.5480  -22.5230  -10.0570 O.2     1  UNL1       -0.2590
     12  C         21.9230  -21.8000  -11.0420 C.2     1  UNL1        0.2560
     13  N         22.1770  -22.1390  -12.3580 N.am    1  UNL1       -0.3230
     14  H         21.4260  -22.5760  -12.8760 H       1  UNL1        0.1690
     15  O         22.7300  -21.4080  -10.2080 O.2     1  UNL1       -0.2670
     16  C         23.4010  -22.0300  -13.0500 C.2     1  UNL1        0.0350
     17  C         23.4870  -21.0530  -14.0450 C.2     1  UNL1        0.0300
     18  C         24.6670  -20.8780  -14.7730 C.2     1  UNL1        0.0090
     19  C         25.7910  -21.6740  -14.5190 C.2     1  UNL1       -0.0560
     20  C         27.0450  -21.4600  -15.3200 C.3     1  UNL1        0.0490
     21  C         25.7170  -22.6600  -13.5160 C.2     1  UNL1       -0.0540
     22  C         24.5210  -22.8230  -12.7910 C.2     1  UNL1        0.0370
     23  C         26.8930  -23.5430  -13.1970 C.3     1  UNL1        0.0490
     24  C         16.8620  -23.0570   -5.6360 C.2     1  UNL1       -0.0290
     25  C         15.5370  -23.5140   -5.5140 C.2     1  UNL1        0.0100
     26  C         15.0290  -23.9420   -4.2860 C.2     1  UNL1        0.0010
     27  C         15.8360  -23.9160   -3.1530 C.2     1  UNL1        0.0000
     28  C         17.1500  -23.4640   -3.2510 C.2     1  UNL1        0.0010
     29  C         17.6600  -23.0360   -4.4810 C.2     1  UNL1        0.0100
@<TRIPOS>BOND
     1    20    19    1
     2    18    19    2
     3    18    17    1
     4    19    21    1
     5    17    16    2
     6    21    23    1
     7    21    22    2
     8    16    22    1
     9    16    13    1
    10    14    13    1
    11    13    12   am
    12     2     3    1
    13     2     1    2
    14    12     1    1
    15    12    15    2
    16     3     4    2
    17     1     6    1
    18    11    10    2
    19     4    10    1
    20     4     5    1
    21     6     5    2
    22    10     9    1
    23     5     7    1
    24     9     8    1
    25     7     8    1
    26     8    24    1
    27    24    25    2
    28    24    29    1
    29    25    26    1
    30    29    28    2
    31    26    27    2
    32    28    27    1
