@<TRIPOS>MOLECULE
70101_out_ligand_01.pdbqt
 44 49 0 0 0
SMALL
GASTEIGER

@<TRIPOS>ATOM
      1  N         22.1160  -22.5650  -11.1770 N.am    1  UNL1       -0.3160
      2  C         21.0330  -21.7470  -10.9350 C.2     1  UNL1        0.2560
      3  O         20.8800  -20.6100  -11.3710 O.2     1  UNL1       -0.2670
      4  H         22.0150  -23.5660  -11.0780 H       1  UNL1        0.1690
      5  C         23.2440  -22.1600  -11.8600 C.ar    1  UNL1        0.0930
      6  C         24.6060  -22.2180  -11.6350 C.ar    1  UNL1        0.0670
      7  C         25.3140  -21.4990  -12.6670 C.ar    1  UNL1       -0.0240
      8  C         24.4680  -21.0360  -13.6560 C.ar    1  UNL1        0.0200
      9  C         26.7960  -21.2960  -12.7850 C.3     1  UNL1        0.0710
     10  S         22.8450  -21.4210  -13.3470 S.2     1  UNL1       -0.0730
     11  C         24.9000  -20.2700  -14.8770 C.3     1  UNL1        0.3190
     12  N         26.3640  -20.3450  -15.1170 N.3     1  UNL1        0.0970
     13  C         27.1140  -20.2160  -13.8470 C.3     1  UNL1        0.2780
     14  C         25.2510  -22.9550  -10.5630 C.2     1  UNL1        0.2320
     15  N         24.4250  -23.2870   -9.5250 N.am    1  UNL1       -0.2680
     16  H         24.8310  -23.9920   -8.9240 H       1  UNL1        0.1270
     17  H         23.4590  -23.4550   -9.7720 H       1  UNL1        0.1270
     18  O         26.4450  -23.2330  -10.5550 O.2     1  UNL1       -0.2740
     19  C         26.7400  -21.5720  -15.8440 C.3     1  UNL1        0.3110
     20  C         25.5620  -22.3110  -16.4500 C.2     1  UNL1       -0.0300
     21  C         24.8890  -21.8140  -17.5780 C.2     1  UNL1        0.0090
     22  C         23.8350  -22.5250  -18.1530 C.2     1  UNL1        0.0010
     23  C         23.4520  -23.7550  -17.6190 C.2     1  UNL1        0.0000
     24  C         24.1210  -24.2680  -16.5090 C.2     1  UNL1        0.0010
     25  C         25.1720  -23.5550  -15.9310 C.2     1  UNL1        0.0090
     26  C         19.9190  -22.3650  -10.1490 C.2     1  UNL1        0.0320
     27  C         20.2510  -23.3090   -9.1660 C.2     1  UNL1        0.0180
     28  C         19.2560  -23.9080   -8.3900 C.2     1  UNL1        0.0260
     29  C         17.9170  -23.5780   -8.6120 C.2     1  UNL1        0.0800
     30  C         17.5700  -22.6280   -9.5780 C.2     1  UNL1        0.0260
     31  C         18.5700  -22.0340  -10.3570 C.2     1  UNL1        0.0180
     32  S         16.6500  -24.3120   -7.5810 S.O2    1  UNL1        0.2650
     33  O         17.3210  -25.2550   -6.7070 O.2     1  UNL1       -0.2000
     34  O         15.6010  -24.7720   -8.4670 O.2     1  UNL1       -0.2000
     35  N         16.1020  -22.9820   -6.6200 N.pl3   1  UNL1       -0.2710
     36  C         14.7370  -23.2000   -6.0590 C.3     1  UNL1        0.1420
     37  C         14.4000  -22.2150   -4.9540 C.3     1  UNL1        0.0260
     38  C         15.4540  -22.3180   -3.8650 C.3     1  UNL1        0.0420
     39  C         16.8010  -21.9990   -4.4520 C.2     1  UNL1       -0.0310
     40  C         17.7760  -21.3900   -3.6430 C.2     1  UNL1        0.0090
     41  C         17.0850  -22.2940   -5.7990 C.2     1  UNL1        0.0510
     42  C         19.0070  -21.0250   -4.1760 C.2     1  UNL1        0.0010
     43  C         19.2620  -21.2380   -5.5260 C.2     1  UNL1        0.0020
     44  C         18.3000  -21.8490   -6.3350 C.2     1  UNL1        0.0310
@<TRIPOS>BOND
     1    22    23    2
     2    22    21    1
     3    23    24    1
     4    21    20    2
     5    24    25    2
     6    20    25    1
     7    20    19    1
     8    19    12    1
     9    12    11    1
    10    12    13    1
    11    11     8    1
    12    13     9    1
    13     8    10   ar
    14     8     7   ar
    15    10     5   ar
    16     9     7    1
    17     7     6   ar
    18     5     6   ar
    19     5     1    1
    20     6    14    1
    21     3     2    2
    22     1     4    1
    23     1     2   am
    24     2    26    1
    25    14    18    2
    26    14    15   am
    27    31    26    2
    28    31    30    1
    29    26    27    1
    30    17    15    1
    31    30    29    2
    32    15    16    1
    33    27    28    2
    34    29    28    1
    35    29    32    1
    36    34    32    2
    37    32    33    2
    38    32    35    1
    39    35    36    1
    40    35    41    1
    41    44    41    1
    42    44    43    2
    43    36    37    1
    44    41    39    2
    45    43    42    1
    46    37    38    1
    47    39    38    1
    48    39    40    1
    49    42    40    2
