@<TRIPOS>MOLECULE
70112_out_ligand_01.pdbqt
 32 36 0 0 0
SMALL
GASTEIGER

@<TRIPOS>ATOM
      1  C         21.3430  -22.2300  -11.2490 C.2     1  UNL1        0.0320
      2  C         20.2700  -21.3790  -11.5510 C.2     1  UNL1        0.0180
      3  C         19.0490  -21.5330  -10.8890 C.2     1  UNL1        0.0260
      4  C         18.9050  -22.5450   -9.9320 C.2     1  UNL1        0.0800
      5  C         19.9570  -23.4180   -9.6460 C.2     1  UNL1        0.0260
      6  C         21.1770  -23.2570  -10.3070 C.2     1  UNL1        0.0180
      7  C         22.6650  -22.1050  -11.9320 C.2     1  UNL1        0.2560
      8  O         23.6740  -22.3510  -11.2850 O.2     1  UNL1       -0.2670
      9  N         22.6080  -21.6720  -13.2450 N.am    1  UNL1       -0.3230
     10  H         21.7050  -21.3770  -13.5930 H       1  UNL1        0.1690
     11  C         23.6890  -21.5030  -14.1380 C.2     1  UNL1        0.0370
     12  C         24.3670  -20.2810  -14.0880 C.2     1  UNL1        0.0310
     13  C         25.4500  -20.0060  -14.9330 C.2     1  UNL1        0.0230
     14  C         25.8440  -20.9950  -15.8430 C.2     1  UNL1        0.0350
     15  S         27.1210  -20.9610  -17.0010 S.3     1  UNL1       -0.0810
     16  C         25.1880  -22.2250  -15.9230 C.2     1  UNL1        0.0760
     17  C         26.7010  -22.5430  -17.4960 C.2     1  UNL1        0.1670
     18  N         25.6880  -23.1010  -16.8750 N.2     1  UNL1       -0.2530
     19  C         24.0990  -22.4750  -15.0580 C.2     1  UNL1        0.0620
     20  S         17.3300  -22.7300   -9.1100 S.O2    1  UNL1        0.2650
     21  O         16.5320  -23.6480   -9.8970 O.2     1  UNL1       -0.2000
     22  O         16.8750  -21.3800   -8.8460 O.2     1  UNL1       -0.2000
     23  N         17.7910  -23.5200   -7.6430 N.pl3   1  UNL1       -0.2710
     24  C         16.9430  -24.6850   -7.2560 C.3     1  UNL1        0.1420
     25  C         15.7710  -24.2500   -6.3930 C.3     1  UNL1        0.0260
     26  C         16.2710  -23.5950   -5.1160 C.3     1  UNL1        0.0420
     27  C         17.3990  -22.6280   -5.3560 C.2     1  UNL1       -0.0310
     28  C         17.7620  -21.7510   -4.3190 C.2     1  UNL1        0.0090
     29  C         18.1420  -22.6330   -6.5490 C.2     1  UNL1        0.0510
     30  C         18.8480  -20.8900   -4.4650 C.2     1  UNL1        0.0010
     31  C         19.5940  -20.9100   -5.6370 C.2     1  UNL1        0.0020
     32  C         19.2470  -21.7830   -6.6710 C.2     1  UNL1        0.0310
@<TRIPOS>BOND
     1    17    15    1
     2    17    18    2
     3    15    14    1
     4    18    16    1
     5    16    14    2
     6    16    19    1
     7    14    13    1
     8    19    11    2
     9    13    12    2
    10    11    12    1
    11    11     9    1
    12    10     9    1
    13     9     7   am
    14     7     8    2
    15     7     1    1
    16     2     1    2
    17     2     3    1
    18     1     6    1
    19     3     4    2
    20     6     5    2
    21     4     5    1
    22     4    20    1
    23    21    20    2
    24    20    22    2
    25    20    23    1
    26    23    24    1
    27    23    29    1
    28    24    25    1
    29    32    29    1
    30    32    31    2
    31    29    27    2
    32    25    26    1
    33    31    30    1
    34    27    26    1
    35    27    28    1
    36    30    28    2
