@<TRIPOS>MOLECULE
70159_out_ligand_01.pdbqt
 35 40 0 0 0
SMALL
GASTEIGER

@<TRIPOS>ATOM
      1  C         22.3380  -21.9530  -12.1530 C.2     1  UNL1        0.0320
      2  C         22.4590  -21.2690  -13.3730 C.2     1  UNL1        0.0180
      3  C         23.5900  -21.4450  -14.1750 C.2     1  UNL1        0.0260
      4  C         24.6010  -22.3080  -13.7500 C.2     1  UNL1        0.0750
      5  C         24.4810  -23.0180  -12.5500 C.2     1  UNL1        0.0260
      6  C         23.3460  -22.8420  -11.7530 C.2     1  UNL1        0.0180
      7  C         21.1070  -21.7260  -11.3380 C.2     1  UNL1        0.2570
      8  O         20.5380  -20.6470  -11.4460 O.2     1  UNL1       -0.2670
      9  N         20.7660  -22.7670  -10.5050 N.am    1  UNL1       -0.3010
     10  H         21.3550  -23.5770  -10.4020 H       1  UNL1        0.1710
     11  C         19.6580  -22.7280   -9.7020 C.ar    1  UNL1        0.1740
     12  N         19.5720  -22.5330   -8.4160 N.ar    1  UNL1       -0.2220
     13  C         18.2380  -22.5710   -8.0210 C.ar    1  UNL1        0.0880
     14  C         17.3280  -22.7990   -9.0570 C.ar    1  UNL1        0.0380
     15  C         17.7350  -22.4050   -6.6980 C.2     1  UNL1        0.0040
     16  C         15.9440  -22.8660   -8.8370 C.2     1  UNL1        0.0220
     17  S         18.1950  -22.9630  -10.5400 S.2     1  UNL1       -0.0500
     18  C         15.4690  -22.6990   -7.5310 C.2     1  UNL1        0.0140
     19  C         16.3410  -22.4710   -6.4600 C.2     1  UNL1       -0.0240
     20  C         15.8730  -22.3030   -5.1470 C.2     1  UNL1        0.0120
     21  C         16.7640  -22.0750   -4.0950 C.2     1  UNL1        0.0010
     22  C         18.1350  -22.0110   -4.3350 C.2     1  UNL1        0.0010
     23  C         18.6240  -22.1750   -5.6310 C.2     1  UNL1        0.0140
     24  S         26.0490  -22.5630  -14.7600 S.O2    1  UNL1        0.2480
     25  O         25.6270  -22.5570  -16.1460 O.2     1  UNL1       -0.2050
     26  O         26.7440  -23.7000  -14.1930 O.2     1  UNL1       -0.2050
     27  N         26.9280  -21.1350  -14.4560 N.pl3   1  UNL1       -0.1710
     28  C         26.8030  -20.5690  -13.0680 C.3     1  UNL1        0.1180
     29  C         27.0250  -19.0540  -13.1990 C.3     1  UNL1        0.0560
     30  C         26.7620  -18.8240  -14.6500 C.2     1  UNL1       -0.0350
     31  C         26.6430  -17.6070  -15.3030 C.2     1  UNL1        0.0090
     32  C         26.7090  -20.0300  -15.3490 C.2     1  UNL1        0.0310
     33  C         26.4780  -17.6130  -16.6880 C.2     1  UNL1        0.0010
     34  C         26.4610  -18.8230  -17.3970 C.2     1  UNL1        0.0020
     35  C         26.5950  -20.0430  -16.7270 C.2     1  UNL1        0.0250
@<TRIPOS>BOND
     1    34    35    2
     2    34    33    1
     3    35    32    1
     4    33    31    2
     5    25    24    2
     6    32    30    2
     7    32    27    1
     8    31    30    1
     9    24    27    1
    10    24    26    2
    11    24     4    1
    12    30    29    1
    13    27    28    1
    14     3     4    2
    15     3     2    1
    16     4     5    1
    17     2     1    2
    18    29    28    1
    19     5     6    2
    20     1     6    1
    21     1     7    1
    22     8     7    2
    23     7     9   am
    24    17    11   ar
    25    17    14   ar
    26     9    10    1
    27     9    11    1
    28    11    12   ar
    29    14    16    1
    30    14    13   ar
    31    16    18    2
    32    12    13   ar
    33    13    15    1
    34    18    19    1
    35    15    19    2
    36    15    23    1
    37    19    20    1
    38    23    22    2
    39    20    21    2
    40    22    21    1
