@<TRIPOS>MOLECULE
70153_out_ligand_01.pdbqt
 44 49 0 0 0
SMALL
GASTEIGER

@<TRIPOS>ATOM
      1  N         23.3430  -23.0200  -10.2880 N.ar    1  UNL1       -0.2740
      2  C         22.7730  -23.6940   -9.2140 C.ar    1  UNL1        0.1530
      3  N         23.7260  -24.1330   -8.4110 N.ar    1  UNL1       -0.1320
      4  N         24.9310  -23.8440   -8.9840 N.ar    1  UNL1       -0.1220
      5  C         24.7020  -23.2250  -10.1180 C.ar    1  UNL1        0.1960
      6  C         21.3270  -24.0210   -9.0730 C.3     1  UNL1        0.2040
      7  N         20.8290  -23.3930   -7.8690 N.am    1  UNL1       -0.3500
      8  C         19.7400  -22.5520   -7.9260 C.2     1  UNL1        0.2530
      9  O         19.2190  -22.1650   -8.9660 O.2     1  UNL1       -0.2680
     10  H         21.0290  -23.8660   -6.9930 H       1  UNL1        0.1630
     11  C         19.1680  -22.1530   -6.6250 C.2     1  UNL1        0.0460
     12  C         19.7730  -21.0870   -5.9470 C.2     1  UNL1        0.0180
     13  C         19.2490  -20.6450   -4.7310 C.2     1  UNL1        0.0010
     14  C         18.1230  -21.2660   -4.1860 C.2     1  UNL1        0.0010
     15  C         17.5240  -22.3380   -4.8490 C.2     1  UNL1        0.0160
     16  C         18.0600  -22.7950   -6.0590 C.2     1  UNL1        0.0300
     17  C         17.4050  -23.9440   -6.7090 C.2     1  UNL1        0.1930
     18  O         17.6130  -25.0570   -6.2350 O.2     1  UNL1       -0.2870
     19  C         16.5220  -23.7670   -7.8960 C.2     1  UNL1        0.0150
     20  C         16.3360  -22.5260   -8.5180 C.2     1  UNL1        0.0150
     21  C         15.4950  -22.4190   -9.6300 C.2     1  UNL1        0.0010
     22  C         14.8440  -23.5470  -10.1270 C.2     1  UNL1        0.0000
     23  C         15.0330  -24.7870   -9.5190 C.2     1  UNL1        0.0010
     24  C         15.8700  -24.8970   -8.4080 C.2     1  UNL1        0.0150
     25  C         22.6650  -22.2740  -11.2880 C.2     1  UNL1        0.0430
     26  C         23.2860  -22.0530  -12.5240 C.2     1  UNL1        0.0300
     27  C         22.6270  -21.3230  -13.5140 C.2     1  UNL1        0.0030
     28  C         21.3510  -20.8150  -13.2780 C.2     1  UNL1        0.0070
     29  C         20.7150  -21.0380  -12.0510 C.2     1  UNL1       -0.0600
     30  C         19.3610  -20.4480  -11.7790 C.3     1  UNL1        0.0480
     31  C         21.3840  -21.7620  -11.0530 C.2     1  UNL1        0.0370
     32  S         25.9640  -22.5530  -11.1000 S.3     1  UNL1       -0.0800
     33  C         26.4050  -23.9900  -12.1120 C.3     1  UNL1        0.1850
     34  C         25.7220  -24.0040  -13.4710 C.2     1  UNL1        0.2340
     35  O         24.9920  -24.9570  -13.7550 O.2     1  UNL1       -0.2720
     36  N         25.9020  -22.8920  -14.2810 N.am    1  UNL1       -0.3170
     37  C         26.6910  -21.6860  -13.9660 C.3     1  UNL1        0.1370
     38  C         25.4000  -22.7470  -15.5910 C.2     1  UNL1        0.0430
     39  C         26.4060  -20.6480  -15.0590 C.3     1  UNL1        0.0610
     40  C         25.7010  -21.4740  -16.0840 C.2     1  UNL1       -0.0300
     41  C         25.3190  -21.0840  -17.3590 C.2     1  UNL1        0.0090
     42  C         24.6260  -22.0000  -18.1530 C.2     1  UNL1        0.0010
     43  C         24.3310  -23.2810  -17.6650 C.2     1  UNL1        0.0020
     44  C         24.7160  -23.6610  -16.3740 C.2     1  UNL1        0.0300
@<TRIPOS>BOND
     1    42    43    2
     2    42    41    1
     3    43    44    1
     4    41    40    2
     5    44    38    2
     6    40    38    1
     7    40    39    1
     8    38    36    1
     9    39    37    1
    10    36    37    1
    11    36    34   am
    12    35    34    2
    13    27    28    2
    14    27    26    1
    15    34    33    1
    16    28    29    1
    17    26    25    2
    18    33    32    1
    19    29    30    1
    20    29    31    2
    21    25    31    1
    22    25     1    1
    23    32     5    1
    24     1     5   ar
    25     1     2   ar
    26    22    21    2
    27    22    23    1
    28     5     4   ar
    29    21    20    1
    30    23    24    2
    31     2     6    1
    32     2     3   ar
    33     6     7    1
    34     4     3   ar
    35     9     8    2
    36    20    19    2
    37    24    19    1
    38     8     7   am
    39     8    11    1
    40    19    17    1
    41     7    10    1
    42    17    18    2
    43    17    16    1
    44    11    16    2
    45    11    12    1
    46    16    15    1
    47    12    13    2
    48    15    14    2
    49    13    14    1
