@<TRIPOS>MOLECULE
7016_out_ligand_01.pdbqt
 36 39 0 0 0
SMALL
GASTEIGER

@<TRIPOS>ATOM
      1  N         22.9540  -22.3900  -10.7180 N.am    1  UNL1       -0.3610
      2  C         22.4880  -23.3280   -9.8310 C.2     1  UNL1        0.2190
      3  O         23.1910  -23.8890   -8.9950 O.2     1  UNL1       -0.2740
      4  H         22.2960  -21.9130  -11.3270 H       1  UNL1        0.1620
      5  C         21.0070  -23.6000   -9.9410 C.3     1  UNL1        0.1230
      6  C         20.2070  -22.3080   -9.7670 C.3     1  UNL1        0.1420
      7  N         19.2850  -22.3520   -8.6120 N.am    1  UNL1       -0.3120
      8  C         19.8730  -22.1200   -7.3550 C.2     1  UNL1        0.2610
      9  O         21.0850  -21.9240   -7.2230 O.2     1  UNL1       -0.2670
     10  C         19.0680  -21.9880   -6.1290 C.2     1  UNL1        0.0680
     11  C         19.2610  -20.8640   -5.3170 C.2     1  UNL1        0.0210
     12  C         18.2120  -22.9820   -5.6840 C.2     1  UNL1        0.1130
     13  C         18.5700  -20.7600   -4.1140 C.2     1  UNL1        0.0200
     14  C         17.7230  -21.7950   -3.7580 C.2     1  UNL1        0.1180
     15  N         17.5280  -22.8970   -4.5140 N.2     1  UNL1       -0.2530
     16  S         17.9120  -24.4410   -6.6450 S.3     1  UNL1       -0.0670
     17  C         17.1920  -23.6030   -8.0470 C.2     1  UNL1        0.0340
     18  C         15.8640  -23.9360   -8.3630 C.2     1  UNL1        0.0210
     19  C         17.9090  -22.6920   -8.8500 C.2     1  UNL1        0.0540
     20  C         15.2310  -23.3680   -9.4650 C.2     1  UNL1        0.0020
     21  C         15.9220  -22.4650  -10.2620 C.2     1  UNL1        0.0020
     22  C         17.2460  -22.1340   -9.9590 C.2     1  UNL1        0.0310
     23  C         24.3360  -21.9460  -10.7520 C.3     1  UNL1        0.1270
     24  C         25.2380  -22.9360  -11.4940 C.3     1  UNL1        0.0580
     25  C         25.0650  -22.8760  -12.9970 C.2     1  UNL1       -0.0570
     26  C         24.5770  -21.7100  -13.6070 C.2     1  UNL1        0.0090
     27  C         24.4400  -21.6400  -14.9940 C.2     1  UNL1        0.0250
     28  C         24.7890  -22.7440  -15.7750 C.2     1  UNL1        0.0740
     29  C         25.2920  -23.9070  -15.1850 C.2     1  UNL1        0.0250
     30  C         25.4260  -23.9710  -13.7960 C.2     1  UNL1        0.0090
     31  S         24.6000  -22.6780  -17.5350 S.O2    1  UNL1        0.2390
     32  O         23.3540  -23.3200  -17.8900 O.2     1  UNL1       -0.2060
     33  O         25.8630  -23.0220  -18.1530 O.2     1  UNL1       -0.2060
     34  N         24.4190  -21.0180  -17.7860 N.3     1  UNL1       -0.2250
     35  H         25.2400  -20.6710  -18.2870 H       1  UNL1        0.1360
     36  H         24.2520  -20.5000  -16.9240 H       1  UNL1        0.1360
@<TRIPOS>BOND
     1    35    34    1
     2    33    31    2
     3    32    31    2
     4    34    31    1
     5    34    36    1
     6    31    28    1
     7    28    29    2
     8    28    27    1
     9    29    30    1
    10    27    26    2
    11    30    25    2
    12    26    25    1
    13    25    24    1
    14    24    23    1
    15     4     1    1
    16    23     1    1
    17     1     2   am
    18    21    22    2
    19    21    20    1
    20    22    19    1
    21     5     2    1
    22     5     6    1
    23     2     3    2
    24     6     7    1
    25    20    18    2
    26    19     7    1
    27    19    17    2
    28     7     8   am
    29    18    17    1
    30    17    16    1
    31     8     9    2
    32     8    10    1
    33    16    12    1
    34    10    12    2
    35    10    11    1
    36    12    15    1
    37    11    13    2
    38    15    14    2
    39    13    14    1
