@<TRIPOS>MOLECULE
70162_out_ligand_01.pdbqt
 39 43 0 0 0
SMALL
GASTEIGER

@<TRIPOS>ATOM
      1  O         20.3950  -20.2880  -11.4800 O.2     1  UNL1       -0.2670
      2  C         20.7780  -21.4450  -11.5960 C.2     1  UNL1        0.2560
      3  N         20.1840  -22.5770  -11.0700 N.am    1  UNL1       -0.3230
      4  H         20.6930  -23.4480  -11.1600 H       1  UNL1        0.1690
      5  C         22.0360  -21.6910  -12.3570 C.2     1  UNL1        0.0320
      6  C         23.0130  -22.5140  -11.7790 C.2     1  UNL1        0.0180
      7  C         24.2090  -22.7670  -12.4560 C.2     1  UNL1        0.0260
      8  C         24.4360  -22.1680  -13.6990 C.2     1  UNL1        0.0790
      9  C         23.4630  -21.3520  -14.2870 C.2     1  UNL1        0.0260
     10  C         22.2670  -21.1040  -13.6090 C.2     1  UNL1        0.0180
     11  S         25.9470  -22.5150  -14.5840 S.O2    1  UNL1        0.2610
     12  O         25.6730  -23.6360  -15.4600 O.2     1  UNL1       -0.2000
     13  O         27.0130  -22.5730  -13.6070 O.2     1  UNL1       -0.2000
     14  N         26.1750  -21.1380  -15.5390 N.3     1  UNL1       -0.3020
     15  C         25.3700  -21.0160  -16.7740 C.3     1  UNL1        0.1400
     16  C         26.0890  -20.0850  -17.7500 C.3     1  UNL1        0.0600
     17  C         26.4130  -18.7570  -17.1160 C.2     1  UNL1       -0.0490
     18  C         26.6330  -17.6290  -17.9200 C.2     1  UNL1        0.0080
     19  C         26.5540  -18.6580  -15.7200 C.2     1  UNL1       -0.0330
     20  C         26.9630  -16.4050  -17.3400 C.2     1  UNL1        0.0010
     21  C         27.0840  -16.2980  -15.9570 C.2     1  UNL1        0.0010
     22  C         26.8810  -17.4180  -15.1490 C.2     1  UNL1        0.0090
     23  C         26.3260  -19.8540  -14.8170 C.3     1  UNL1        0.1740
     24  C         18.9900  -22.6430  -10.3210 C.2     1  UNL1        0.0360
     25  C         17.7280  -22.3490  -10.8320 C.2     1  UNL1        0.0310
     26  C         16.5940  -22.4170  -10.0130 C.2     1  UNL1        0.0220
     27  C         16.7040  -22.7970   -8.6720 C.2     1  UNL1        0.0250
     28 BR         15.1100  -22.7420   -7.6450 Br      1  UNL1       -0.0500
     29  C         17.9590  -23.1320   -8.1560 C.2     1  UNL1        0.0340
     30  C         19.0960  -23.0330   -8.9810 C.2     1  UNL1        0.0460
     31  C         18.2130  -23.5870   -6.7660 C.2     1  UNL1        0.1950
     32  O         18.2360  -24.7920   -6.5310 O.2     1  UNL1       -0.2870
     33  C         18.2940  -22.6260   -5.6450 C.2     1  UNL1        0.0360
     34  C         19.1130  -21.4950   -5.7920 C.2     1  UNL1        0.0170
     35  C         19.1940  -20.5520   -4.7660 C.2     1  UNL1        0.0010
     36  C         18.4570  -20.7290   -3.5970 C.2     1  UNL1        0.0020
     37  C         17.6370  -21.8490   -3.4500 C.2     1  UNL1        0.0250
     38  C         17.5490  -22.8010   -4.4720 C.2     1  UNL1        0.0480
     39 CL         16.5600  -24.1880   -4.1860 Cl      1  UNL1       -0.0830
@<TRIPOS>BOND
     1    18    20    1
     2    18    17    2
     3    16    17    1
     4    16    15    1
     5    20    21    2
     6    17    19    1
     7    15    14    1
     8    21    22    1
     9    19    22    2
    10    19    23    1
    11    14    23    1
    12    14    11    1
    13    12    11    2
    14    11     8    1
    15    11    13    2
    16     9     8    2
    17     9    10    1
    18     8     7    1
    19    10     5    2
    20     7     6    2
    21     5     6    1
    22     5     2    1
    23     2     1    2
    24     2     3   am
    25     4     3    1
    26     3    24    1
    27    25    24    2
    28    25    26    1
    29    24    30    1
    30    26    27    2
    31    30    29    2
    32    27    29    1
    33    27    28    1
    34    29    31    1
    35    31    32    2
    36    31    33    1
    37    34    33    2
    38    34    35    1
    39    33    38    1
    40    35    36    2
    41    38    39    1
    42    38    37    2
    43    36    37    1
