@<TRIPOS>MOLECULE
7018_out_ligand_01.pdbqt
 37 41 0 0 0
SMALL
GASTEIGER

@<TRIPOS>ATOM
      1  S         15.8710  -23.5640   -9.3180 S.3     1  UNL1       -0.0870
      2  C         15.9470  -23.3780   -7.5960 C.ar    1  UNL1        0.1710
      3  N         16.8530  -24.0510   -6.8110 N.ar    1  UNL1       -0.3040
      4  C         16.6420  -23.6430   -5.5180 C.ar    1  UNL1        0.1610
      5  N         17.3170  -24.0250   -4.4140 N.2     1  UNL1       -0.2410
      6  C         15.5780  -22.7520   -5.5930 C.ar    1  UNL1        0.1050
      7  C         16.8450  -23.4320   -3.2900 C.2     1  UNL1        0.1190
      8  C         15.7880  -22.5280   -3.2280 C.2     1  UNL1        0.0220
      9  C         15.1280  -22.1680   -4.4040 C.2     1  UNL1        0.0370
     10  N         15.1540  -22.6020   -6.8870 N.ar    1  UNL1       -0.2210
     11  C         17.8950  -24.9740   -7.2190 C.3     1  UNL1        0.1710
     12  C         19.1590  -24.2590   -7.6340 C.2     1  UNL1       -0.0400
     13  C         19.3760  -22.9200   -7.2770 C.2     1  UNL1        0.0110
     14  C         20.5470  -22.2540   -7.6590 C.2     1  UNL1        0.0370
     15  C         21.5180  -22.9180   -8.4070 C.2     1  UNL1        0.0680
     16  C         21.3040  -24.2490   -8.7700 C.2     1  UNL1        0.0370
     17  C         20.1370  -24.9150   -8.3900 C.2     1  UNL1        0.0110
     18  O         22.7010  -22.3890   -8.8430 O.2     1  UNL1       -0.3560
     19  C         23.7970  -23.2860   -8.9680 C.3     1  UNL1        0.2100
     20  C         16.2370  -21.8810   -9.8940 C.3     1  UNL1        0.1210
     21  C         17.5890  -21.7780  -10.5610 C.2     1  UNL1       -0.0480
     22  C         18.3990  -22.9140  -10.7150 C.2     1  UNL1        0.0090
     23  C         19.6520  -22.8180  -11.3290 C.2     1  UNL1        0.0170
     24  C         20.1130  -21.5790  -11.7870 C.2     1  UNL1        0.0320
     25  C         19.3050  -20.4450  -11.6500 C.2     1  UNL1        0.0170
     26  C         18.0550  -20.5440  -11.0330 C.2     1  UNL1        0.0090
     27  C         21.4360  -21.4280  -12.4480 C.2     1  UNL1        0.2520
     28  O         21.5870  -20.6030  -13.3400 O.2     1  UNL1       -0.2680
     29  N         22.4470  -22.2390  -11.9740 N.am    1  UNL1       -0.3520
     30  H         22.2560  -22.8920  -11.2260 H       1  UNL1        0.1630
     31  C         23.7730  -22.2680  -12.5900 C.3     1  UNL1        0.0840
     32  C         24.3110  -23.7040  -12.5490 C.3     1  UNL1        0.0250
     33  C         25.7170  -23.8940  -13.1190 C.3     1  UNL1        0.0020
     34  C         26.8060  -23.3420  -12.2050 C.3     1  UNL1        0.0000
     35  C         27.1210  -21.8620  -12.3930 C.3     1  UNL1        0.0000
     36  C         25.9460  -20.9320  -12.6830 C.3     1  UNL1        0.0020
     37  C         24.6730  -21.2320  -11.8990 C.3     1  UNL1        0.0250
@<TRIPOS>BOND
     1    28    27    2
     2    33    32    1
     3    33    34    1
     4    36    35    1
     5    36    37    1
     6    31    32    1
     7    31    29    1
     8    31    37    1
     9    27    29   am
    10    27    24    1
    11    35    34    1
    12    29    30    1
    13    24    25    2
    14    24    23    1
    15    25    26    1
    16    23    22    2
    17    26    21    2
    18    22    21    1
    19    21    20    1
    20    20     1    1
    21     1     2    1
    22    19    18    1
    23    18    15    1
    24    16    15    2
    25    16    17    1
    26    15    14    1
    27    17    12    2
    28    14    13    2
    29    12    13    1
    30    12    11    1
    31     2    10   ar
    32     2     3   ar
    33    11     3    1
    34    10     6   ar
    35     3     4   ar
    36     6     4   ar
    37     6     9    1
    38     4     5    1
    39     5     7    2
    40     9     8    2
    41     7     8    1
