@<TRIPOS>MOLECULE
70197_out_ligand_01.pdbqt
 39 43 0 0 0
SMALL
GASTEIGER

@<TRIPOS>ATOM
      1  N         22.6610  -21.7520  -12.7510 N.pl3   1  UNL1       -0.3530
      2  C         21.3930  -21.2470  -12.9080 C.2     1  UNL1        0.1100
      3  C         20.7550  -21.3440  -11.6970 C.2     1  UNL1        0.0290
      4  C         21.6470  -21.9510  -10.7700 C.2     1  UNL1        0.0090
      5  C         21.5770  -22.2920   -9.4030 C.2     1  UNL1        0.0150
      6  C         22.6580  -22.9350   -8.7880 C.2     1  UNL1        0.0010
      7  C         23.8090  -23.2270   -9.5100 C.2     1  UNL1        0.0020
      8  C         23.9180  -22.8770  -10.8570 C.2     1  UNL1        0.0300
      9  C         22.8260  -22.2370  -11.4690 C.2     1  UNL1        0.0450
     10  S         19.1410  -20.7660  -11.3670 S.3     1  UNL1       -0.1180
     11  C         18.2150  -22.3250  -11.3790 C.3     1  UNL1        0.1820
     12  C         17.2660  -22.4040  -10.1920 C.2     1  UNL1        0.2310
     13  O         16.1480  -21.8980  -10.2490 O.2     1  UNL1       -0.2720
     14  N         17.7890  -23.1180   -9.1230 N.am    1  UNL1       -0.3260
     15  H         18.7010  -23.5320   -9.2580 H       1  UNL1        0.1690
     16  C         17.2290  -23.2850   -7.8280 C.2     1  UNL1        0.0450
     17  C         16.1230  -24.1210   -7.6230 C.2     1  UNL1        0.0300
     18  C         15.5240  -24.2190   -6.3710 C.2     1  UNL1        0.0030
     19  C         16.0320  -23.4960   -5.2980 C.2     1  UNL1        0.0120
     20  C         17.1550  -22.6700   -5.4540 C.2     1  UNL1       -0.0240
     21  C         17.6610  -21.9730   -4.3430 C.2     1  UNL1        0.0120
     22  C         17.7770  -22.5480   -6.7250 C.2     1  UNL1        0.0010
     23  C         18.7850  -21.1570   -4.4510 C.2     1  UNL1        0.0010
     24  C         19.4200  -21.0300   -5.6770 C.2     1  UNL1        0.0010
     25  C         18.9250  -21.7120   -6.7940 C.2     1  UNL1        0.0140
     26  C         23.6920  -21.7130  -13.7820 C.3     1  UNL1        0.1480
     27  C         24.8260  -20.7440  -13.4370 C.3     1  UNL1        0.1430
     28  N         25.1490  -19.8580  -14.5420 N.am    1  UNL1       -0.3550
     29  C         26.2630  -19.0550  -14.5790 C.2     1  UNL1        0.2540
     30  O         27.1010  -19.0570  -13.6800 O.2     1  UNL1       -0.2680
     31  H         24.4860  -19.7870  -15.3160 H       1  UNL1        0.1620
     32  C         26.4390  -18.1650  -15.7790 C.2     1  UNL1        0.0650
     33  C         26.7840  -16.8260  -15.5100 C.2     1  UNL1        0.0200
     34  C         26.9860  -15.9110  -16.5420 C.2     1  UNL1        0.0010
     35  C         26.8450  -16.3230  -17.8620 C.2     1  UNL1        0.0030
     36  C         26.5000  -17.6480  -18.1510 C.2     1  UNL1        0.0380
     37  C         26.2900  -18.5790  -17.1230 C.2     1  UNL1        0.0840
     38  O         25.9420  -19.8880  -17.3560 O.2     1  UNL1       -0.3550
     39  C         24.7410  -20.1480  -18.0830 C.3     1  UNL1        0.2100
@<TRIPOS>BOND
     1    36    35    2
     2    36    37    1
     3    39    38    1
     4    35    34    1
     5    38    37    1
     6    37    32    2
     7    34    33    2
     8    32    33    1
     9    32    29    1
    10    31    28    1
    11    29    28   am
    12    29    30    2
    13    28    27    1
    14    26    27    1
    15    26     1    1
    16     2     1    1
    17     2     3    2
    18     1     9    1
    19     3    10    1
    20     3     4    1
    21     9     8    1
    22     9     4    2
    23    11    10    1
    24    11    12    1
    25     8     7    2
    26     4     5    1
    27    13    12    2
    28    12    14   am
    29     7     6    1
    30     5     6    2
    31    15    14    1
    32    14    16    1
    33    16    17    2
    34    16    22    1
    35    17    18    1
    36    25    22    1
    37    25    24    2
    38    22    20    2
    39    18    19    2
    40    24    23    1
    41    20    19    1
    42    20    21    1
    43    23    21    2
