@<TRIPOS>MOLECULE
70198_out_ligand_01.pdbqt
 37 42 0 0 0
SMALL
GASTEIGER

@<TRIPOS>ATOM
      1  C         20.9610  -21.5710  -11.4210 C.2     1  UNL1        0.2570
      2  O         20.3220  -20.5680  -11.7190 O.2     1  UNL1       -0.2670
      3  N         20.6420  -22.5170  -10.4760 N.am    1  UNL1       -0.3010
      4  H         21.1930  -23.3580  -10.3880 H       1  UNL1        0.1710
      5  C         22.2100  -21.8540  -12.1870 C.2     1  UNL1        0.0320
      6  C         22.4110  -21.1780  -13.4000 C.2     1  UNL1        0.0180
      7  C         23.5520  -21.4260  -14.1660 C.2     1  UNL1        0.0260
      8  C         24.4960  -22.3520  -13.7090 C.2     1  UNL1        0.0740
      9  C         24.3250  -23.0100  -12.4890 C.2     1  UNL1        0.0260
     10  C         23.1810  -22.7570  -11.7250 C.2     1  UNL1        0.0180
     11  S         25.9260  -22.6770  -14.7150 S.O2    1  UNL1        0.2430
     12  O         25.9000  -24.0720  -15.1080 O.2     1  UNL1       -0.2060
     13  O         27.0630  -22.1130  -14.0220 O.2     1  UNL1       -0.2060
     14  N         25.5950  -21.7550  -16.1050 N.3     1  UNL1       -0.2060
     15  C         24.7560  -22.4110  -17.1270 C.3     1  UNL1        0.1300
     16  C         26.7770  -21.0740  -16.6820 C.3     1  UNL1        0.1450
     17  C         26.6140  -19.5720  -16.6690 C.2     1  UNL1       -0.0440
     18  C         26.2420  -18.8870  -17.8330 C.2     1  UNL1        0.0080
     19  C         26.0940  -17.4980  -17.8210 C.2     1  UNL1        0.0010
     20  C         26.3200  -16.7810  -16.6470 C.2     1  UNL1        0.0000
     21  C         26.7040  -17.4500  -15.4870 C.2     1  UNL1        0.0010
     22  C         26.8520  -18.8380  -15.4970 C.2     1  UNL1        0.0080
     23  C         19.5380  -22.5350   -9.6610 C.ar    1  UNL1        0.1740
     24  N         19.6490  -22.2180   -8.3940 N.ar    1  UNL1       -0.2220
     25  C         18.4090  -22.3320   -7.7720 C.ar    1  UNL1        0.0880
     26  C         17.3580  -22.7320   -8.6150 C.ar    1  UNL1        0.0380
     27  C         18.1280  -22.0890   -6.3920 C.2     1  UNL1        0.0050
     28  C         16.0290  -22.9080   -8.1640 C.2     1  UNL1        0.0290
     29  S         17.9840  -22.9480  -10.2060 S.2     1  UNL1       -0.0500
     30  C         15.7800  -22.6720   -6.8190 C.2     1  UNL1       -0.0450
     31  C         16.7990  -22.2820   -5.9980 C.2     1  UNL1       -0.0110
     32  C         14.4840  -22.7760   -6.0680 C.2     1  UNL1        0.0440
     33  C         16.3430  -22.1030   -4.7190 C.2     1  UNL1       -0.0460
     34  C         17.2330  -21.7050   -3.7310 C.2     1  UNL1        0.0080
     35  C         14.8770  -22.3990   -4.6150 C.2     1  UNL1        0.0440
     36  C         18.5820  -21.4950   -4.0730 C.2     1  UNL1        0.0020
     37  C         19.0340  -21.6840   -5.3930 C.2     1  UNL1        0.0140
@<TRIPOS>BOND
     1    18    19    1
     2    18    17    2
     3    19    20    2
     4    15    14    1
     5    16    17    1
     6    16    14    1
     7    17    22    1
     8    20    21    1
     9    14    11    1
    10    22    21    2
    11    12    11    2
    12    11    13    2
    13    11     8    1
    14     7     8    2
    15     7     6    1
    16     8     9    1
    17     6     5    2
    18     9    10    2
    19     5    10    1
    20     5     1    1
    21     2     1    2
    22     1     3   am
    23     3     4    1
    24     3    23    1
    25    29    23   ar
    26    29    26   ar
    27    23    24   ar
    28    26    28    1
    29    26    25   ar
    30    24    25   ar
    31    28    30    2
    32    25    27    1
    33    30    32    1
    34    30    31    1
    35    27    31    2
    36    27    37    1
    37    32    35    2
    38    31    33    1
    39    37    36    2
    40    33    35    1
    41    33    34    2
    42    36    34    1
