@<TRIPOS>MOLECULE
701_out_ligand_01.pdbqt
 30 32 0 0 0
SMALL
GASTEIGER

@<TRIPOS>ATOM
      1  C         17.3650  -22.9160   -8.9980 C.2     1  UNL1        0.0800
      2  C         16.8130  -22.1710  -10.0410 C.2     1  UNL1        0.0260
      3  C         17.6480  -21.6280  -11.0200 C.2     1  UNL1        0.0090
      4  C         19.0390  -21.8200  -10.9670 C.2     1  UNL1       -0.0460
      5  C         19.9000  -21.1750  -12.0190 C.3     1  UNL1        0.0490
      6  C         19.5720  -22.6040   -9.9240 C.2     1  UNL1        0.0390
      7  C         18.7430  -23.1240   -8.9220 C.2     1  UNL1        0.0420
      8  S         16.3120  -23.5960   -7.7370 S.O2    1  UNL1        0.2630
      9  O         15.5640  -22.4990   -7.1620 O.2     1  UNL1       -0.2000
     10  O         15.6410  -24.7550   -8.2850 O.2     1  UNL1       -0.2000
     11  N         17.4070  -24.0900   -6.5530 N.pl3   1  UNL1       -0.2810
     12  H         17.3110  -25.0800   -6.3290 H       1  UNL1        0.1790
     13  C         17.7840  -23.1960   -5.5140 C.2     1  UNL1        0.0430
     14  C         17.4670  -23.5310   -4.1970 C.2     1  UNL1        0.0300
     15  C         17.7940  -22.6590   -3.1580 C.2     1  UNL1        0.0030
     16  C         18.4460  -21.4560   -3.4340 C.2     1  UNL1        0.0070
     17  C         18.7920  -21.1240   -4.7490 C.2     1  UNL1       -0.0600
     18  C         19.4740  -19.8230   -5.0530 C.3     1  UNL1        0.0480
     19  C         18.4480  -21.9990   -5.7890 C.2     1  UNL1        0.0370
     20  C         21.0170  -22.9140   -9.8140 C.2     1  UNL1        0.2520
     21  O         21.3950  -24.0760   -9.7860 O.2     1  UNL1       -0.2680
     22  N         21.8490  -21.8190   -9.8000 N.am    1  UNL1       -0.3530
     23  H         21.4500  -20.8910   -9.8040 H       1  UNL1        0.1630
     24  C         23.2680  -21.9470   -9.5620 C.3     1  UNL1        0.1610
     25  C         24.0340  -21.7660  -10.8440 C.2     1  UNL1       -0.0380
     26  C         23.4690  -22.1010  -12.0770 C.2     1  UNL1        0.0280
     27  C         24.2090  -21.8780  -13.2280 C.2     1  UNL1        0.1160
     28  N         25.4500  -21.3460  -13.2330 N.2     1  UNL1       -0.2730
     29  C         25.9770  -21.0260  -12.0310 C.2     1  UNL1        0.1160
     30  C         25.3180  -21.2120  -10.8270 C.2     1  UNL1        0.0280
@<TRIPOS>BOND
     1    28    27    2
     2    28    29    1
     3    27    26    1
     4    26    25    2
     5    29    30    2
     6     5     4    1
     7     3     4    2
     8     3     2    1
     9     4     6    1
    10    25    30    1
    11    25    24    1
    12     2     1    2
    13     6    20    1
    14     6     7    2
    15    20    22   am
    16    20    21    2
    17    23    22    1
    18    22    24    1
    19     1     7    1
    20     1     8    1
    21    10     8    2
    22     8     9    2
    23     8    11    1
    24    11    12    1
    25    11    13    1
    26    19    13    2
    27    19    17    1
    28    13    14    1
    29    18    17    1
    30    17    16    2
    31    14    15    2
    32    16    15    1
