@<TRIPOS>MOLECULE
70208_out_ligand_01.pdbqt
 36 41 0 0 0
SMALL
GASTEIGER

@<TRIPOS>ATOM
      1  C         23.2500  -22.4680  -10.3690 C.2     1  UNL1        0.0320
      2  C         22.6410  -22.2220  -11.6090 C.2     1  UNL1        0.0180
      3  C         23.3480  -22.4290  -12.7950 C.2     1  UNL1        0.0260
      4  C         24.6740  -22.8640  -12.7330 C.2     1  UNL1        0.0800
      5  C         25.2960  -23.1040  -11.5020 C.2     1  UNL1        0.0260
      6  C         24.5850  -22.9000  -10.3180 C.2     1  UNL1        0.0180
      7  C         22.4560  -22.2280   -9.1300 C.2     1  UNL1        0.2570
      8  O         23.0160  -21.6750   -8.1910 O.2     1  UNL1       -0.2670
      9  N         21.1470  -22.6390   -9.2040 N.am    1  UNL1       -0.3010
     10  H         20.7650  -22.9710  -10.0770 H       1  UNL1        0.1710
     11  C         20.2000  -22.5680   -8.2130 C.ar    1  UNL1        0.1740
     12  N         20.3730  -21.7720   -7.1870 N.ar    1  UNL1       -0.2230
     13  C         19.2860  -21.8690   -6.3340 C.ar    1  UNL1        0.0770
     14  C         19.1350  -21.1600   -5.1260 C.2     1  UNL1        0.0340
     15  C         18.2760  -22.7510   -6.7350 C.ar    1  UNL1        0.0480
     16  C         17.9900  -21.3390   -4.3440 C.2     1  UNL1        0.0140
     17  C         16.9780  -22.2190   -4.7410 C.2     1  UNL1       -0.0250
     18  C         15.8280  -22.4010   -3.9570 C.2     1  UNL1        0.0120
     19  C         17.1020  -22.9460   -5.9500 C.2     1  UNL1       -0.0060
     20  C         14.8200  -23.2810   -4.3570 C.2     1  UNL1        0.0010
     21  C         14.9430  -23.9950   -5.5470 C.2     1  UNL1        0.0010
     22  C         16.0770  -23.8320   -6.3440 C.2     1  UNL1        0.0140
     23  S         18.7560  -23.4540   -8.2410 S.2     1  UNL1       -0.0490
     24  S         25.6060  -23.1330  -14.2330 S.O2    1  UNL1        0.2650
     25  O         26.9310  -22.6210  -13.9520 O.2     1  UNL1       -0.2000
     26  O         25.4060  -24.5110  -14.6280 O.2     1  UNL1       -0.2000
     27  N         24.7770  -22.1110  -15.3540 N.pl3   1  UNL1       -0.2710
     28  C         24.2650  -22.7930  -16.5790 C.3     1  UNL1        0.1420
     29  C         25.3080  -22.7910  -17.6840 C.3     1  UNL1        0.0260
     30  C         25.6710  -21.3660  -18.0630 C.3     1  UNL1        0.0420
     31  C         25.8750  -20.4740  -16.8680 C.2     1  UNL1       -0.0310
     32  C         26.4840  -19.2230  -17.0620 C.2     1  UNL1        0.0090
     33  C         25.4040  -20.8240  -15.5910 C.2     1  UNL1        0.0510
     34  C         26.6240  -18.3290  -16.0010 C.2     1  UNL1        0.0010
     35  C         26.1410  -18.6680  -14.7420 C.2     1  UNL1        0.0020
     36  C         25.5270  -19.9060  -14.5410 C.2     1  UNL1        0.0310
@<TRIPOS>BOND
     1    30    29    1
     2    30    31    1
     3    29    28    1
     4    32    31    2
     5    32    34    1
     6    31    33    1
     7    28    27    1
     8    34    35    2
     9    33    27    1
    10    33    36    2
    11    27    24    1
    12    35    36    1
    13    26    24    2
    14    24    25    2
    15    24     4    1
    16     3     4    2
    17     3     2    1
    18     4     5    1
    19     2     1    2
    20     5     6    2
    21     1     6    1
    22     1     7    1
    23    10     9    1
    24     9     7   am
    25     9    11    1
    26     7     8    2
    27    23    11   ar
    28    23    15   ar
    29    11    12   ar
    30    12    13   ar
    31    15    13   ar
    32    15    19    1
    33    22    19    1
    34    22    21    2
    35    13    14    1
    36    19    17    2
    37    21    20    1
    38    14    16    2
    39    17    16    1
    40    17    18    1
    41    20    18    2
