@<TRIPOS>MOLECULE
7020_out_ligand_01.pdbqt
 32 34 0 0 0
SMALL
GASTEIGER

@<TRIPOS>ATOM
      1  C         20.5080  -22.5010   -7.4730 C.2     1  UNL1        0.0720
      2  C         19.3190  -23.2080   -7.2330 C.2     1  UNL1        0.0450
      3  C         18.4110  -22.7470   -6.2720 C.2     1  UNL1        0.0800
      4  C         18.6880  -21.6030   -5.5180 C.2     1  UNL1        0.0280
      5  C         19.8730  -20.9050   -5.7470 C.2     1  UNL1        0.0450
      6  C         20.7700  -21.3530   -6.7180 C.2     1  UNL1        0.1320
      7  F         21.8950  -20.6460   -6.9050 F       1  UNL1       -0.2050
      8  S         16.9160  -23.6610   -5.9620 S.O2    1  UNL1        0.2580
      9  O         17.1990  -25.0610   -6.1760 O.2     1  UNL1       -0.2010
     10  O         16.3590  -23.1740   -4.7210 O.2     1  UNL1       -0.2010
     11  N         15.9070  -23.1260   -7.1790 N.3     1  UNL1       -0.3150
     12  H         15.6860  -22.1310   -7.1630 H       1  UNL1        0.1720
     13  C         15.7910  -23.8630   -8.4390 C.3     1  UNL1        0.1360
     14  C         15.6400  -22.8790   -9.6090 C.3     1  UNL1        0.0540
     15  C         16.9030  -22.3720  -10.2910 C.2     1  UNL1       -0.0820
     16  C         18.0370  -23.0810  -10.4590 C.2     1  UNL1       -0.0240
     17  C         19.2770  -22.5410  -11.1130 C.3     1  UNL1        0.0270
     18  C         19.2610  -21.0230  -11.2830 C.3     1  UNL1        0.0040
     19  C         17.9020  -20.5500  -11.7790 C.3     1  UNL1        0.0050
     20  C         16.7920  -20.9500  -10.8060 C.3     1  UNL1        0.0340
     21  C         21.4270  -23.0030   -8.5400 C.2     1  UNL1        0.2590
     22  N         22.1690  -22.0520   -9.2140 N.am    1  UNL1       -0.3230
     23  H         22.0220  -21.0830   -8.9550 H       1  UNL1        0.1690
     24  O         21.4510  -24.2140   -8.7400 O.2     1  UNL1       -0.2670
     25  C         23.1090  -22.2590  -10.2480 C.2     1  UNL1        0.0360
     26  C         24.3550  -22.8600  -10.0660 C.2     1  UNL1        0.0360
     27  C         25.2370  -23.0270  -11.1440 C.2     1  UNL1       -0.0590
     28  C         24.8670  -22.5680  -12.4130 C.2     1  UNL1        0.0130
     29  C         26.5880  -23.6400  -10.9190 C.3     1  UNL1        0.0480
     30  C         23.6170  -21.9760  -12.6190 C.2     1  UNL1       -0.0590
     31  C         23.2350  -21.4600  -13.9750 C.3     1  UNL1        0.0480
     32  C         22.7510  -21.8160  -11.5280 C.2     1  UNL1        0.0360
@<TRIPOS>BOND
     1    31    30    1
     2    30    28    2
     3    30    32    1
     4    28    27    1
     5    19    18    1
     6    19    20    1
     7    32    25    2
     8    18    17    1
     9    27    29    1
    10    27    26    2
    11    17    16    1
    12    20    15    1
    13    16    15    2
    14    15    14    1
    15    25    26    1
    16    25    22    1
    17    14    13    1
    18    22    23    1
    19    22    21   am
    20    24    21    2
    21    21     1    1
    22    13    11    1
    23     1     2    2
    24     1     6    1
    25     2     3    1
    26    11    12    1
    27    11     8    1
    28     7     6    1
    29     6     5    2
    30     3     8    1
    31     3     4    2
    32     9     8    2
    33     8    10    2
    34     5     4    1
