@<TRIPOS>MOLECULE
70235_out_ligand_01.pdbqt
 36 39 0 0 0
SMALL
GASTEIGER

@<TRIPOS>ATOM
      1  C         19.0670  -22.5290   -9.4030 C.2     1  UNL1        0.0720
      2  C         20.4690  -22.5010   -9.3570 C.2     1  UNL1        0.0450
      3  C         21.1970  -22.0250  -10.4560 C.2     1  UNL1        0.0800
      4  C         20.5470  -21.5150  -11.5810 C.2     1  UNL1        0.0280
      5  C         19.1530  -21.5140  -11.6170 C.2     1  UNL1        0.0450
      6  C         18.4260  -22.0270  -10.5390 C.2     1  UNL1        0.1320
      7  F         17.0880  -22.0260  -10.6330 F       1  UNL1       -0.2050
      8  S         22.9700  -22.1050  -10.4020 S.O2    1  UNL1        0.2590
      9  O         23.3190  -23.4810  -10.1350 O.2     1  UNL1       -0.2010
     10  O         23.4400  -21.0210   -9.5680 O.2     1  UNL1       -0.2010
     11  N         23.4270  -21.7850  -11.9730 N.3     1  UNL1       -0.3020
     12  H         22.9220  -21.0260  -12.4180 H       1  UNL1        0.1730
     13  C         24.7910  -22.0760  -12.4330 C.3     1  UNL1        0.1590
     14  C         24.8200  -22.8320  -13.7650 C.2     1  UNL1       -0.0300
     15  C         24.4160  -22.2540  -14.9800 C.2     1  UNL1        0.0090
     16  C         24.4620  -22.9840  -16.1720 C.2     1  UNL1        0.0010
     17  C         24.9130  -24.3010  -16.1700 C.2     1  UNL1        0.0000
     18  C         25.3190  -24.8940  -14.9780 C.2     1  UNL1        0.0010
     19  C         25.2750  -24.1660  -13.7860 C.2     1  UNL1        0.0090
     20  C         25.6370  -20.8070  -12.4930 C.2     1  UNL1       -0.0300
     21  C         25.7970  -20.0890  -13.6910 C.2     1  UNL1        0.0090
     22  C         26.5280  -18.8990  -13.7150 C.2     1  UNL1        0.0010
     23  C         27.1210  -18.4180  -12.5500 C.2     1  UNL1        0.0000
     24  C         26.9930  -19.1310  -11.3600 C.2     1  UNL1        0.0010
     25  C         26.2580  -20.3170  -11.3310 C.2     1  UNL1        0.0090
     26  C         18.3400  -23.1260   -8.2400 C.2     1  UNL1        0.2590
     27  O         18.5350  -24.3120   -7.9950 O.2     1  UNL1       -0.2670
     28  N         17.4820  -22.2910   -7.5500 N.am    1  UNL1       -0.3220
     29  H         17.3910  -21.3320   -7.8790 H       1  UNL1        0.1690
     30  C         16.6690  -22.6020   -6.4320 C.2     1  UNL1        0.0520
     31  C         15.4730  -23.3210   -6.5330 C.2     1  UNL1        0.0310
     32  C         14.7100  -23.6040   -5.3940 C.2     1  UNL1        0.0020
     33  C         15.1310  -23.1740   -4.1380 C.2     1  UNL1        0.0020
     34  C         16.3200  -22.4580   -4.0160 C.2     1  UNL1        0.0210
     35  C         17.0820  -22.1750   -5.1540 C.2     1  UNL1        0.0370
     36 BR         18.6890  -21.1820   -4.9070 Br      1  UNL1       -0.0490
@<TRIPOS>BOND
     1    16    17    2
     2    16    15    1
     3    17    18    1
     4    15    14    2
     5    18    19    2
     6    19    14    1
     7    14    13    1
     8    22    21    1
     9    22    23    2
    10    21    20    2
    11    23    24    1
    12    20    13    1
    13    20    25    1
    14    13    11    1
    15    12    11    1
    16    11     8    1
    17     5     4    2
    18     5     6    1
    19     4     3    1
    20    24    25    2
    21     7     6    1
    22     6     1    2
    23     3     8    1
    24     3     2    2
    25     8     9    2
    26     8    10    2
    27     1     2    1
    28     1    26    1
    29    26    27    2
    30    26    28   am
    31    29    28    1
    32    28    30    1
    33    31    30    2
    34    31    32    1
    35    30    35    1
    36    32    33    2
    37    35    36    1
    38    35    34    2
    39    33    34    1
