@<TRIPOS>MOLECULE
70261_out_ligand_01.pdbqt
 38 42 0 0 0
SMALL
GASTEIGER

@<TRIPOS>ATOM
      1  N         21.9980  -22.4530  -11.3990 N.pl3   1  UNL1       -0.2500
      2  N         22.1370  -21.5550  -12.4170 N.2     1  UNL1       -0.1820
      3  C         20.9140  -21.0180  -12.5290 C.2     1  UNL1        0.1600
      4  C         20.0130  -21.5680  -11.6110 C.2     1  UNL1        0.0990
      5  C         18.6250  -21.3630  -11.3070 C.2     1  UNL1        0.2640
      6  O         17.9350  -20.5450  -11.9040 O.2     1  UNL1       -0.2670
      7  N         18.1750  -22.1870  -10.2680 N.am    1  UNL1       -0.3030
      8  C         19.0180  -23.0950   -9.6320 C.2     1  UNL1        0.2150
      9  N         20.2780  -23.2860   -9.8950 N.2     1  UNL1       -0.2230
     10  C         20.7280  -22.4940  -10.8950 C.2     1  UNL1        0.1640
     11  C         23.1440  -23.2320  -10.9670 C.3     1  UNL1        0.1720
     12  C         23.9920  -22.4890   -9.9410 C.3     1  UNL1        0.1440
     13  N         24.6620  -21.3310  -10.5100 N.am    1  UNL1       -0.3560
     14  C         25.9580  -21.3950  -10.9560 C.2     1  UNL1        0.2410
     15  O         26.6810  -22.3700  -10.8090 O.2     1  UNL1       -0.2690
     16  H         24.0620  -20.5550  -10.7870 H       1  UNL1        0.1620
     17  C         26.3760  -20.1520  -11.6540 C.2     1  UNL1        0.0750
     18  C         26.4670  -19.9780  -12.9830 C.2     1  UNL1        0.0170
     19  C         26.2540  -20.9690  -14.0440 C.2     1  UNL1       -0.0330
     20  C         27.1170  -22.0760  -14.2020 C.2     1  UNL1        0.0140
     21  C         26.9350  -22.9890  -15.2480 C.2     1  UNL1        0.0400
     22  C         25.8960  -22.7610  -16.1230 C.2     1  UNL1        0.1050
     23  C         25.0600  -21.6790  -15.9840 C.2     1  UNL1        0.1050
     24  O         25.5720  -23.5340  -17.1940 O.2     1  UNL1       -0.3230
     25  C         25.2150  -20.7640  -14.9630 C.2     1  UNL1        0.0510
     26  O         24.1060  -21.6330  -16.9540 O.2     1  UNL1       -0.3230
     27  C         24.4270  -22.8210  -17.7060 C.3     1  UNL1        0.3520
     28  C         16.7880  -22.0850   -9.8530 C.3     1  UNL1        0.1710
     29  C         16.5410  -22.7710   -8.5260 C.2     1  UNL1       -0.0390
     30  C         15.8290  -23.9770   -8.4750 C.2     1  UNL1        0.0090
     31  C         15.6100  -24.6230   -7.2580 C.2     1  UNL1        0.0010
     32  C         16.1020  -24.0720   -6.0750 C.2     1  UNL1        0.0160
     33  C         16.8190  -22.8670   -6.0970 C.2     1  UNL1        0.0480
     34  C         17.0360  -22.2270   -7.3300 C.2     1  UNL1        0.0250
     35  C         17.3610  -22.2570   -4.8270 C.3     1  UNL1        0.4170
     36  F         16.3970  -21.7690   -3.9980 F       1  UNL1       -0.1660
     37  F         18.2070  -21.2170   -5.0730 F       1  UNL1       -0.1660
     38  F         18.0760  -23.1500   -4.0890 F       1  UNL1       -0.1660
@<TRIPOS>BOND
     1    27    24    1
     2    27    26    1
     3    24    22    1
     4    26    23    1
     5    22    23    2
     6    22    21    1
     7    23    25    1
     8    21    20    2
     9    25    19    2
    10    20    19    1
    11    19    18    1
    12    18    17    2
    13     3     2    2
    14     3     4    1
    15     2     1    1
    16     6     5    2
    17    17    14    1
    18     4     5    1
    19     4    10    2
    20     1    11    1
    21     1    10    1
    22     5     7   am
    23    11    12    1
    24    14    15    2
    25    14    13   am
    26    10     9    1
    27    16    13    1
    28    13    12    1
    29     7    28    1
    30     7     8    1
    31     9     8    2
    32    28    29    1
    33    29    30    2
    34    29    34    1
    35    30    31    1
    36    34    33    2
    37    31    32    2
    38    33    32    1
    39    33    35    1
    40    37    35    1
    41    35    38    1
    42    35    36    1
