@<TRIPOS>MOLECULE
70280_out_ligand_01.pdbqt
 39 43 0 0 0
SMALL
GASTEIGER

@<TRIPOS>ATOM
      1  C         19.5860  -23.6580   -9.6220 C.2     1  UNL1        0.0290
      2  C         18.3840  -24.1910   -9.2280 C.2     1  UNL1        0.1100
      3  N         17.3890  -23.4050   -9.7550 N.pl3   1  UNL1       -0.3530
      4  C         17.9370  -22.3510  -10.4630 C.2     1  UNL1        0.0450
      5  C         17.3320  -21.2810  -11.1440 C.2     1  UNL1        0.0300
      6  C         18.1570  -20.3610  -11.7990 C.2     1  UNL1        0.0020
      7  C         19.5400  -20.5010  -11.7780 C.2     1  UNL1        0.0010
      8  C         20.1340  -21.5660  -11.0940 C.2     1  UNL1        0.0150
      9  C         19.3280  -22.5070  -10.4170 C.2     1  UNL1        0.0090
     10  S         21.1620  -24.2910   -9.2080 S.3     1  UNL1       -0.1180
     11  C         21.9010  -22.8200   -8.4270 C.3     1  UNL1        0.1820
     12  C         23.0000  -22.1850   -9.2740 C.2     1  UNL1        0.2310
     13  O         23.2370  -20.9850   -9.1690 O.2     1  UNL1       -0.2720
     14  N         23.7060  -23.1010  -10.0370 N.am    1  UNL1       -0.3260
     15  H         23.3390  -24.0420   -9.9960 H       1  UNL1        0.1690
     16  C         24.7630  -22.8730  -10.9540 C.2     1  UNL1        0.0450
     17  C         26.0830  -23.2200  -10.6400 C.2     1  UNL1        0.0300
     18  C         27.1210  -22.9660  -11.5310 C.2     1  UNL1        0.0030
     19  C         26.8580  -22.3570  -12.7520 C.2     1  UNL1        0.0120
     20  C         25.5520  -21.9990  -13.1070 C.2     1  UNL1       -0.0240
     21  C         25.3220  -21.3850  -14.3510 C.2     1  UNL1        0.0120
     22  C         24.4740  -22.2550  -12.2160 C.2     1  UNL1        0.0010
     23  C         24.0390  -21.0200  -14.7470 C.2     1  UNL1        0.0010
     24  C         22.9660  -21.2670  -13.9050 C.2     1  UNL1        0.0010
     25  C         23.1790  -21.8760  -12.6630 C.2     1  UNL1        0.0140
     26  C         15.9670  -23.6840   -9.6040 C.3     1  UNL1        0.1480
     27  C         15.6180  -24.1810   -8.1980 C.3     1  UNL1        0.1430
     28  N         16.1030  -23.3140   -7.1370 N.am    1  UNL1       -0.3550
     29  C         17.0410  -23.7520   -6.2230 C.2     1  UNL1        0.2570
     30  O         17.3820  -24.9290   -6.1780 O.2     1  UNL1       -0.2670
     31  H         15.9740  -22.3140   -7.2620 H       1  UNL1        0.1620
     32  C         17.6550  -22.7320   -5.3280 C.2     1  UNL1        0.1080
     33  C         18.5650  -21.8070   -5.8490 C.2     1  UNL1        0.1350
     34  F         18.9230  -21.8250   -7.1400 F       1  UNL1       -0.2050
     35  C         19.1440  -20.8250   -5.0420 C.2     1  UNL1        0.0430
     36  C         18.8180  -20.7470   -3.6890 C.2     1  UNL1        0.0060
     37  C         17.9130  -21.6590   -3.1530 C.2     1  UNL1        0.0430
     38  C         17.3420  -22.6390   -3.9690 C.2     1  UNL1        0.1350
     39  F         16.4770  -23.4900   -3.3950 F       1  UNL1       -0.2050
@<TRIPOS>BOND
     1    23    21    2
     2    23    24    1
     3    21    20    1
     4    24    25    2
     5    20    19    2
     6    20    22    1
     7    19    18    1
     8    25    22    1
     9    22    16    2
    10     6     7    2
    11     6     5    1
    12     7     8    1
    13    18    17    2
    14     5     4    2
    15     8     9    2
    16    16    17    1
    17    16    14    1
    18     4     9    1
    19     4     3    1
    20     9     1    1
    21    14    15    1
    22    14    12   am
    23     3    26    1
    24     3     2    1
    25     1     2    2
    26     1    10    1
    27    26    27    1
    28    12    13    2
    29    12    11    1
    30    10    11    1
    31    27    28    1
    32    31    28    1
    33    34    33    1
    34    28    29   am
    35    29    30    2
    36    29    32    1
    37    33    32    2
    38    33    35    1
    39    32    38    1
    40    35    36    2
    41    38    39    1
    42    38    37    2
    43    36    37    1
