@<TRIPOS>MOLECULE
7028_out_ligand_01.pdbqt
 31 34 0 0 0
SMALL
GASTEIGER

@<TRIPOS>ATOM
      1  C         22.1310  -22.2790  -11.4120 C.2     1  UNL1        0.0330
      2  C         22.1680  -22.7420  -10.0980 C.2     1  UNL1        0.0190
      3  C         20.9860  -22.8280   -9.3520 C.2     1  UNL1        0.0310
      4  C         19.7410  -22.4610   -9.8880 C.2     1  UNL1        0.0430
      5  C         19.7270  -21.9230  -11.1930 C.2     1  UNL1       -0.0300
      6  C         20.9130  -21.8540  -11.9490 C.2     1  UNL1        0.0260
      7  C         18.4530  -21.4420  -11.8300 C.3     1  UNL1        0.0420
      8  C         17.5120  -20.9420  -10.7550 C.3     1  UNL1        0.0250
      9  C         17.2880  -22.0460   -9.7390 C.3     1  UNL1        0.1330
     10  N         18.5180  -22.5770   -9.1290 N.am    1  UNL1       -0.3130
     11  C         18.4270  -23.4260   -8.0050 C.2     1  UNL1        0.2610
     12  O         19.2640  -24.2490   -7.6380 O.2     1  UNL1       -0.2670
     13  C         23.3590  -22.1840  -12.2510 C.2     1  UNL1        0.2560
     14  N         23.2300  -21.3970  -13.3820 N.am    1  UNL1       -0.3230
     15  H         22.3650  -20.8820  -13.4820 H       1  UNL1        0.1690
     16  O         24.3690  -22.7620  -11.8660 O.2     1  UNL1       -0.2670
     17  C         24.2040  -21.1560  -14.3750 C.2     1  UNL1        0.0370
     18  C         25.0610  -20.0560  -14.3700 C.2     1  UNL1        0.0290
     19  C         26.0030  -19.8920  -15.3870 C.2     1  UNL1        0.0050
     20  C         26.0940  -20.8290  -16.4140 C.2     1  UNL1        0.0370
     21  C         25.2490  -21.9370  -16.4340 C.2     1  UNL1        0.0700
     22  C         24.3070  -22.0980  -15.4130 C.2     1  UNL1        0.0660
     23  O         25.4410  -22.7820  -17.4930 O.2     1  UNL1       -0.3560
     24  C         24.2800  -23.2690  -18.1530 C.3     1  UNL1        0.2100
     25  C         17.1970  -23.4000   -7.1950 C.2     1  UNL1        0.0710
     26  C         16.2550  -24.4240   -7.3450 C.2     1  UNL1        0.0200
     27  C         15.1060  -24.4260   -6.5520 C.2     1  UNL1        0.0010
     28  C         14.9090  -23.4190   -5.6030 C.2     1  UNL1        0.0030
     29  C         15.8630  -22.4120   -5.4400 C.2     1  UNL1        0.0430
     30  C         17.0070  -22.4120   -6.2320 C.2     1  UNL1        0.1320
     31  F         17.9120  -21.4380   -6.0600 F       1  UNL1       -0.2050
@<TRIPOS>BOND
     1    24    23    1
     2    23    21    1
     3    21    20    2
     4    21    22    1
     5    20    19    1
     6    22    17    2
     7    19    18    2
     8    17    18    1
     9    17    14    1
    10    15    14    1
    11    14    13   am
    12    13    16    2
    13    13     1    1
    14     6     1    2
    15     6     5    1
    16     7     5    1
    17     7     8    1
    18     1     2    1
    19     5     4    2
    20     8     9    1
    21     2     3    2
    22     4     3    1
    23     4    10    1
    24     9    10    1
    25    10    11   am
    26    11    12    2
    27    11    25    1
    28    26    25    2
    29    26    27    1
    30    25    30    1
    31    27    28    2
    32    30    31    1
    33    30    29    2
    34    28    29    1
