@<TRIPOS>MOLECULE
7029_out_ligand_01.pdbqt
 27 29 0 0 0
SMALL
GASTEIGER

@<TRIPOS>ATOM
      1  N         19.7630  -22.5380   -9.5350 N.am    1  UNL1       -0.3220
      2  C         19.4480  -23.6860   -8.8310 C.2     1  UNL1        0.2560
      3  O         20.0110  -24.7710   -8.8810 O.2     1  UNL1       -0.2670
      4  H         19.1110  -21.7720   -9.4450 H       1  UNL1        0.1690
      5  C         20.8390  -22.3350  -10.4340 C.2     1  UNL1        0.0420
      6  C         22.1470  -22.7510  -10.1510 C.2     1  UNL1        0.0470
      7  C         23.1900  -22.5150  -11.0570 C.2     1  UNL1        0.0340
      8  C         22.9280  -21.8760  -12.2700 C.2     1  UNL1        0.0170
      9  C         21.6310  -21.4590  -12.5660 C.2     1  UNL1        0.0100
     10  C         20.5800  -21.6770  -11.6590 C.2     1  UNL1       -0.0350
     11  C         19.2030  -21.2010  -12.0440 C.3     1  UNL1        0.0500
     12  C         24.5590  -22.9770  -10.7080 C.2     1  UNL1        0.2490
     13  N         24.6970  -23.6890   -9.5470 N.am    1  UNL1       -0.3660
     14  H         23.9070  -24.1360   -9.1060 H       1  UNL1        0.1590
     15  H         25.6060  -24.1130   -9.4090 H       1  UNL1        0.1590
     16  O         25.5230  -22.7670  -11.4300 O.2     1  UNL1       -0.2680
     17  C         18.2640  -23.5560   -7.9390 C.2     1  UNL1        0.0350
     18  C         17.0740  -22.9690   -8.3890 C.2     1  UNL1        0.0200
     19  C         15.9810  -22.8710   -7.5250 C.2     1  UNL1        0.0400
     20  C         16.0860  -23.3250   -6.2090 C.2     1  UNL1        0.1020
     21  C         17.2780  -23.9000   -5.7600 C.2     1  UNL1        0.1030
     22  O         14.9510  -23.2600   -5.4490 O.2     1  UNL1       -0.3480
     23  C         18.3650  -24.0200   -6.6240 C.2     1  UNL1        0.0560
     24  O         17.4160  -24.4600   -4.5190 O.2     1  UNL1       -0.3480
     25  C         17.2660  -23.5000   -3.4730 C.3     1  UNL1        0.1780
     26  C         15.8030  -23.2330   -3.1540 C.3     1  UNL1        0.0530
     27  C         15.1300  -22.4610   -4.2780 C.3     1  UNL1        0.1780
@<TRIPOS>BOND
     1     9     8    2
     2     9    10    1
     3     8     7    1
     4    11    10    1
     5    10     5    2
     6    16    12    2
     7     7    12    1
     8     7     6    2
     9    12    13   am
    10     5     6    1
    11     5     1    1
    12    13    15    1
    13    13    14    1
    14     1     4    1
    15     1     2   am
    16     3     2    2
    17     2    17    1
    18    18    17    2
    19    18    19    1
    20    17    23    1
    21    19    20    2
    22    23    21    2
    23    20    21    1
    24    20    22    1
    25    21    24    1
    26    22    27    1
    27    24    25    1
    28    27    26    1
    29    25    26    1
