@<TRIPOS>MOLECULE
70312_out_ligand_01.pdbqt
 38 44 0 0 0
SMALL
GASTEIGER

@<TRIPOS>ATOM
      1  C         21.8800  -21.7080  -12.2920 C.2     1  UNL1        0.0320
      2  C         22.1540  -20.9190  -13.4190 C.2     1  UNL1        0.0180
      3  C         23.2530  -21.2190  -14.2280 C.2     1  UNL1        0.0260
      4  C         24.0660  -22.3140  -13.9130 C.2     1  UNL1        0.0800
      5  C         23.7990  -23.1090  -12.7960 C.2     1  UNL1        0.0260
      6  C         22.6970  -22.8080  -11.9910 C.2     1  UNL1        0.0180
      7  C         20.7110  -21.4320  -11.4070 C.2     1  UNL1        0.2570
      8  O         20.2480  -20.3000  -11.4110 O.2     1  UNL1       -0.2670
      9  N         20.2650  -22.5210  -10.6970 N.am    1  UNL1       -0.3010
     10  H         20.6520  -23.4370  -10.8710 H       1  UNL1        0.1710
     11  C         19.2330  -22.5540   -9.7930 C.ar    1  UNL1        0.1740
     12  N         19.4430  -22.2380   -8.5390 N.ar    1  UNL1       -0.2220
     13  C         18.2540  -22.3360   -7.8240 C.ar    1  UNL1        0.0880
     14  C         17.1370  -22.7280   -8.5820 C.ar    1  UNL1        0.0380
     15  C         18.0810  -22.0790   -6.4290 C.2     1  UNL1        0.0050
     16  C         15.8430  -22.8810   -8.0310 C.2     1  UNL1        0.0290
     17  S         17.6410  -22.9650  -10.2130 S.2     1  UNL1       -0.0500
     18  C         15.6990  -22.6260   -6.6750 C.2     1  UNL1       -0.0450
     19  C         16.7820  -22.2460   -5.9340 C.2     1  UNL1       -0.0110
     20  C         14.4610  -22.7050   -5.8260 C.2     1  UNL1        0.0440
     21  C         16.4270  -22.0460   -4.6270 C.2     1  UNL1       -0.0460
     22  C         17.3930  -21.6540   -3.7140 C.2     1  UNL1        0.0080
     23  C         14.9650  -22.3070   -4.4140 C.2     1  UNL1        0.0440
     24  C         18.7150  -21.4720   -4.1580 C.2     1  UNL1        0.0020
     25  C         19.0650  -21.6810   -5.5050 C.2     1  UNL1        0.0140
     26  S         25.4660  -22.6750  -14.9610 S.O2    1  UNL1        0.2650
     27  O         25.2930  -24.0570  -15.3600 O.2     1  UNL1       -0.2000
     28  O         25.5550  -21.6190  -15.9480 O.2     1  UNL1       -0.2000
     29  N         26.7870  -22.5140  -13.8580 N.pl3   1  UNL1       -0.2710
     30  C         27.1200  -23.7430  -13.0800 C.3     1  UNL1        0.1420
     31  C         26.3290  -23.8050  -11.7850 C.3     1  UNL1        0.0260
     32  C         26.6510  -22.6020  -10.9120 C.3     1  UNL1        0.0420
     33  C         26.6860  -21.3110  -11.6850 C.2     1  UNL1       -0.0310
     34  C         26.6900  -20.1020  -10.9690 C.2     1  UNL1        0.0090
     35  C         26.7950  -21.2850  -13.0870 C.2     1  UNL1        0.0510
     36  C         26.7990  -18.8820  -11.6340 C.2     1  UNL1        0.0010
     37  C         26.9260  -18.8590  -13.0180 C.2     1  UNL1        0.0020
     38  C         26.9310  -20.0540  -13.7390 C.2     1  UNL1        0.0310
@<TRIPOS>BOND
     1    28    26    2
     2    27    26    2
     3    26     4    1
     4    26    29    1
     5     3     4    2
     6     3     2    1
     7     4     5    1
     8    29    35    1
     9    29    30    1
    10    38    35    1
    11    38    37    2
    12     2     1    2
    13    35    33    2
    14    30    31    1
    15    37    36    1
    16     5     6    2
    17     1     6    1
    18     1     7    1
    19    31    32    1
    20    33    34    1
    21    33    32    1
    22    36    34    2
    23     8     7    2
    24     7     9   am
    25    10     9    1
    26     9    11    1
    27    17    11   ar
    28    17    14   ar
    29    11    12   ar
    30    14    16    1
    31    14    13   ar
    32    12    13   ar
    33    16    18    2
    34    13    15    1
    35    18    19    1
    36    18    20    1
    37    15    19    2
    38    15    25    1
    39    19    21    1
    40    20    23    2
    41    25    24    2
    42    21    23    1
    43    21    22    2
    44    24    22    1
