@<TRIPOS>MOLECULE
7034_out_ligand_01.pdbqt
 38 42 0 0 0
SMALL
GASTEIGER

@<TRIPOS>ATOM
      1  C         23.7840  -22.6760  -10.8010 C.ar    1  UNL1        0.0870
      2  C         23.1190  -22.3390  -11.9710 C.ar    1  UNL1        0.1710
      3  O         23.9090  -22.6530  -13.0520 O.2     1  UNL1       -0.3020
      4  C         25.0190  -23.2780  -12.5780 C.ar    1  UNL1        0.0890
      5  C         26.0480  -23.7960  -13.3600 C.2     1  UNL1        0.0380
      6  C         27.1050  -24.4060  -12.6790 C.2     1  UNL1        0.0030
      7  C         27.1170  -24.4810  -11.2850 C.2     1  UNL1        0.0010
      8  C         26.0660  -23.9480  -10.5240 C.2     1  UNL1        0.0170
      9  C         24.9850  -23.3390  -11.1910 C.ar    1  UNL1        0.0280
     10  N         23.3850  -22.4640   -9.4870 N.am    1  UNL1       -0.3240
     11  C         22.6900  -21.3310   -9.0890 C.2     1  UNL1        0.2260
     12  O         22.4710  -20.3500   -9.7970 O.2     1  UNL1       -0.2730
     13  H         23.9260  -22.9380   -8.7740 H       1  UNL1        0.1690
     14  C         22.2600  -21.3740   -7.6320 C.3     1  UNL1        0.1440
     15  C         21.0640  -22.2420   -7.4450 C.2     1  UNL1       -0.0140
     16  C         19.9390  -22.0140   -6.5940 C.2     1  UNL1        0.0060
     17  C         19.5520  -21.0150   -5.6820 C.2     1  UNL1        0.0150
     18  C         19.0790  -23.0830   -6.8030 C.2     1  UNL1        0.0860
     19  C         18.3090  -21.1330   -5.0400 C.2     1  UNL1        0.0070
     20  C         17.4570  -22.2190   -5.2860 C.2     1  UNL1       -0.0590
     21  C         16.1500  -22.3210   -4.5560 C.3     1  UNL1        0.0480
     22  C         17.8460  -23.2330   -6.1740 C.2     1  UNL1        0.0440
     23  O         19.6130  -23.9500   -7.7030 O.2     1  UNL1       -0.3210
     24  C         20.8070  -23.4370   -8.0860 C.2     1  UNL1        0.1510
     25  C         21.7780  -21.8410  -12.2380 C.2     1  UNL1        0.2820
     26  O         21.5100  -21.1740  -13.2320 O.2     1  UNL1       -0.2650
     27  N         20.8880  -22.1630  -11.2250 N.am    1  UNL1       -0.3210
     28  H         21.2880  -22.7130  -10.4740 H       1  UNL1        0.1690
     29  C         19.5220  -21.8410  -11.1270 C.2     1  UNL1        0.0350
     30  C         18.9410  -20.7120  -11.7050 C.2     1  UNL1        0.0290
     31  C         17.5740  -20.4630  -11.5560 C.2     1  UNL1        0.0030
     32  C         16.7730  -21.3410  -10.8280 C.2     1  UNL1        0.0160
     33  C         17.3310  -22.4880  -10.2510 C.2     1  UNL1        0.0500
     34  C         18.7110  -22.7200  -10.3960 C.2     1  UNL1        0.0450
     35  C         16.4640  -23.4450   -9.4770 C.3     1  UNL1        0.4170
     36  F         17.1670  -24.4520   -8.8830 F       1  UNL1       -0.1660
     37  F         15.7740  -22.8340   -8.4750 F       1  UNL1       -0.1660
     38  F         15.5280  -24.0560  -10.2550 F       1  UNL1       -0.1660
@<TRIPOS>BOND
     1     5     6    1
     2     5     4    2
     3    26    25    2
     4     3     4   ar
     5     3     2   ar
     6     6     7    2
     7     4     9   ar
     8    25     2    1
     9    25    27   am
    10     2     1   ar
    11    30    31    1
    12    30    29    2
    13    31    32    2
    14     7     8    1
    15    27    29    1
    16    27    28    1
    17     9     1   ar
    18     9     8    2
    19    29    34    1
    20    32    33    1
    21     1    10    1
    22    34    33    2
    23    38    35    1
    24    33    35    1
    25    12    11    2
    26    10    11   am
    27    10    13    1
    28    35    36    1
    29    35    37    1
    30    11    14    1
    31    24    23    1
    32    24    15    2
    33    23    18    1
    34    14    15    1
    35    15    16    1
    36    18    16    2
    37    18    22    1
    38    16    17    1
    39    22    20    2
    40    17    19    2
    41    20    19    1
    42    20    21    1
