@<TRIPOS>MOLECULE
70350_out_ligand_01.pdbqt
 37 40 0 0 0
SMALL
GASTEIGER

@<TRIPOS>ATOM
      1  C         22.4440  -21.9100  -10.6560 C.2     1  UNL1        0.0290
      2  C         21.5020  -21.3930  -11.4610 C.2     1  UNL1        0.0280
      3  C         20.0830  -21.5470  -11.1600 C.2     1  UNL1       -0.0080
      4  C         19.1270  -20.9850  -12.0160 C.2     1  UNL1        0.0140
      5  C         17.7670  -21.1330  -11.7460 C.2     1  UNL1        0.0070
      6  C         17.3490  -21.8360  -10.6150 C.2     1  UNL1       -0.0600
      7  C         15.8870  -22.0200  -10.3280 C.3     1  UNL1        0.0480
      8  C         18.3110  -22.4160   -9.7700 C.2     1  UNL1        0.0370
      9  C         19.6840  -22.2730  -10.0280 C.2     1  UNL1        0.0480
     10  N         20.6910  -22.8150   -9.1690 N.am    1  UNL1       -0.3040
     11  C         22.0480  -22.5980   -9.3920 C.2     1  UNL1        0.2560
     12  O         22.9060  -22.9140   -8.5700 O.2     1  UNL1       -0.2670
     13  C         23.9160  -21.7820  -10.9390 C.3     1  UNL1        0.1640
     14  N         24.4130  -23.0430  -11.4850 N.pl3   1  UNL1       -0.3850
     15  H         23.9050  -23.8600  -11.1600 H       1  UNL1        0.1600
     16  C         24.7340  -23.1330  -12.8450 C.2     1  UNL1        0.0310
     17  C         24.4630  -22.0310  -13.6640 C.2     1  UNL1        0.0320
     18  C         24.7110  -22.0620  -15.0400 C.2     1  UNL1        0.0420
     19  C         25.2110  -23.2200  -15.6370 C.2     1  UNL1        0.1010
     20  C         25.4330  -24.3600  -14.8420 C.2     1  UNL1        0.1030
     21  C         25.1880  -24.3060  -13.4620 C.2     1  UNL1        0.0680
     22  O         25.4900  -23.3480  -16.9740 O.2     1  UNL1       -0.3530
     23  C         24.3910  -23.3910  -17.8740 C.3     1  UNL1        0.2100
     24  O         25.9040  -25.4710  -15.5010 O.2     1  UNL1       -0.3530
     25  C         27.1190  -26.0410  -15.0360 C.3     1  UNL1        0.2100
     26  C         20.3120  -23.6050   -7.9890 C.3     1  UNL1        0.2350
     27  C         19.3780  -22.8940   -6.9980 C.2     1  UNL1        0.2400
     28  O         19.6640  -21.7760   -6.5760 O.2     1  UNL1       -0.2710
     29  N         18.2120  -23.5890   -6.7260 N.am    1  UNL1       -0.3260
     30  H         18.1100  -24.4740   -7.2080 H       1  UNL1        0.1690
     31  C         17.1570  -23.2150   -5.8720 C.2     1  UNL1        0.0370
     32  C         17.3170  -23.4940   -4.5060 C.2     1  UNL1        0.0290
     33  C         16.3220  -23.1580   -3.5830 C.2     1  UNL1        0.0050
     34  C         15.1570  -22.5350   -4.0210 C.2     1  UNL1        0.0420
     35  C         15.0000  -22.2580   -5.3750 C.2     1  UNL1        0.1180
     36  F         13.8790  -21.6550   -5.7950 F       1  UNL1       -0.2060
     37  C         15.9850  -22.5900   -6.3020 C.2     1  UNL1        0.0710
@<TRIPOS>BOND
     1    23    22    1
     2    22    19    1
     3    19    18    2
     4    19    20    1
     5    24    25    1
     6    24    20    1
     7    18    17    1
     8    20    21    2
     9    17    16    2
    10    21    16    1
    11    16    14    1
    12     4     5    1
    13     4     3    2
    14     5     6    2
    15    14    15    1
    16    14    13    1
    17     2     3    1
    18     2     1    2
    19     3     9    1
    20    13     1    1
    21     1    11    1
    22     6     7    1
    23     6     8    1
    24     9     8    2
    25     9    10    1
    26    11    10   am
    27    11    12    2
    28    10    26    1
    29    26    27    1
    30    30    29    1
    31    27    29   am
    32    27    28    2
    33    29    31    1
    34    37    31    2
    35    37    35    1
    36    31    32    1
    37    36    35    1
    38    35    34    2
    39    32    33    2
    40    34    33    1
