@<TRIPOS>MOLECULE
70366_out_ligand_01.pdbqt
 35 39 0 0 0
SMALL
GASTEIGER

@<TRIPOS>ATOM
      1  N         21.8410  -22.4690  -11.3640 N.pl3   1  UNL1       -0.2500
      2  N         21.9160  -21.4390  -12.2530 N.2     1  UNL1       -0.1820
      3  C         20.6630  -20.9670  -12.2990 C.2     1  UNL1        0.1600
      4  C         19.8100  -21.6630  -11.4370 C.2     1  UNL1        0.0990
      5  C         18.4180  -21.5710  -11.0990 C.2     1  UNL1        0.2640
      6  O         17.6710  -20.7400  -11.6030 O.2     1  UNL1       -0.2670
      7  N         18.0320  -22.5250  -10.1490 N.am    1  UNL1       -0.3030
      8  C         18.9370  -23.4390   -9.6150 C.2     1  UNL1        0.2150
      9  N         20.1990  -23.5350   -9.9150 N.2     1  UNL1       -0.2230
     10  C         20.5860  -22.6220  -10.8380 C.2     1  UNL1        0.1640
     11  C         23.0220  -23.2560  -11.0530 C.3     1  UNL1        0.1720
     12  C         23.8360  -22.6360   -9.9180 C.3     1  UNL1        0.1440
     13  N         24.5170  -21.4170  -10.3220 N.am    1  UNL1       -0.3560
     14  C         25.8050  -21.4740  -10.7970 C.2     1  UNL1        0.2410
     15  O         26.5380  -22.4480  -10.7120 O.2     1  UNL1       -0.2690
     16  H         23.9200  -20.6910  -10.7090 H       1  UNL1        0.1620
     17  C         26.2110  -20.2120  -11.4560 C.2     1  UNL1        0.0750
     18  C         26.3870  -20.0920  -12.7810 C.2     1  UNL1        0.0170
     19  C         26.1450  -21.1480  -13.7690 C.2     1  UNL1       -0.0330
     20  C         27.1210  -22.1470  -13.9660 C.2     1  UNL1        0.0140
     21  C         26.9230  -23.1670  -14.9040 C.2     1  UNL1        0.0400
     22  C         25.7470  -23.1550  -15.6230 C.2     1  UNL1        0.1050
     23  C         24.7950  -22.1800  -15.4400 C.2     1  UNL1        0.1050
     24  O         25.3870  -24.0620  -16.5700 O.2     1  UNL1       -0.3230
     25  C         24.9640  -21.1600  -14.5260 C.2     1  UNL1        0.0510
     26  O         23.7130  -22.3520  -16.2470 O.2     1  UNL1       -0.3230
     27  C         24.0920  -23.5540  -16.9510 C.3     1  UNL1        0.3520
     28  C         16.6520  -22.5380   -9.6980 C.3     1  UNL1        0.1710
     29  C         16.5470  -22.8320   -8.2160 C.2     1  UNL1       -0.0400
     30  C         17.0540  -21.9300   -7.2670 C.2     1  UNL1        0.0100
     31  C         16.9330  -22.1970   -5.9010 C.2     1  UNL1        0.0190
     32  C         16.3020  -23.3640   -5.4760 C.2     1  UNL1        0.0110
     33 BR         16.1360  -23.7220   -3.6280 Br      1  UNL1       -0.0510
     34  C         15.7910  -24.2680   -6.4050 C.2     1  UNL1        0.0190
     35  C         15.9120  -24.0010   -7.7700 C.2     1  UNL1        0.0100
@<TRIPOS>BOND
     1    27    24    1
     2    27    26    1
     3    24    22    1
     4    26    23    1
     5    22    23    2
     6    22    21    1
     7    23    25    1
     8    21    20    2
     9    25    19    2
    10    20    19    1
    11    19    18    1
    12    18    17    2
    13     3     2    2
    14     3     4    1
    15     2     1    1
    16     6     5    2
    17    17    14    1
    18     4     5    1
    19     4    10    2
    20     1    11    1
    21     1    10    1
    22     5     7   am
    23    11    12    1
    24    10     9    1
    25    14    15    2
    26    14    13   am
    27    16    13    1
    28    13    12    1
    29     7    28    1
    30     7     8    1
    31     9     8    2
    32    28    29    1
    33    29    35    2
    34    29    30    1
    35    35    34    1
    36    30    31    2
    37    34    32    2
    38    31    32    1
    39    32    33    1
