@<TRIPOS>MOLECULE
70378_out_ligand_01.pdbqt
 32 34 0 0 0
SMALL
GASTEIGER

@<TRIPOS>ATOM
      1  C         20.4910  -22.4970   -7.4580 C.2     1  UNL1        0.0720
      2  C         19.3000  -23.2210   -7.2890 C.2     1  UNL1        0.0450
      3  C         18.3370  -22.7830   -6.3720 C.2     1  UNL1        0.0800
      4  C         18.5570  -21.6420   -5.5960 C.2     1  UNL1        0.0280
      5  C         19.7430  -20.9260   -5.7540 C.2     1  UNL1        0.0450
      6  C         20.6960  -21.3530   -6.6800 C.2     1  UNL1        0.1320
      7  F         21.8190  -20.6280   -6.8010 F       1  UNL1       -0.2050
      8  S         16.8430  -23.7200   -6.1540 S.O2    1  UNL1        0.2580
      9  O         16.2740  -23.3390   -4.8810 O.2     1  UNL1       -0.2010
     10  O         17.1070  -25.1000   -6.4920 O.2     1  UNL1       -0.2010
     11  N         15.8490  -23.0510   -7.3310 N.3     1  UNL1       -0.3150
     12  H         14.9130  -22.8630   -6.9640 H       1  UNL1        0.1720
     13  C         15.9200  -23.6020   -8.6950 C.3     1  UNL1        0.1370
     14  C         15.7460  -22.4860   -9.7310 C.3     1  UNL1        0.0580
     15  C         17.0370  -22.1000  -10.4190 C.2     1  UNL1       -0.0570
     16  C         18.1190  -22.9920  -10.4540 C.2     1  UNL1        0.0090
     17  C         19.3050  -22.6400  -11.1020 C.2     1  UNL1        0.0240
     18  C         19.4150  -21.3950  -11.7170 C.2     1  UNL1        0.0340
     19 CL         20.8770  -20.9620  -12.5150 Cl      1  UNL1       -0.0840
     20  C         18.3490  -20.4980  -11.6900 C.2     1  UNL1        0.0240
     21  C         17.1630  -20.8500  -11.0420 C.2     1  UNL1        0.0090
     22  C         21.4750  -22.9810   -8.4750 C.2     1  UNL1        0.2590
     23  O         21.5920  -24.1940   -8.6190 O.2     1  UNL1       -0.2670
     24  N         22.1710  -22.0130   -9.1760 N.am    1  UNL1       -0.3230
     25  H         21.9560  -21.0450   -8.9610 H       1  UNL1        0.1690
     26  C         23.1500  -22.2050  -10.1730 C.2     1  UNL1        0.0350
     27  C         23.0460  -23.1400  -11.2060 C.2     1  UNL1        0.0310
     28  C         24.0650  -23.2660  -12.1570 C.2     1  UNL1        0.0260
     29  C         25.1940  -22.4570  -12.0770 C.2     1  UNL1        0.0340
     30 CL         26.4470  -22.6120  -13.2460 Cl      1  UNL1       -0.0840
     31  C         25.3140  -21.5220  -11.0540 C.2     1  UNL1        0.0260
     32  C         24.2940  -21.3970  -10.1060 C.2     1  UNL1        0.0310
@<TRIPOS>BOND
     1    30    29    1
     2    19    18    1
     3    28    29    2
     4    28    27    1
     5    29    31    1
     6    18    20    2
     7    18    17    1
     8    20    21    1
     9    27    26    2
    10    17    16    2
    11    31    32    2
    12    21    15    2
    13    16    15    1
    14    15    14    1
    15    26    32    1
    16    26    24    1
    17    14    13    1
    18    24    25    1
    19    24    22   am
    20    13    11    1
    21    23    22    2
    22    22     1    1
    23     1     2    2
    24     1     6    1
    25    11    12    1
    26    11     8    1
    27     2     3    1
    28     7     6    1
    29     6     5    2
    30    10     8    2
    31     3     8    1
    32     3     4    2
    33     8     9    2
    34     5     4    1
