@<TRIPOS>MOLECULE
70373_out_ligand_01.pdbqt
 39 43 0 0 0
SMALL
GASTEIGER

@<TRIPOS>ATOM
      1  N         18.6400  -22.1230  -10.5980 N.ar    1  UNL1       -0.2740
      2  C         17.2680  -22.3670  -10.6260 C.ar    1  UNL1        0.1530
      3  N         16.6760  -21.4810  -11.4080 N.ar    1  UNL1       -0.1320
      4  N         17.6240  -20.6220  -11.8780 N.ar    1  UNL1       -0.1220
      5  C         18.7860  -20.9900  -11.3850 C.ar    1  UNL1        0.1960
      6  C         16.5270  -23.3600   -9.8000 C.3     1  UNL1        0.2040
      7  N         16.5680  -22.9180   -8.4240 N.am    1  UNL1       -0.3500
      8  C         16.3930  -23.7680   -7.3610 C.2     1  UNL1        0.2520
      9  O         16.2480  -24.9790   -7.4660 O.2     1  UNL1       -0.2680
     10  H         16.6990  -21.9260   -8.2600 H       1  UNL1        0.1630
     11  C         16.4590  -23.1340   -6.0220 C.2     1  UNL1        0.0430
     12  C         15.3930  -23.4280   -5.1590 C.2     1  UNL1        0.0180
     13  C         15.3910  -22.9290   -3.8630 C.2     1  UNL1        0.0020
     14  C         16.4470  -22.1310   -3.4280 C.2     1  UNL1        0.0120
     15  C         17.5110  -21.8010   -4.2850 C.2     1  UNL1       -0.0250
     16  C         18.5530  -20.9790   -3.8270 C.2     1  UNL1        0.0120
     17  C         17.5300  -22.2930   -5.6150 C.2     1  UNL1       -0.0100
     18  C         19.6080  -20.6200   -4.6630 C.2     1  UNL1        0.0010
     19  C         19.6320  -21.0730   -5.9750 C.2     1  UNL1        0.0010
     20  C         18.6050  -21.8920   -6.4480 C.2     1  UNL1        0.0130
     21  C         19.6360  -22.8670   -9.9130 C.2     1  UNL1        0.0430
     22  C         19.4550  -24.2390   -9.6980 C.2     1  UNL1        0.0300
     23  C         20.4280  -24.9750   -9.0230 C.2     1  UNL1        0.0030
     24  C         21.5850  -24.3500   -8.5600 C.2     1  UNL1        0.0070
     25  C         21.7780  -22.9790   -8.7610 C.2     1  UNL1       -0.0600
     26  C         23.0400  -22.3210   -8.2860 C.3     1  UNL1        0.0480
     27  C         20.8020  -22.2430   -9.4500 C.2     1  UNL1        0.0370
     28  S         20.2930  -20.2410  -11.8110 S.3     1  UNL1       -0.0850
     29  C         20.9800  -21.4910  -12.9370 C.3     1  UNL1        0.1210
     30  C         22.4710  -21.3160  -13.1060 C.2     1  UNL1       -0.0480
     31  C         22.9840  -20.6710  -14.2420 C.2     1  UNL1        0.0080
     32  C         24.3580  -20.4900  -14.3960 C.2     1  UNL1        0.0010
     33  C         25.2370  -20.9500  -13.4160 C.2     1  UNL1        0.0160
     34  C         24.7520  -21.5990  -12.2710 C.2     1  UNL1        0.0480
     35  C         23.3630  -21.7690  -12.1220 C.2     1  UNL1        0.0240
     36  C         25.6990  -22.0740  -11.1960 C.3     1  UNL1        0.4170
     37  F         26.9200  -22.4360  -11.6790 F       1  UNL1       -0.1660
     38  F         25.2340  -23.1600  -10.5150 F       1  UNL1       -0.1660
     39  F         25.9380  -21.1190  -10.2560 F       1  UNL1       -0.1660
@<TRIPOS>BOND
     1    32    31    1
     2    32    33    2
     3    31    30    2
     4    33    34    1
     5    30    29    1
     6    30    35    1
     7    29    28    1
     8    34    35    2
     9    34    36    1
    10     4     3   ar
    11     4     5   ar
    12    28     5    1
    13    37    36    1
    14     3     2   ar
    15     5     1   ar
    16    36    38    1
    17    36    39    1
    18     2     1   ar
    19     2     6    1
    20     1    21    1
    21    21    22    2
    22    21    27    1
    23     6     7    1
    24    22    23    1
    25    27    25    2
    26    23    24    2
    27    25    24    1
    28    25    26    1
    29     7    10    1
    30     7     8   am
    31     9     8    2
    32     8    11    1
    33    20    19    2
    34    20    17    1
    35    11    17    2
    36    11    12    1
    37    19    18    1
    38    17    15    1
    39    12    13    2
    40    18    16    2
    41    15    16    1
    42    15    14    2
    43    13    14    1
