@<TRIPOS>MOLECULE
70386_out_ligand_01.pdbqt
 35 38 0 0 0
SMALL
GASTEIGER

@<TRIPOS>ATOM
      1  C         17.4360  -21.7910  -10.7240 C.2     1  UNL1        0.0700
      2  C         17.9230  -20.9840  -11.7510 C.2     1  UNL1        0.0380
      3  C         19.2900  -20.9160  -12.0060 C.2     1  UNL1        0.0160
      4  C         20.1870  -21.6560  -11.2290 C.2     1  UNL1       -0.0080
      5  C         21.6150  -21.5840  -11.5100 C.2     1  UNL1        0.0270
      6  C         22.5000  -22.2940  -10.7930 C.2     1  UNL1        0.0240
      7  C         22.0300  -23.1880   -9.6980 C.2     1  UNL1        0.2560
      8  O         22.8460  -23.8800   -9.0910 O.2     1  UNL1       -0.2670
      9  N         20.6680  -23.2090   -9.4110 N.am    1  UNL1       -0.3040
     10  C         19.7180  -22.4630  -10.1820 C.2     1  UNL1        0.0510
     11  C         18.3340  -22.5210   -9.9380 C.2     1  UNL1        0.0670
     12  C         20.2260  -24.0090   -8.2610 C.3     1  UNL1        0.2350
     13  C         19.3990  -23.2490   -7.2120 C.2     1  UNL1        0.2400
     14  O         19.8100  -22.1750   -6.7760 O.2     1  UNL1       -0.2710
     15  N         18.2600  -23.9140   -6.8030 N.am    1  UNL1       -0.3260
     16  H         18.0960  -24.8110   -7.2450 H       1  UNL1        0.1690
     17  C         17.2930  -23.4940   -5.8690 C.2     1  UNL1        0.0350
     18  C         17.5380  -23.7890   -4.5230 C.2     1  UNL1        0.0290
     19  C         16.6220  -23.4210   -3.5360 C.2     1  UNL1        0.0030
     20  C         15.4530  -22.7490   -3.8860 C.2     1  UNL1        0.0070
     21  C         15.1980  -22.4310   -5.2220 C.2     1  UNL1       -0.0600
     22  C         13.9290  -21.7300   -5.6110 C.3     1  UNL1        0.0480
     23  C         16.1190  -22.8180   -6.2100 C.2     1  UNL1        0.0360
     24  C         23.9790  -22.2680  -11.0620 C.3     1  UNL1        0.1360
     25  N         24.3370  -23.4600  -11.8220 N.pl3   1  UNL1       -0.2890
     26  H         23.6210  -24.1800  -11.7200 H       1  UNL1        0.1280
     27  C         24.6710  -23.3260  -13.1800 C.2     1  UNL1        0.0080
     28  C         25.1440  -24.3740  -13.9760 C.2     1  UNL1        0.0240
     29  C         25.3850  -24.1960  -15.3440 C.2     1  UNL1        0.0080
     30  C         25.1390  -22.9640  -15.9570 C.2     1  UNL1       -0.0620
     31  C         25.3590  -22.7850  -17.4280 C.3     1  UNL1        0.0480
     32  C         24.6140  -21.9270  -15.1850 C.2     1  UNL1        0.0080
     33  C         24.3750  -22.1120  -13.8190 C.2     1  UNL1        0.0240
     34  O         16.0750  -21.7760  -10.5860 O.2     1  UNL1       -0.3560
     35  C         15.4950  -22.7630   -9.7410 C.3     1  UNL1        0.2100
@<TRIPOS>BOND
     1    31    30    1
     2    30    29    2
     3    30    32    1
     4    29    28    1
     5    32    33    2
     6    28    27    2
     7    33    27    1
     8    27    25    1
     9     3     2    1
    10     3     4    2
    11    25    26    1
    12    25    24    1
    13     2     1    2
    14     5     4    1
    15     5     6    2
    16     4    10    1
    17    24     6    1
    18     6     7    1
    19     1    34    1
    20     1    11    1
    21    34    35    1
    22    10    11    2
    23    10     9    1
    24     7     9   am
    25     7     8    2
    26     9    12    1
    27    12    13    1
    28    16    15    1
    29    13    15   am
    30    13    14    2
    31    15    17    1
    32    23    17    2
    33    23    21    1
    34    17    18    1
    35    22    21    1
    36    21    20    2
    37    18    19    2
    38    20    19    1
