@<TRIPOS>MOLECULE
70391_out_ligand_01.pdbqt
 38 42 0 0 0
SMALL
GASTEIGER

@<TRIPOS>ATOM
      1  C         24.3820  -21.9240  -11.6660 C.2     1  UNL1        0.0240
      2  C         23.3120  -21.3270  -12.2120 C.2     1  UNL1        0.0270
      3  C         21.9640  -21.5800  -11.7170 C.2     1  UNL1       -0.0060
      4  C         20.8750  -20.9390  -12.3230 C.2     1  UNL1        0.0530
      5  C         19.5850  -21.1670  -11.8540 C.2     1  UNL1        0.1030
      6  C         19.3770  -22.0570  -10.8000 C.2     1  UNL1        0.1040
      7  C         20.4610  -22.6870  -10.1860 C.2     1  UNL1        0.0700
      8  C         21.7690  -22.4560  -10.6370 C.2     1  UNL1        0.0510
      9  N         22.9090  -23.0950  -10.0570 N.am    1  UNL1       -0.3040
     10  C         24.1980  -22.8960  -10.5450 C.2     1  UNL1        0.2560
     11  O         25.1750  -23.5040  -10.1110 O.2     1  UNL1       -0.2670
     12  O         18.1330  -22.3580  -10.3080 O.2     1  UNL1       -0.3460
     13  C         17.1000  -21.9500  -11.2130 C.3     1  UNL1        0.2020
     14  C         17.3580  -20.5400  -11.7190 C.3     1  UNL1        0.2020
     15  O         18.5720  -20.4910  -12.4810 O.2     1  UNL1       -0.3460
     16  C         22.7470  -24.0180   -8.9240 C.3     1  UNL1        0.2350
     17  C         21.2940  -24.2700   -8.4870 C.2     1  UNL1        0.2400
     18  O         20.7240  -25.3020   -8.8320 O.2     1  UNL1       -0.2710
     19  N         20.7410  -23.2300   -7.7620 N.am    1  UNL1       -0.3250
     20  H         21.3610  -22.4470   -7.6080 H       1  UNL1        0.1690
     21  C         19.4490  -23.1260   -7.2000 C.2     1  UNL1        0.0410
     22  C         18.4410  -24.0630   -7.4560 C.2     1  UNL1        0.0370
     23  C         17.1680  -23.9430   -6.8770 C.2     1  UNL1       -0.0600
     24  C         16.0970  -24.9430   -7.1970 C.3     1  UNL1        0.0480
     25  C         16.8970  -22.8540   -6.0490 C.2     1  UNL1        0.0070
     26  C         17.8900  -21.9130   -5.7840 C.2     1  UNL1        0.0090
     27  C         19.1710  -22.0350   -6.3490 C.2     1  UNL1       -0.0350
     28  C         20.1980  -20.9840   -6.0200 C.3     1  UNL1        0.0500
     29  C         25.8200  -21.7410  -12.0890 C.3     1  UNL1        0.1360
     30  N         26.2830  -22.8820  -12.8840 N.pl3   1  UNL1       -0.2890
     31  H         26.2070  -23.7540  -12.3640 H       1  UNL1        0.1280
     32  C         25.7790  -23.0630  -14.1800 C.2     1  UNL1        0.0080
     33  C         25.3140  -24.2840  -14.6790 C.2     1  UNL1        0.0240
     34  C         24.7580  -24.3780  -15.9620 C.2     1  UNL1        0.0080
     35  C         24.6150  -23.2450  -16.7640 C.2     1  UNL1       -0.0620
     36  C         24.0510  -23.3490  -18.1480 C.3     1  UNL1        0.0480
     37  C         25.0500  -22.0150  -16.2660 C.2     1  UNL1        0.0080
     38  C         25.6050  -21.9270  -14.9840 C.2     1  UNL1        0.0240
@<TRIPOS>BOND
     1    36    35    1
     2    35    37    2
     3    35    34    1
     4    37    38    1
     5    34    33    2
     6    38    32    2
     7    33    32    1
     8    32    30    1
     9    30    31    1
    10    30    29    1
    11    15     5    1
    12    15    14    1
    13     4     5    1
    14     4     3    2
    15     2     3    1
    16     2     1    2
    17    29     1    1
    18     5     6    2
    19    14    13    1
    20     3     8    1
    21     1    10    1
    22    13    12    1
    23     6    12    1
    24     6     7    1
    25     8     7    2
    26     8     9    1
    27    10    11    2
    28    10     9   am
    29     9    16    1
    30    16    17    1
    31    18    17    2
    32    17    19   am
    33    19    20    1
    34    19    21    1
    35    22    21    2
    36    22    23    1
    37    21    27    1
    38    24    23    1
    39    23    25    2
    40    27    28    1
    41    27    26    2
    42    25    26    1
