@<TRIPOS>MOLECULE
70392_out_ligand_01.pdbqt
 40 45 0 0 0
SMALL
GASTEIGER

@<TRIPOS>ATOM
      1  C         17.6540  -22.1640  -10.6820 C.ar    1  UNL1        0.1530
      2  N         17.1650  -21.2910  -11.5460 N.ar    1  UNL1       -0.1320
      3  N         18.1980  -20.5610  -12.0620 N.ar    1  UNL1       -0.1220
      4  C         19.3050  -20.9890  -11.5040 C.ar    1  UNL1        0.1960
      5  N         19.0370  -22.0200  -10.6230 N.ar    1  UNL1       -0.2740
      6  C         16.8440  -23.2030   -9.9850 C.3     1  UNL1        0.2040
      7  N         16.7530  -22.8930   -8.5730 N.am    1  UNL1       -0.3500
      8  C         16.3440  -23.8100   -7.6350 C.2     1  UNL1        0.2520
      9  O         15.9200  -24.9290   -7.8830 O.2     1  UNL1       -0.2680
     10  H         16.9570  -21.9510   -8.2630 H       1  UNL1        0.1630
     11  C         16.3820  -23.3150   -6.2380 C.2     1  UNL1        0.0430
     12  C         15.3190  -23.7120   -5.4150 C.2     1  UNL1        0.0180
     13  C         15.2340  -23.2280   -4.1150 C.2     1  UNL1        0.0020
     14  C         16.2090  -22.3540   -3.6370 C.2     1  UNL1        0.0120
     15  C         17.2980  -21.9670   -4.4390 C.2     1  UNL1       -0.0250
     16  C         18.2800  -21.1010   -3.9280 C.2     1  UNL1        0.0120
     17  C         17.4110  -22.4610   -5.7610 C.2     1  UNL1       -0.0100
     18  C         19.3820  -20.7300   -4.6960 C.2     1  UNL1        0.0010
     19  C         19.5240  -21.2270   -5.9850 C.2     1  UNL1        0.0010
     20  C         18.5570  -22.0850   -6.5090 C.2     1  UNL1        0.0130
     21  C         19.9580  -22.8020   -9.8790 C.2     1  UNL1        0.0430
     22  C         19.7660  -24.1820   -9.7530 C.2     1  UNL1        0.0300
     23  C         20.6950  -24.9510   -9.0530 C.2     1  UNL1        0.0020
     24  C         21.8150  -24.3470   -8.4830 C.2     1  UNL1        0.0000
     25  C         22.0050  -22.9700   -8.6020 C.2     1  UNL1        0.0020
     26  C         21.0750  -22.1930   -9.2950 C.2     1  UNL1        0.0300
     27  S         20.8420  -20.2360  -11.7590 S.3     1  UNL1       -0.0800
     28  C         21.8010  -21.5060  -12.6300 C.3     1  UNL1        0.1850
     29  C         22.7870  -20.9980  -13.6750 C.2     1  UNL1        0.2340
     30  O         22.3330  -20.4000  -14.6630 O.2     1  UNL1       -0.2720
     31  N         24.1680  -21.0430  -13.4430 N.am    1  UNL1       -0.3170
     32  C         24.9400  -20.0700  -14.2230 C.3     1  UNL1        0.1320
     33  C         24.8570  -21.8230  -12.4610 C.2     1  UNL1        0.0430
     34  C         26.4390  -20.0580  -13.9770 C.3     1  UNL1        0.0250
     35  C         26.7070  -20.1030  -12.4850 C.3     1  UNL1        0.0420
     36  C         26.0880  -21.3630  -11.9480 C.2     1  UNL1       -0.0310
     37  C         26.7510  -22.0780  -10.9370 C.2     1  UNL1        0.0090
     38  C         26.2350  -23.2840  -10.4760 C.2     1  UNL1        0.0010
     39  C         25.0700  -23.7900  -11.0370 C.2     1  UNL1        0.0020
     40  C         24.3970  -23.0700  -12.0280 C.2     1  UNL1        0.0300
@<TRIPOS>BOND
     1    30    29    2
     2    32    34    1
     3    32    31    1
     4    34    35    1
     5    29    31   am
     6    29    28    1
     7    31    33    1
     8    28    27    1
     9    35    36    1
    10    33    40    2
    11    33    36    1
    12     3     2   ar
    13     3     4   ar
    14    40    39    1
    15    36    37    2
    16    27     4    1
    17     2     1   ar
    18     4     5   ar
    19    39    38    2
    20    37    38    1
    21     1     5   ar
    22     1     6    1
    23     5    21    1
    24     6     7    1
    25    21    22    2
    26    21    26    1
    27    22    23    1
    28    26    25    2
    29    23    24    2
    30    25    24    1
    31     7    10    1
    32     7     8   am
    33     9     8    2
    34     8    11    1
    35    20    19    2
    36    20    17    1
    37    11    17    2
    38    11    12    1
    39    19    18    1
    40    17    15    1
    41    12    13    2
    42    18    16    2
    43    15    16    1
    44    15    14    2
    45    13    14    1
