@<TRIPOS>MOLECULE
70393_out_ligand_01.pdbqt
 40 45 0 0 0
SMALL
GASTEIGER

@<TRIPOS>ATOM
      1  C         22.5260  -22.1170   -8.8810 C.ar    1  UNL1        0.1530
      2  N         23.8300  -22.3220   -8.8750 N.ar    1  UNL1       -0.1320
      3  N         24.2090  -22.7440  -10.1150 N.ar    1  UNL1       -0.1220
      4  C         23.1410  -22.7740  -10.8760 C.ar    1  UNL1        0.1960
      5  N         22.0420  -22.3040  -10.1740 N.ar    1  UNL1       -0.2740
      6  C         21.7490  -21.7820   -7.6490 C.3     1  UNL1        0.2040
      7  N         20.4740  -22.4470   -7.5270 N.am    1  UNL1       -0.3500
      8  C         19.4830  -22.0110   -6.6810 C.2     1  UNL1        0.2520
      9  O         19.5940  -21.0580   -5.9200 O.2     1  UNL1       -0.2680
     10  H         20.3250  -23.3090   -8.0390 H       1  UNL1        0.1630
     11  C         18.2650  -22.8630   -6.6520 C.2     1  UNL1        0.0430
     12  C         17.9530  -23.5150   -7.8550 C.2     1  UNL1        0.0180
     13  C         16.7830  -24.2560   -7.9620 C.2     1  UNL1        0.0020
     14  C         15.9260  -24.3580   -6.8680 C.2     1  UNL1        0.0120
     15  C         16.2380  -23.7400   -5.6430 C.2     1  UNL1       -0.0250
     16  C         15.3710  -23.8780   -4.5440 C.2     1  UNL1        0.0120
     17  C         17.4330  -22.9870   -5.5080 C.2     1  UNL1       -0.0100
     18  C         15.6740  -23.3020   -3.3110 C.2     1  UNL1        0.0010
     19  C         16.8550  -22.5880   -3.1530 C.2     1  UNL1        0.0010
     20  C         17.7230  -22.4360   -4.2350 C.2     1  UNL1        0.0130
     21  C         20.7600  -21.9680  -10.6790 C.2     1  UNL1        0.0430
     22  C         19.7220  -22.9130  -10.6000 C.2     1  UNL1        0.0330
     23  C         18.4580  -22.5950  -11.0970 C.2     1  UNL1        0.0440
     24  C         18.2290  -21.3400  -11.6600 C.2     1  UNL1        0.1160
     25  F         17.0120  -21.0420  -12.1310 F       1  UNL1       -0.2060
     26  C         19.2460  -20.3960  -11.7350 C.2     1  UNL1        0.0440
     27  C         20.5200  -20.7060  -11.2460 C.2     1  UNL1        0.0330
     28  S         23.1760  -23.1200  -12.5750 S.3     1  UNL1       -0.0800
     29  C         24.9690  -23.1150  -12.8910 C.3     1  UNL1        0.1850
     30  C         25.3480  -22.2180  -14.0700 C.2     1  UNL1        0.2340
     31  O         25.1070  -22.5950  -15.2220 O.2     1  UNL1       -0.2720
     32  N         25.8800  -20.9720  -13.7590 N.am    1  UNL1       -0.3170
     33  C         26.2520  -20.4930  -12.4150 C.2     1  UNL1        0.1370
     34  C         26.2020  -19.9580  -14.6870 C.2     1  UNL1        0.0430
     35  C         26.8080  -19.0700  -12.5530 C.2     1  UNL1        0.0610
     36  C         26.7370  -18.8480  -14.0280 C.2     1  UNL1       -0.0300
     37  C         27.1210  -17.7080  -14.7230 C.2     1  UNL1        0.0090
     38  C         26.9470  -17.6860  -16.1060 C.2     1  UNL1        0.0010
     39  C         26.4040  -18.7930  -16.7710 C.2     1  UNL1        0.0020
     40  C         26.0300  -19.9410  -16.0630 C.2     1  UNL1        0.0300
@<TRIPOS>BOND
     1    39    38    2
     2    39    40    1
     3    38    37    1
     4    40    34    2
     5    31    30    2
     6    37    36    2
     7    34    36    1
     8    34    32    1
     9    30    32   am
    10    30    29    1
    11    36    35    1
    12    32    33    1
    13    29    28    1
    14    28     4    1
    15    35    33    2
    16    25    24    1
    17    26    24    2
    18    26    27    1
    19    24    23    1
    20    27    21    2
    21    23    22    2
    22     4     5   ar
    23     4     3   ar
    24    21    22    1
    25    21     5    1
    26     5     1   ar
    27     3     2   ar
    28     1     2   ar
    29     1     6    1
    30    10     7    1
    31    13    12    1
    32    13    14    2
    33    12    11    2
    34     6     7    1
    35     7     8   am
    36    14    15    1
    37     8    11    1
    38     8     9    2
    39    11    17    1
    40    15    17    2
    41    15    16    1
    42    17    20    1
    43    16    18    2
    44    20    19    2
    45    18    19    1
