@<TRIPOS>MOLECULE
70415_out_ligand_01.pdbqt
 31 33 0 0 0
SMALL
GASTEIGER

@<TRIPOS>ATOM
      1  C         17.9850  -22.7440   -6.4650 C.2     1  UNL1        0.1180
      2  C         18.9470  -23.1450   -7.4000 C.2     1  UNL1        0.0450
      3  C         20.1790  -22.4810   -7.4560 C.2     1  UNL1        0.0340
      4  C         20.4520  -21.4350   -6.5620 C.2     1  UNL1        0.0200
      5  C         19.4860  -21.0430   -5.6330 C.2     1  UNL1        0.0450
      6  C         18.2550  -21.6950   -5.5930 C.2     1  UNL1        0.1390
      7  F         17.3600  -21.2980   -4.6770 F       1  UNL1       -0.2040
      8  S         16.3940  -23.4950   -6.4510 S.O2    1  UNL1        0.2620
      9  O         15.4170  -22.4350   -6.5800 O.2     1  UNL1       -0.2000
     10  O         16.3200  -24.4330   -5.3540 O.2     1  UNL1       -0.2000
     11  N         16.3410  -24.3280   -7.9020 N.3     1  UNL1       -0.3110
     12  H         17.2090  -24.8320   -8.0910 H       1  UNL1        0.1720
     13  C         15.6840  -23.6960   -9.0460 C.3     1  UNL1        0.1700
     14  C         16.6770  -22.9050   -9.8640 C.2     1  UNL1       -0.0400
     15  C         17.8740  -23.4900  -10.2980 C.2     1  UNL1        0.0090
     16  C         18.7980  -22.7490  -11.0380 C.2     1  UNL1        0.0070
     17  C         18.5420  -21.4090  -11.3580 C.2     1  UNL1       -0.0620
     18  C         19.5510  -20.6120  -12.1310 C.3     1  UNL1        0.0480
     19  C         17.3610  -20.8170  -10.9000 C.2     1  UNL1        0.0070
     20  C         16.4360  -21.5580  -10.1610 C.2     1  UNL1        0.0090
     21  C         21.1870  -22.9310   -8.4540 C.2     1  UNL1        0.2560
     22  O         21.4080  -24.1330   -8.5410 O.2     1  UNL1       -0.2670
     23  N         21.7420  -21.9170   -9.2110 N.am    1  UNL1       -0.3230
     24  H         21.3410  -20.9940   -9.1130 H       1  UNL1        0.1690
     25  C         22.7400  -22.0440  -10.2020 C.2     1  UNL1        0.0350
     26  C         22.5410  -22.6800  -11.4300 C.2     1  UNL1        0.0310
     27  C         23.5840  -22.7680  -12.3600 C.2     1  UNL1        0.0210
     28  C         24.8280  -22.2180  -12.0630 C.2     1  UNL1        0.0110
     29 BR         26.2330  -22.3340  -13.3220 Br      1  UNL1       -0.0510
     30  C         25.0410  -21.5840  -10.8440 C.2     1  UNL1        0.0210
     31  C         23.9990  -21.5030   -9.9150 C.2     1  UNL1        0.0310
@<TRIPOS>BOND
     1    29    28    1
     2    27    28    2
     3    27    26    1
     4    18    17    1
     5    28    30    1
     6    26    25    2
     7    17    16    2
     8    17    19    1
     9    16    15    1
    10    19    20    2
    11    30    31    2
    12    15    14    2
    13    25    31    1
    14    25    23    1
    15    20    14    1
    16    14    13    1
    17    23    24    1
    18    23    21   am
    19    13    11    1
    20    22    21    2
    21    21     3    1
    22    12    11    1
    23    11     8    1
    24     3     2    1
    25     3     4    2
    26     2     1    2
    27     9     8    2
    28     4     5    1
    29     1     8    1
    30     1     6    1
    31     8    10    2
    32     5     6    2
    33     6     7    1
