@<TRIPOS>MOLECULE
7042_out_ligand_01.pdbqt
 31 34 0 0 0
SMALL
GASTEIGER

@<TRIPOS>ATOM
      1  C         23.1810  -22.0740  -12.3420 C.2     1  UNL1        0.0330
      2  C         23.3630  -22.7650  -11.1450 C.2     1  UNL1        0.0190
      3  C         22.3040  -22.8840  -10.2340 C.2     1  UNL1        0.0310
      4  C         21.0430  -22.3210  -10.4860 C.2     1  UNL1        0.0430
      5  C         20.8500  -21.6880  -11.7320 C.2     1  UNL1       -0.0300
      6  C         21.9200  -21.5530  -12.6380 C.2     1  UNL1        0.0260
      7  C         19.5190  -21.1050  -12.1210 C.3     1  UNL1        0.0420
      8  C         18.4080  -21.8720  -11.4370 C.3     1  UNL1        0.0250
      9  C         18.6540  -21.8690   -9.9390 C.3     1  UNL1        0.1330
     10  N         19.9580  -22.4240   -9.5380 N.am    1  UNL1       -0.3130
     11  C         20.1930  -22.7160   -8.1770 C.2     1  UNL1        0.2580
     12  O         21.2830  -22.7590   -7.6110 O.2     1  UNL1       -0.2670
     13  C         24.2780  -21.9070  -13.3390 C.2     1  UNL1        0.2560
     14  N         24.1300  -20.8310  -14.1880 N.am    1  UNL1       -0.3210
     15  H         23.2710  -20.2930  -14.1470 H       1  UNL1        0.1690
     16  O         25.1860  -22.7310  -13.3490 O.2     1  UNL1       -0.2670
     17  C         25.0000  -20.3970  -15.2140 C.2     1  UNL1        0.0680
     18  C         25.9300  -19.3680  -15.0540 C.2     1  UNL1        0.0320
     19  C         26.7560  -18.9970  -16.1170 C.2     1  UNL1        0.0020
     20  C         26.6590  -19.6530  -17.3400 C.2     1  UNL1        0.0030
     21  C         25.7300  -20.6820  -17.5140 C.2     1  UNL1        0.0390
     22  C         24.8920  -21.0560  -16.4590 C.2     1  UNL1        0.0950
     23  O         23.9440  -22.0510  -16.5120 O.2     1  UNL1       -0.3490
     24  C         24.2840  -23.3020  -17.1100 C.3     1  UNL1        0.1710
     25  C         23.2540  -23.6980  -18.1530 C.3     1  UNL1        0.0340
     26  C         19.0250  -22.9820   -7.3090 C.2     1  UNL1        0.0320
     27  C         18.6730  -22.0460   -6.3320 C.2     1  UNL1        0.0170
     28  C         17.5870  -22.3020   -5.4970 C.2     1  UNL1        0.0010
     29  C         16.8680  -23.4910   -5.6290 C.2     1  UNL1        0.0000
     30  C         17.2370  -24.4350   -6.5900 C.2     1  UNL1        0.0010
     31  C         18.3230  -24.1870   -7.4300 C.2     1  UNL1        0.0170
@<TRIPOS>BOND
     1    25    24    1
     2    21    20    2
     3    21    22    1
     4    20    19    1
     5    24    23    1
     6    23    22    1
     7    22    17    2
     8    19    18    2
     9    17    18    1
    10    17    14    1
    11    14    15    1
    12    14    13   am
    13    16    13    2
    14    13     1    1
    15     6     1    2
    16     6     5    1
    17     1     2    1
    18     7     5    1
    19     7     8    1
    20     5     4    2
    21     8     9    1
    22     2     3    2
    23     4     3    1
    24     4    10    1
    25     9    10    1
    26    10    11   am
    27    11    12    2
    28    11    26    1
    29    31    26    2
    30    31    30    1
    31    26    27    1
    32    30    29    2
    33    27    28    2
    34    29    28    1
