@<TRIPOS>MOLECULE
70444_out_ligand_01.pdbqt
 37 40 0 0 0
SMALL
GASTEIGER

@<TRIPOS>ATOM
      1  C         22.3810  -22.0720  -10.7190 C.2     1  UNL1        0.0240
      2  C         21.4440  -21.4760  -11.4720 C.2     1  UNL1        0.0270
      3  C         20.0250  -21.6130  -11.1660 C.2     1  UNL1       -0.0080
      4  C         19.0760  -20.9940  -11.9890 C.2     1  UNL1        0.0140
      5  C         17.7150  -21.1140  -11.7090 C.2     1  UNL1        0.0070
      6  C         17.2890  -21.8440  -10.5990 C.2     1  UNL1       -0.0600
      7  C         15.8250  -22.0120  -10.3150 C.3     1  UNL1        0.0480
      8  C         18.2440  -22.4730   -9.7840 C.2     1  UNL1        0.0370
      9  C         19.6170  -22.3610  -10.0520 C.2     1  UNL1        0.0480
     10  N         20.6160  -22.9950   -9.2480 N.am    1  UNL1       -0.3040
     11  C         21.9700  -22.9200   -9.5590 C.2     1  UNL1        0.2560
     12  O         22.8300  -23.5410   -8.9360 O.2     1  UNL1       -0.2670
     13  C         23.8740  -22.0000  -10.9290 C.3     1  UNL1        0.1360
     14  N         24.3680  -23.1950  -11.6190 N.pl3   1  UNL1       -0.2880
     15  H         23.8360  -24.0240  -11.3580 H       1  UNL1        0.1280
     16  C         24.5540  -23.1650  -13.0090 C.2     1  UNL1        0.0110
     17  C         24.1980  -22.0870  -13.8220 C.2     1  UNL1        0.0260
     18  C         24.4720  -22.0910  -15.1950 C.2     1  UNL1        0.0410
     19  C         25.1390  -23.1660  -15.7830 C.2     1  UNL1        0.1010
     20  C         25.5460  -24.2430  -14.9770 C.2     1  UNL1        0.1030
     21  C         25.2610  -24.2240  -13.6040 C.2     1  UNL1        0.0630
     22  O         25.4470  -23.2570  -17.1180 O.2     1  UNL1       -0.3530
     23  C         24.3690  -23.2760  -18.0420 C.3     1  UNL1        0.2100
     24  O         26.2150  -25.2580  -15.6170 O.2     1  UNL1       -0.3530
     25  C         27.1210  -26.0380  -14.8530 C.3     1  UNL1        0.2100
     26  C         20.2300  -23.7640   -8.0580 C.3     1  UNL1        0.2350
     27  C         19.3330  -23.0200   -7.0580 C.2     1  UNL1        0.2400
     28  O         19.6820  -21.9240   -6.6240 O.2     1  UNL1       -0.2710
     29  N         18.2070  -23.7240   -6.6780 N.am    1  UNL1       -0.3260
     30  H         18.0930  -24.6320   -7.1130 H       1  UNL1        0.1690
     31  C         17.1940  -23.3360   -5.7800 C.2     1  UNL1        0.0350
     32  C         17.3890  -23.6460   -4.4290 C.2     1  UNL1        0.0290
     33  C         16.4300  -23.3050   -3.4750 C.2     1  UNL1        0.0030
     34  C         15.2650  -22.6460   -3.8610 C.2     1  UNL1        0.0070
     35  C         15.0580  -22.3160   -5.2040 C.2     1  UNL1       -0.0600
     36  C         13.7910  -21.6350   -5.6340 C.3     1  UNL1        0.0480
     37  C         16.0230  -22.6750   -6.1600 C.2     1  UNL1        0.0360
@<TRIPOS>BOND
     1    23    22    1
     2    22    19    1
     3    19    18    2
     4    19    20    1
     5    24    20    1
     6    24    25    1
     7    18    17    1
     8    20    21    2
     9    17    16    2
    10    21    16    1
    11    16    14    1
    12     4     5    1
    13     4     3    2
    14     5     6    2
    15    14    15    1
    16    14    13    1
    17     2     3    1
    18     2     1    2
    19     3     9    1
    20    13     1    1
    21     1    11    1
    22     6     7    1
    23     6     8    1
    24     9     8    2
    25     9    10    1
    26    11    10   am
    27    11    12    2
    28    10    26    1
    29    26    27    1
    30    30    29    1
    31    27    29   am
    32    27    28    2
    33    29    31    1
    34    37    31    2
    35    37    35    1
    36    31    32    1
    37    36    35    1
    38    35    34    2
    39    32    33    2
    40    34    33    1
