@<TRIPOS>MOLECULE
70454_out_ligand_01.pdbqt
 45 49 0 0 0
SMALL
GASTEIGER

@<TRIPOS>ATOM
      1  N         23.2580  -22.0620  -12.2960 N.ar    1  UNL1       -0.2740
      2  C         22.4660  -21.4300  -13.2570 C.ar    1  UNL1        0.1530
      3  N         23.0580  -21.5080  -14.4340 N.ar    1  UNL1       -0.1320
      4  N         24.2460  -22.1540  -14.2800 N.ar    1  UNL1       -0.1220
      5  C         24.3760  -22.4670  -13.0140 C.ar    1  UNL1        0.1960
      6  C         21.1070  -20.8600  -13.0610 C.3     1  UNL1        0.2040
      7  N         20.4520  -21.5280  -11.9580 N.am    1  UNL1       -0.3500
      8  C         19.2290  -21.0860  -11.5020 C.2     1  UNL1        0.2520
      9  O         18.6590  -20.0920  -11.9400 O.2     1  UNL1       -0.2680
     10  H         20.7300  -22.4820  -11.7640 H       1  UNL1        0.1630
     11  C         18.5920  -21.9070  -10.4400 C.2     1  UNL1        0.0320
     12  C         17.4770  -22.7160  -10.7040 C.2     1  UNL1        0.0180
     13  C         16.9090  -23.4760   -9.6770 C.2     1  UNL1        0.0260
     14  C         17.4720  -23.4430   -8.3970 C.2     1  UNL1        0.0790
     15  C         18.5750  -22.6280   -8.1250 C.2     1  UNL1        0.0260
     16  C         19.1440  -21.8720   -9.1520 C.2     1  UNL1        0.0180
     17  S         16.7260  -24.3850   -7.0770 S.O2    1  UNL1        0.2610
     18  O         17.7740  -25.1820   -6.4740 O.2     1  UNL1       -0.2000
     19  O         15.5270  -24.9960   -7.6100 O.2     1  UNL1       -0.2000
     20  N         16.2630  -23.2030   -5.9630 N.3     1  UNL1       -0.3030
     21  C         16.9930  -23.1130   -4.6680 C.3     1  UNL1        0.1610
     22  C         16.0390  -23.3480   -3.4910 C.3     1  UNL1        0.1880
     23  O         14.9460  -22.4210   -3.4380 O.3     1  UNL1       -0.3880
     24  C         14.5850  -21.8820   -4.7180 C.3     1  UNL1        0.1880
     25  C         14.8150  -22.8730   -5.8640 C.3     1  UNL1        0.1610
     26  C         22.9450  -22.3050  -10.9280 C.2     1  UNL1        0.0430
     27  C         23.2950  -21.3800   -9.9410 C.2     1  UNL1        0.0300
     28  C         22.9390  -21.6060   -8.6100 C.2     1  UNL1        0.0030
     29  C         22.2370  -22.7560   -8.2550 C.2     1  UNL1        0.0070
     30  C         21.8780  -23.6910   -9.2280 C.2     1  UNL1       -0.0600
     31  C         21.1470  -24.9460   -8.8500 C.3     1  UNL1        0.0480
     32  C         22.2420  -23.4640  -10.5630 C.2     1  UNL1        0.0370
     33  S         25.8380  -23.1130  -12.3300 S.3     1  UNL1       -0.0800
     34  C         27.0660  -22.5830  -13.5660 C.3     1  UNL1        0.1850
     35  C         27.0540  -21.0900  -13.8780 C.2     1  UNL1        0.2310
     36  O         27.1210  -20.2790  -12.9560 O.2     1  UNL1       -0.2720
     37  N         26.8580  -20.7780  -15.2110 N.am    1  UNL1       -0.3270
     38  H         26.8060  -21.5710  -15.8400 H       1  UNL1        0.1690
     39  C         26.7970  -19.5030  -15.8050 C.2     1  UNL1        0.0340
     40  C         26.7780  -18.3970  -14.9410 C.2     1  UNL1        0.0320
     41  C         26.7120  -17.0980  -15.4480 C.2     1  UNL1        0.0440
     42  C         26.6620  -16.9020  -16.8220 C.2     1  UNL1        0.1160
     43  F         26.5980  -15.6570  -17.3100 F       1  UNL1       -0.2060
     44  C         26.6780  -17.9820  -17.6940 C.2     1  UNL1        0.0440
     45  C         26.7460  -19.2840  -17.1850 C.2     1  UNL1        0.0320
@<TRIPOS>BOND
     1    44    45    1
     2    44    42    2
     3    43    42    1
     4    45    39    2
     5    42    41    1
     6    38    37    1
     7    39    37    1
     8    39    40    1
     9    41    40    2
    10    37    35   am
    11     3     4   ar
    12     3     2   ar
    13     4     5   ar
    14    35    34    1
    15    35    36    2
    16    34    33    1
    17     2     6    1
    18     2     1   ar
    19     6     7    1
    20     5    33    1
    21     5     1   ar
    22     1    26    1
    23     7    10    1
    24     7     8   am
    25     9     8    2
    26     8    11    1
    27    26    32    2
    28    26    27    1
    29    12    11    2
    30    12    13    1
    31    32    30    1
    32    11    16    1
    33    27    28    2
    34    13    14    2
    35    30    31    1
    36    30    29    2
    37    16    15    2
    38    28    29    1
    39    14    15    1
    40    14    17    1
    41    19    17    2
    42    17    18    2
    43    17    20    1
    44    20    25    1
    45    20    21    1
    46    25    24    1
    47    24    23    1
    48    21    22    1
    49    22    23    1
