@<TRIPOS>MOLECULE
70451_out_ligand_01.pdbqt
 39 43 0 0 0
SMALL
GASTEIGER

@<TRIPOS>ATOM
      1  C         17.1510  -22.1900  -10.3880 C.ar    1  UNL1        0.1530
      2  N         16.5300  -21.2540  -11.0860 N.ar    1  UNL1       -0.1320
      3  N         17.4700  -20.4000  -11.5870 N.ar    1  UNL1       -0.1220
      4  C         18.6510  -20.8180  -11.1940 C.ar    1  UNL1        0.1960
      5  N         18.5270  -21.9700  -10.4290 N.ar    1  UNL1       -0.2740
      6  C         16.4740  -23.2460   -9.5870 C.3     1  UNL1        0.2040
      7  N         16.5040  -22.8850   -8.1890 N.am    1  UNL1       -0.3500
      8  C         16.4030  -23.8480   -7.2150 C.2     1  UNL1        0.2520
      9  O         16.2810  -25.0410   -7.4620 O.2     1  UNL1       -0.2680
     10  H         16.6330  -21.9080   -7.9470 H       1  UNL1        0.1630
     11  C         16.4450  -23.3440   -5.8190 C.2     1  UNL1        0.0430
     12  C         15.4630  -23.8120   -4.9360 C.2     1  UNL1        0.0180
     13  C         15.4540  -23.3820   -3.6160 C.2     1  UNL1        0.0020
     14  C         16.4230  -22.4840   -3.1730 C.2     1  UNL1        0.0120
     15  C         17.4170  -22.0000   -4.0400 C.2     1  UNL1       -0.0250
     16  C         18.3760  -21.0850   -3.5750 C.2     1  UNL1        0.0120
     17  C         17.4470  -22.4320   -5.3900 C.2     1  UNL1       -0.0100
     18  C         19.3600  -20.5800   -4.4240 C.2     1  UNL1        0.0010
     19  C         19.4050  -20.9950   -5.7470 C.2     1  UNL1        0.0010
     20  C         18.4620  -21.9060   -6.2250 C.2     1  UNL1        0.0130
     21  C         19.5460  -22.7680   -9.8380 C.2     1  UNL1        0.0430
     22  C         20.6110  -22.1550   -9.1600 C.2     1  UNL1        0.0330
     23  C         21.6150  -22.9360   -8.5840 C.2     1  UNL1        0.0440
     24  C         21.5550  -24.3200   -8.6830 C.2     1  UNL1        0.1160
     25  F         22.5200  -25.0630   -8.1270 F       1  UNL1       -0.2060
     26  C         20.5060  -24.9400   -9.3500 C.2     1  UNL1        0.0440
     27  C         19.4980  -24.1670   -9.9300 C.2     1  UNL1        0.0330
     28  S         20.1460  -20.1230  -11.7340 S.3     1  UNL1       -0.0850
     29  C         20.7320  -21.4340  -12.8430 C.3     1  UNL1        0.1210
     30  C         22.2390  -21.4420  -12.9600 C.2     1  UNL1       -0.0480
     31  C         22.8620  -20.8560  -14.0670 C.2     1  UNL1        0.0080
     32  C         24.2510  -20.8590  -14.1860 C.2     1  UNL1        0.0010
     33  C         25.0370  -21.4450  -13.1950 C.2     1  UNL1        0.0160
     34  C         24.4410  -22.0350  -12.0740 C.2     1  UNL1        0.0480
     35  C         23.0400  -22.0340  -11.9700 C.2     1  UNL1        0.0240
     36  C         25.3050  -22.6110  -10.9790 C.3     1  UNL1        0.4170
     37  F         24.5660  -23.1240   -9.9570 F       1  UNL1       -0.1660
     38  F         26.1300  -21.6880  -10.4120 F       1  UNL1       -0.1660
     39  F         26.1200  -23.6230  -11.3990 F       1  UNL1       -0.1660
@<TRIPOS>BOND
     1    32    31    1
     2    32    33    2
     3    31    30    2
     4    33    34    1
     5    30    29    1
     6    30    35    1
     7    29    28    1
     8    34    35    2
     9    34    36    1
    10    28     4    1
    11     3     4   ar
    12     3     2   ar
    13    39    36    1
    14     4     5   ar
    15     2     1   ar
    16    36    38    1
    17    36    37    1
    18     5     1   ar
    19     5    21    1
    20     1     6    1
    21    27    21    2
    22    27    26    1
    23    21    22    1
    24     6     7    1
    25    26    24    2
    26    22    23    2
    27    24    23    1
    28    24    25    1
    29     7    10    1
    30     7     8   am
    31     9     8    2
    32     8    11    1
    33    20    19    2
    34    20    17    1
    35    11    17    2
    36    11    12    1
    37    19    18    1
    38    17    15    1
    39    12    13    2
    40    18    16    2
    41    15    16    1
    42    15    14    2
    43    13    14    1
