@<TRIPOS>MOLECULE
70461_out_ligand_01.pdbqt
 44 49 0 0 0
SMALL
GASTEIGER

@<TRIPOS>ATOM
      1  N         24.6430  -23.1520  -12.1670 N.ar    1  UNL1       -0.2740
      2  C         25.2500  -23.2470  -10.9180 C.ar    1  UNL1        0.1530
      3  N         26.3270  -24.0090  -11.0090 N.ar    1  UNL1       -0.1320
      4  N         26.4390  -24.4460  -12.2980 N.ar    1  UNL1       -0.1220
      5  C         25.4320  -23.9510  -12.9790 C.ar    1  UNL1        0.1960
      6  C         24.8850  -22.4720   -9.7050 C.3     1  UNL1        0.2040
      7  N         23.5850  -22.9240   -9.2580 N.am    1  UNL1       -0.3500
      8  C         22.7560  -22.1000   -8.5320 C.2     1  UNL1        0.2520
      9  O         23.0750  -20.9710   -8.1790 O.2     1  UNL1       -0.2680
     10  H         23.1990  -23.7250   -9.7400 H       1  UNL1        0.1630
     11  C         21.4040  -22.6380   -8.2040 C.2     1  UNL1        0.0320
     12  C         20.9840  -23.9110   -8.6240 C.2     1  UNL1        0.0180
     13  C         19.7140  -24.3810   -8.2800 C.2     1  UNL1        0.0260
     14  C         18.8670  -23.5790   -7.5090 C.2     1  UNL1        0.0740
     15  C         19.2790  -22.3190   -7.0690 C.2     1  UNL1        0.0260
     16  C         20.5490  -21.8510   -7.4170 C.2     1  UNL1        0.0180
     17  S         17.2570  -24.1690   -7.0460 S.O2    1  UNL1        0.2430
     18  O         16.4240  -24.2080   -8.2310 O.2     1  UNL1       -0.2060
     19  O         17.4470  -25.3450   -6.2230 O.2     1  UNL1       -0.2060
     20  N         16.6780  -22.9190   -6.0570 N.3     1  UNL1       -0.2060
     21  C         15.3480  -22.3410   -6.3900 C.3     1  UNL1        0.1070
     22  C         14.5410  -22.4110   -5.1010 C.3     1  UNL1        0.0170
     23  C         15.6040  -22.3400   -4.0240 C.3     1  UNL1        0.0170
     24  C         16.7020  -23.2190   -4.6020 C.3     1  UNL1        0.1070
     25  C         23.5240  -22.3630  -12.5320 C.2     1  UNL1        0.0430
     26  C         23.6300  -21.4460  -13.5860 C.2     1  UNL1        0.0300
     27  C         22.5270  -20.6690  -13.9430 C.2     1  UNL1        0.0030
     28  C         21.3220  -20.8040  -13.2560 C.2     1  UNL1        0.0070
     29  C         21.2050  -21.7140  -12.2000 C.2     1  UNL1       -0.0600
     30  C         19.8950  -21.8920  -11.4900 C.3     1  UNL1        0.0480
     31  C         22.3090  -22.5060  -11.8520 C.2     1  UNL1        0.0370
     32  S         25.0760  -24.4230  -14.6120 S.3     1  UNL1       -0.0800
     33  C         26.4890  -23.7210  -15.5160 C.3     1  UNL1        0.1850
     34  C         26.0630  -22.8420  -16.6700 C.2     1  UNL1        0.2340
     35  O         25.6780  -23.4030  -17.7090 O.2     1  UNL1       -0.2720
     36  N         26.1010  -21.4670  -16.5930 N.am    1  UNL1       -0.3170
     37  C         25.7630  -20.6990  -17.8010 C.2     1  UNL1        0.1370
     38  C         26.4480  -20.5630  -15.5690 C.2     1  UNL1        0.0430
     39  C         25.9120  -19.2140  -17.4800 C.2     1  UNL1        0.0610
     40  C         26.3380  -19.2520  -16.0490 C.2     1  UNL1       -0.0300
     41  C         26.6120  -18.1460  -15.2530 C.2     1  UNL1        0.0090
     42  C         27.0070  -18.3590  -13.9360 C.2     1  UNL1        0.0010
     43  C         27.1210  -19.6630  -13.4430 C.2     1  UNL1        0.0020
     44  C         26.8400  -20.7700  -14.2580 C.2     1  UNL1        0.0300
@<TRIPOS>BOND
     1    37    39    2
     2    37    36    1
     3    35    34    2
     4    39    40    1
     5    34    36   am
     6    34    33    1
     7    36    38    1
     8    40    38    2
     9    40    41    1
    10    38    44    1
    11    33    32    1
    12    41    42    2
    13    32     5    1
    14    44    43    2
    15    27    26    1
    16    27    28    2
    17    42    43    1
    18    26    25    2
    19    28    29    1
    20     5     4   ar
    21     5     1   ar
    22    25     1    1
    23    25    31    1
    24     4     3   ar
    25    29    31    2
    26    29    30    1
    27     1     2   ar
    28     3     2   ar
    29     2     6    1
    30    10     7    1
    31     6     7    1
    32     7     8   am
    33    12    13    1
    34    12    11    2
    35     8    11    1
    36     8     9    2
    37    13    14    2
    38    18    17    2
    39    11    16    1
    40    14    15    1
    41    14    17    1
    42    16    15    2
    43    17    19    2
    44    17    20    1
    45    21    20    1
    46    21    22    1
    47    20    24    1
    48    22    23    1
    49    24    23    1
