@<TRIPOS>MOLECULE
70477_out_ligand_01.pdbqt
 33 35 0 0 0
SMALL
GASTEIGER

@<TRIPOS>ATOM
      1  C         19.0180  -22.2780  -10.0440 C.2     1  UNL1        0.0810
      2  C         20.4060  -22.4820  -10.0020 C.2     1  UNL1        0.0420
      3  C         21.2420  -21.8150  -10.9030 C.2     1  UNL1        0.0330
      4  C         20.6900  -20.9530  -11.8540 C.2     1  UNL1        0.0170
      5  C         19.3070  -20.7490  -11.8920 C.2     1  UNL1        0.0090
      6  C         18.4490  -21.4090  -10.9960 C.2     1  UNL1       -0.0390
      7  C         16.9740  -21.1310  -11.0860 C.3     1  UNL1        0.0500
      8  S         18.0190  -23.1490   -8.8410 S.O2    1  UNL1        0.2460
      9  O         16.8190  -23.6020   -9.5100 O.2     1  UNL1       -0.2060
     10  O         18.8820  -24.0710   -8.1360 O.2     1  UNL1       -0.2060
     11  N         17.5660  -21.8520   -7.8280 N.pl3   1  UNL1       -0.1810
     12  H         16.7580  -21.3910   -8.2470 H       1  UNL1        0.1460
     13  C         17.3260  -22.2190   -6.4580 C.2     1  UNL1        0.0290
     14  C         18.1990  -21.8240   -5.4300 C.2     1  UNL1       -0.0400
     15  C         17.8970  -22.2000   -4.1130 C.2     1  UNL1        0.0090
     16  C         19.4400  -21.0160   -5.6890 C.3     1  UNL1        0.0500
     17  C         16.7510  -22.9450   -3.8230 C.2     1  UNL1        0.0070
     18  C         15.8750  -23.3210   -4.8430 C.2     1  UNL1       -0.0600
     19  C         14.6510  -24.1340   -4.5470 C.3     1  UNL1        0.0480
     20  C         16.1770  -22.9600   -6.1610 C.2     1  UNL1        0.0310
     21  C         22.7040  -22.0770  -10.8410 C.2     1  UNL1        0.2520
     22  O         23.3240  -21.8370   -9.8110 O.2     1  UNL1       -0.2680
     23  N         23.2860  -22.5570  -11.9930 N.am    1  UNL1       -0.3490
     24  H         22.7650  -22.5000  -12.8590 H       1  UNL1        0.1630
     25  C         24.7250  -22.7490  -12.0940 C.3     1  UNL1        0.1140
     26  C         25.0760  -23.9370  -12.9950 C.3     1  UNL1        0.0370
     27  C         25.3740  -21.4600  -12.5730 C.2     1  UNL1       -0.0360
     28  C         25.1540  -20.9620  -13.8710 C.2     1  UNL1        0.0120
     29  C         25.7450  -19.7660  -14.2830 C.2     1  UNL1        0.0430
     30  C         26.5540  -19.0610  -13.4000 C.2     1  UNL1        0.1160
     31  F         27.1200  -17.9140  -13.7970 F       1  UNL1       -0.2060
     32  C         26.7790  -19.5270  -12.1110 C.2     1  UNL1        0.0430
     33  C         26.1890  -20.7230  -11.6970 C.2     1  UNL1        0.0120
@<TRIPOS>BOND
     1    29    28    1
     2    29    30    2
     3    28    27    2
     4    31    30    1
     5    30    32    1
     6    26    25    1
     7    24    23    1
     8    27    25    1
     9    27    33    1
    10    32    33    2
    11    25    23    1
    12    23    21   am
    13     5     4    2
    14     5     6    1
    15     4     3    1
    16     7     6    1
    17     6     1    2
    18     3    21    1
    19     3     2    2
    20    21    22    2
    21     1     2    1
    22     1     8    1
    23     9     8    2
    24     8    10    2
    25     8    11    1
    26    12    11    1
    27    11    13    1
    28    13    20    2
    29    13    14    1
    30    20    18    1
    31    16    14    1
    32    14    15    2
    33    18    19    1
    34    18    17    2
    35    15    17    1
