@<TRIPOS>MOLECULE
70476_out_ligand_01.pdbqt
 37 41 0 0 0
SMALL
GASTEIGER

@<TRIPOS>ATOM
      1  O         19.2220  -21.1980   -6.0900 O.2     1  UNL1       -0.2670
      2  C         19.3660  -22.2880   -6.6330 C.2     1  UNL1        0.2560
      3  N         18.5660  -23.3990   -6.4650 N.am    1  UNL1       -0.3220
      4  H         18.8640  -24.2620   -6.9240 H       1  UNL1        0.1690
      5  C         20.5390  -22.4890   -7.5370 C.2     1  UNL1        0.0320
      6  C         21.5670  -21.5430   -7.6470 C.2     1  UNL1        0.0170
      7  C         22.6280  -21.7570   -8.5330 C.2     1  UNL1        0.0100
      8  C         22.6930  -22.9260   -9.3060 C.2     1  UNL1       -0.0400
      9  C         21.6700  -23.8770   -9.1740 C.2     1  UNL1        0.0100
     10  C         20.6080  -23.6660   -8.2910 C.2     1  UNL1        0.0170
     11  C         23.8200  -23.1130  -10.3030 C.3     1  UNL1        0.1610
     12  N         23.7160  -22.1620  -11.4190 N.pl3   1  UNL1       -0.3760
     13  C         22.6430  -22.4660  -12.3740 C.3     1  UNL1        0.1230
     14  C         22.4320  -21.3300  -13.3580 C.3     1  UNL1        0.0240
     15  C         23.7180  -21.1120  -14.1330 C.3     1  UNL1        0.0420
     16  C         24.8830  -20.9420  -13.1930 C.2     1  UNL1       -0.0320
     17  C         26.0230  -20.2630  -13.6660 C.2     1  UNL1        0.0090
     18  C         24.8430  -21.4770  -11.8860 C.2     1  UNL1        0.0360
     19  C         27.1210  -20.0630  -12.8390 C.2     1  UNL1        0.0010
     20  C         27.0840  -20.5310  -11.5340 C.2     1  UNL1        0.0020
     21  C         25.9570  -21.2180  -11.0670 C.2     1  UNL1        0.0300
     22  C         17.3670  -23.5320   -5.7210 C.2     1  UNL1        0.0500
     23  C         17.3610  -23.6030   -4.3230 C.2     1  UNL1        0.0300
     24  C         16.1610  -23.7060   -3.6150 C.2     1  UNL1        0.0020
     25  C         14.9460  -23.7290   -4.2920 C.2     1  UNL1        0.0010
     26  C         14.9280  -23.6630   -5.6850 C.2     1  UNL1        0.0190
     27  C         16.1290  -23.5840   -6.4100 C.2     1  UNL1        0.0580
     28  C         16.0930  -23.5450   -7.9070 C.2     1  UNL1        0.2540
     29  O         15.9240  -24.5780   -8.5500 O.2     1  UNL1       -0.2680
     30  N         16.1930  -22.3060   -8.5050 N.am    1  UNL1       -0.3510
     31  H         16.0680  -21.4750   -7.9440 H       1  UNL1        0.1630
     32  C         15.9870  -22.1430   -9.9290 C.3     1  UNL1        0.1870
     33  C         17.2930  -21.8440  -10.5660 C.2     1  UNL1        0.0700
     34  C         18.5020  -22.5090  -10.6090 C.2     1  UNL1        0.0360
     35  C         19.3690  -21.7100  -11.3920 C.2     1  UNL1        0.0270
     36  C         18.6390  -20.6080  -11.7720 C.2     1  UNL1        0.1420
     37  O         17.3750  -20.6830  -11.2810 O.2     1  UNL1       -0.3250
@<TRIPOS>BOND
     1    15    14    1
     2    15    16    1
     3    17    16    2
     4    17    19    1
     5    14    13    1
     6    16    18    1
     7    19    20    2
     8    13    12    1
     9    18    12    1
    10    18    21    2
    11    36    35    2
    12    36    37    1
    13    20    21    1
    14    12    11    1
    15    35    34    1
    16    37    33    1
    17    34    33    2
    18    33    32    1
    19    11     8    1
    20    32    30    1
    21     8     9    2
    22     8     7    1
    23     9    10    1
    24    29    28    2
    25     7     6    2
    26    30    31    1
    27    30    28   am
    28    10     5    2
    29    28    27    1
    30     6     5    1
    31     5     2    1
    32     4     3    1
    33     2     3   am
    34     2     1    2
    35     3    22    1
    36    27    22    2
    37    27    26    1
    38    22    23    1
    39    26    25    2
    40    23    24    2
    41    25    24    1
