@<TRIPOS>MOLECULE
70485_out_ligand_01.pdbqt
 33 35 0 0 0
SMALL
GASTEIGER

@<TRIPOS>ATOM
      1  C         22.6380  -21.7300  -10.8380 C.2     1  UNL1        0.0290
      2  C         22.1890  -21.0770  -11.9930 C.2     1  UNL1        0.0250
      3  C         20.8630  -21.1810  -12.4000 C.2     1  UNL1        0.0030
      4  C         19.9760  -21.9370  -11.6420 C.2     1  UNL1        0.0170
      5  C         20.4160  -22.6010  -10.4810 C.2     1  UNL1        0.0390
      6  C         21.7610  -22.5080  -10.0570 C.2     1  UNL1       -0.0240
      7  C         22.2050  -23.1850   -8.7880 C.3     1  UNL1        0.0510
      8  C         19.4060  -23.3850   -9.7130 C.2     1  UNL1        0.2520
      9  O         19.6340  -24.5330   -9.3650 O.2     1  UNL1       -0.2680
     10  N         18.2340  -22.7120   -9.4550 N.am    1  UNL1       -0.3490
     11  H         18.1110  -21.7740   -9.8100 H       1  UNL1        0.1630
     12  C         17.2050  -23.2300   -8.5700 C.3     1  UNL1        0.1140
     13  C         15.8180  -22.8420   -9.0930 C.3     1  UNL1        0.0370
     14  C         17.4940  -22.7340   -7.1550 C.2     1  UNL1       -0.0300
     15  C         18.5860  -21.8780   -6.9160 C.2     1  UNL1        0.0100
     16  C         18.9070  -21.4490   -5.6260 C.2     1  UNL1        0.0070
     17  C         18.1520  -21.8740   -4.5340 C.2     1  UNL1       -0.0610
     18  C         18.4930  -21.4030   -3.1530 C.3     1  UNL1        0.0480
     19  C         17.0620  -22.7240   -4.7560 C.2     1  UNL1        0.0140
     20  C         16.7330  -23.1750   -6.0480 C.2     1  UNL1       -0.0530
     21  C         15.5620  -24.1150   -6.2010 C.3     1  UNL1        0.0490
     22  N         24.0130  -21.5060  -10.4830 N.pl3   1  UNL1       -0.1810
     23  H         24.2660  -20.5160  -10.5160 H       1  UNL1        0.1460
     24  S         25.1370  -22.3530  -11.4520 S.O2    1  UNL1        0.2450
     25  O         26.2860  -22.7440  -10.6640 O.2     1  UNL1       -0.2060
     26  O         24.3760  -23.3020  -12.2380 O.2     1  UNL1       -0.2060
     27  C         25.6590  -21.0430  -12.5340 C.2     1  UNL1        0.0740
     28  C         25.2490  -21.0310  -13.8680 C.2     1  UNL1        0.0250
     29  C         25.6680  -19.9940  -14.7040 C.2     1  UNL1        0.0080
     30  C         26.5060  -18.9800  -14.2190 C.2     1  UNL1       -0.0620
     31  C         26.9240  -17.8540  -15.1190 C.3     1  UNL1        0.0480
     32  C         26.9100  -19.0080  -12.8770 C.2     1  UNL1        0.0080
     33  C         26.4940  -20.0400  -12.0350 C.2     1  UNL1        0.0250
@<TRIPOS>BOND
     1    31    30    1
     2    29    30    2
     3    29    28    1
     4    30    32    1
     5    28    27    2
     6    32    33    2
     7    27    33    1
     8    27    24    1
     9     3     2    1
    10     3     4    2
    11    26    24    2
    12     2     1    2
    13     4     5    1
    14    24    25    2
    15    24    22    1
    16     1    22    1
    17     1     6    1
    18    23    22    1
    19     5     6    2
    20     5     8    1
    21     6     7    1
    22    11    10    1
    23     8    10   am
    24     8     9    2
    25    10    12    1
    26    13    12    1
    27    12    14    1
    28    14    15    2
    29    14    20    1
    30    15    16    1
    31    21    20    1
    32    20    19    2
    33    16    17    2
    34    19    17    1
    35    17    18    1
