@<TRIPOS>MOLECULE
70497_out_ligand_01.pdbqt
 40 43 0 0 0
SMALL
GASTEIGER

@<TRIPOS>ATOM
      1  N         21.2360  -22.0880   -8.2650 N.am    1  UNL1       -0.3230
      2  C         20.1950  -22.8950   -7.8420 C.2     1  UNL1        0.2560
      3  O         19.8460  -23.9630   -8.3310 O.2     1  UNL1       -0.2670
      4  H         21.4940  -21.3110   -7.6690 H       1  UNL1        0.1690
      5  C         22.0510  -22.2730   -9.4020 C.2     1  UNL1        0.0350
      6  C         23.3600  -22.7270   -9.1820 C.2     1  UNL1        0.0310
      7  C         24.2340  -22.9360  -10.2510 C.2     1  UNL1        0.0270
      8  C         23.7970  -22.6920  -11.5540 C.2     1  UNL1        0.0750
      9  C         22.5060  -22.2180  -11.7870 C.2     1  UNL1        0.0270
     10  C         21.6350  -22.0160  -10.7120 C.2     1  UNL1        0.0310
     11  S         24.9230  -22.9230  -12.9090 S.O2    1  UNL1        0.2480
     12  O         24.7530  -24.2960  -13.3460 O.2     1  UNL1       -0.2050
     13  O         26.2350  -22.4400  -12.5340 O.2     1  UNL1       -0.2050
     14  N         24.2890  -21.9820  -14.1230 N.pl3   1  UNL1       -0.1480
     15  H         23.3080  -21.7670  -13.9950 H       1  UNL1        0.1490
     16  C         24.5950  -22.3460  -15.4290 C.cat   1  UNL1        0.2160
     17  N         23.6010  -22.9910  -16.0450 N.2     1  UNL1       -0.2230
     18  C         23.7910  -23.2460  -17.3550 C.2     1  UNL1        0.0360
     19  C         24.9230  -22.8310  -18.0330 C.2     1  UNL1        0.0530
     20  C         22.7150  -24.0050  -18.0740 C.3     1  UNL1        0.0700
     21  C         25.8580  -22.1210  -17.3050 C.2     1  UNL1        0.0360
     22  C         27.1060  -21.6140  -17.9610 C.3     1  UNL1        0.0700
     23  N         25.6930  -21.8510  -15.9970 N.2     1  UNL1       -0.2230
     24  C         19.4670  -22.4060   -6.6380 C.2     1  UNL1        0.0340
     25  C         19.7530  -21.1230   -6.1540 C.2     1  UNL1        0.0170
     26  C         19.0840  -20.6310   -5.0320 C.2     1  UNL1        0.0030
     27  C         18.1350  -21.4210   -4.3840 C.2     1  UNL1        0.0300
     28  C         17.8710  -22.7080   -4.8500 C.2     1  UNL1        0.0430
     29  C         18.5320  -23.2070   -5.9720 C.2     1  UNL1        0.0470
     30  N         16.8780  -23.5060   -4.2200 N.pl3   1  UNL1       -0.2810
     31  H         16.8850  -23.5480   -3.2000 H       1  UNL1        0.1790
     32  S         15.2890  -23.3840   -4.7960 S.O2    1  UNL1        0.2630
     33  O         14.7420  -22.1040   -4.4010 O.2     1  UNL1       -0.2000
     34  O         14.6320  -24.6220   -4.4340 O.2     1  UNL1       -0.2000
     35  C         15.5160  -23.3960   -6.5560 C.2     1  UNL1        0.0790
     36  C         15.6990  -24.6110   -7.2260 C.2     1  UNL1        0.0250
     37  C         15.8780  -24.6090   -8.6090 C.2     1  UNL1        0.0020
     38  C         15.8760  -23.4020   -9.3120 C.2     1  UNL1        0.0000
     39  C         15.6970  -22.1930   -8.6370 C.2     1  UNL1        0.0020
     40  C         15.5230  -22.1850   -7.2530 C.2     1  UNL1        0.0250
@<TRIPOS>BOND
     1    20    18    1
     2    19    18    2
     3    19    21    1
     4    22    21    1
     5    18    17    1
     6    21    23    2
     7    17    16    2
     8    23    16    1
     9    16    14    1
    10    14    15    1
    11    14    11    1
    12    12    11    2
    13    11    13    2
    14    11     8    1
    15     9     8    2
    16     9    10    1
    17     8     7    1
    18    10     5    2
    19     7     6    2
    20     5     6    1
    21     5     1    1
    22    38    39    2
    23    38    37    1
    24    39    40    1
    25    37    36    2
    26     3     2    2
    27     1     2   am
    28     1     4    1
    29     2    24    1
    30    40    35    2
    31    36    35    1
    32    24    25    2
    33    24    29    1
    34    35    32    1
    35    25    26    1
    36    29    28    2
    37    26    27    2
    38    28    27    1
    39    28    30    1
    40    32    34    2
    41    32    33    2
    42    32    30    1
    43    30    31    1
