@<TRIPOS>MOLECULE
7049_out_ligand_01.pdbqt
 29 32 0 0 0
SMALL
GASTEIGER

@<TRIPOS>ATOM
      1  C         17.7710  -23.0280   -8.4730 C.3     1  UNL1        0.1690
      2  C         19.2140  -22.5420   -8.3430 C.3     1  UNL1        0.0770
      3  C         19.7210  -22.2160   -9.7180 C.2     1  UNL1       -0.0380
      4  C         21.0750  -22.3580  -10.0490 C.2     1  UNL1        0.0250
      5  C         21.5270  -22.0210  -11.3330 C.2     1  UNL1        0.0320
      6  C         20.6180  -21.5560  -12.2930 C.2     1  UNL1        0.0180
      7  C         19.2700  -21.3980  -11.9570 C.2     1  UNL1        0.0190
      8  C         18.8220  -21.7240  -10.6720 C.2     1  UNL1        0.0450
      9  C         17.3910  -21.5120  -10.3230 C.2     1  UNL1        0.2940
     10  O         16.6510  -20.8710  -11.0560 O.2     1  UNL1       -0.2590
     11  O         16.9660  -22.0350   -9.1450 O.3     1  UNL1       -0.3070
     12  C         22.9730  -22.2030  -11.6440 C.2     1  UNL1        0.2560
     13  O         23.7440  -22.3810  -10.7090 O.2     1  UNL1       -0.2670
     14  N         23.3000  -22.1120  -12.9850 N.am    1  UNL1       -0.3230
     15  H         22.5660  -21.8260  -13.6190 H       1  UNL1        0.1690
     16  C         24.5750  -22.2810  -13.5670 C.2     1  UNL1        0.0360
     17  C         25.2860  -21.1170  -13.8920 C.2     1  UNL1        0.0290
     18  C         26.5540  -21.1920  -14.4750 C.2     1  UNL1        0.0040
     19  C         27.1210  -22.4350  -14.7440 C.2     1  UNL1        0.0240
     20  C         26.4170  -23.5940  -14.4270 C.2     1  UNL1        0.0360
     21 CL         27.1210  -25.1290  -14.7640 Cl      1  UNL1       -0.0840
     22  C         25.1500  -23.5240  -13.8420 C.2     1  UNL1        0.0530
     23  C         17.1790  -23.3250   -7.1100 C.2     1  UNL1       -0.0290
     24  C         15.8560  -23.7660   -6.9620 C.2     1  UNL1        0.0100
     25  C         15.3220  -24.0060   -5.6940 C.2     1  UNL1        0.0070
     26  C         16.0990  -23.8140   -4.5470 C.2     1  UNL1       -0.0620
     27  C         15.5120  -24.0420   -3.1850 C.3     1  UNL1        0.0480
     28  C         17.4120  -23.3550   -4.6860 C.2     1  UNL1        0.0070
     29  C         17.9480  -23.1150   -5.9540 C.2     1  UNL1        0.0100
@<TRIPOS>BOND
     1    21    20    1
     2    19    18    2
     3    19    20    1
     4    18    17    1
     5    20    22    2
     6    17    16    2
     7    22    16    1
     8    15    14    1
     9    16    14    1
    10    14    12   am
    11     6     7    2
    12     6     5    1
    13     7     8    1
    14    12     5    1
    15    12    13    2
    16     5     4    2
    17    10     9    2
    18     8     9    1
    19     8     3    2
    20     9    11    1
    21     4     3    1
    22     3     2    1
    23    11     1    1
    24     1     2    1
    25     1    23    1
    26    23    24    2
    27    23    29    1
    28    24    25    1
    29    29    28    2
    30    25    26    2
    31    28    26    1
    32    26    27    1
