@<TRIPOS>MOLECULE
70505_out_ligand_01.pdbqt
 33 35 0 0 0
SMALL
GASTEIGER

@<TRIPOS>ATOM
      1  C         20.1550  -23.0900   -9.9730 C.2     1  UNL1        0.0330
      2  C         19.4360  -22.1250  -10.6860 C.2     1  UNL1        0.0170
      3  C         20.0350  -21.4620  -11.7590 C.2     1  UNL1        0.0090
      4  C         21.3630  -21.7370  -12.1210 C.2     1  UNL1       -0.0400
      5  C         21.9720  -21.0180  -13.2920 C.3     1  UNL1        0.0500
      6  C         22.0780  -22.6990  -11.3910 C.2     1  UNL1        0.0290
      7  C         21.4790  -23.3730  -10.3240 C.2     1  UNL1        0.0420
      8  C         19.5660  -23.8090   -8.8150 C.2     1  UNL1        0.2510
      9  N         18.3770  -23.3140   -8.3340 N.am    1  UNL1       -0.3530
     10  H         17.9400  -22.5080   -8.7560 H       1  UNL1        0.1630
     11  O         20.1370  -24.7920   -8.3560 O.2     1  UNL1       -0.2680
     12  C         17.7660  -23.8170   -7.1260 C.3     1  UNL1        0.1640
     13  C         18.0450  -22.8890   -5.9690 C.2     1  UNL1       -0.0070
     14  C         18.8720  -21.7720   -6.1790 C.2     1  UNL1        0.0110
     15  C         19.1340  -20.8770   -5.1440 C.2     1  UNL1        0.0010
     16  C         18.5620  -21.0840   -3.8930 C.2     1  UNL1        0.0030
     17  C         17.7250  -22.1820   -3.6740 C.2     1  UNL1        0.0370
     18  C         17.4620  -23.0910   -4.7030 C.2     1  UNL1        0.0760
     19  O         16.6290  -24.1740   -4.5960 O.2     1  UNL1       -0.3510
     20  C         15.2710  -23.9630   -4.2160 C.3     1  UNL1        0.1710
     21  C         14.4900  -23.3460   -5.3620 C.3     1  UNL1        0.0340
     22  N         23.4210  -23.0450  -11.7720 N.pl3   1  UNL1       -0.1810
     23  H         23.6040  -22.7400  -12.7300 H       1  UNL1        0.1460
     24  S         24.6240  -22.3150  -10.8020 S.O2    1  UNL1        0.2450
     25  O         23.9280  -21.5080   -9.8220 O.2     1  UNL1       -0.2060
     26  O         25.6220  -23.2910  -10.4210 O.2     1  UNL1       -0.2060
     27  C         25.3680  -21.2220  -11.9890 C.2     1  UNL1        0.0740
     28  C         25.1840  -21.4450  -13.3560 C.2     1  UNL1        0.0250
     29  C         25.7610  -20.5680  -14.2760 C.2     1  UNL1        0.0080
     30  C         26.5090  -19.4670  -13.8390 C.2     1  UNL1       -0.0620
     31  C         27.1190  -18.5340  -14.8420 C.3     1  UNL1        0.0480
     32  C         26.6770  -19.2510  -12.4640 C.2     1  UNL1        0.0080
     33  C         26.1050  -20.1250  -11.5380 C.2     1  UNL1        0.0250
@<TRIPOS>BOND
     1    31    30    1
     2    29    30    2
     3    29    28    1
     4    30    32    1
     5    28    27    2
     6     5     4    1
     7    23    22    1
     8    32    33    2
     9     4     3    2
    10     4     6    1
    11    27    33    1
    12    27    24    1
    13    22     6    1
    14    22    24    1
    15     3     2    1
    16     6     7    2
    17    24    26    2
    18    24    25    2
    19     2     1    2
    20     7     1    1
    21     1     8    1
    22     8    11    2
    23     8     9   am
    24    10     9    1
    25     9    12    1
    26    12    13    1
    27    14    13    2
    28    14    15    1
    29    13    18    1
    30    21    20    1
    31    15    16    2
    32    18    19    1
    33    18    17    2
    34    19    20    1
    35    16    17    1
