@<TRIPOS>MOLECULE
70509_out_ligand_01.pdbqt
 44 47 0 0 0
SMALL
GASTEIGER

@<TRIPOS>ATOM
      1  C         22.8730  -22.0970   -9.9020 C.2     1  UNL1        0.2570
      2  O         23.0180  -21.1370   -9.1530 O.2     1  UNL1       -0.2670
      3  N         21.8880  -23.0620   -9.8120 N.am    1  UNL1       -0.3230
      4  H         21.8900  -23.7840  -10.5230 H       1  UNL1        0.1690
      5  C         20.8920  -23.1920   -8.8230 C.2     1  UNL1        0.0350
      6  C         20.0610  -24.3090   -8.6870 C.2     1  UNL1        0.0310
      7  C         19.0880  -24.3560   -7.6820 C.2     1  UNL1        0.0270
      8  C         18.9530  -23.2800   -6.8010 C.2     1  UNL1        0.0750
      9  C         19.7690  -22.1550   -6.9280 C.2     1  UNL1        0.0270
     10  C         20.7370  -22.1170   -7.9340 C.2     1  UNL1        0.0310
     11  S         17.7010  -23.3050   -5.5440 S.O2    1  UNL1        0.2450
     12  O         17.3370  -24.6880   -5.3200 O.2     1  UNL1       -0.2060
     13  O         18.1180  -22.4380   -4.4640 O.2     1  UNL1       -0.2060
     14  N         16.4410  -22.4750   -6.3450 N.pl3   1  UNL1       -0.1810
     15  H         15.5780  -22.7570   -5.8750 H       1  UNL1        0.1460
     16  C         16.3660  -22.7310   -7.7510 C.2     1  UNL1        0.0230
     17  C         15.6080  -23.8130   -8.1950 C.2     1  UNL1        0.0240
     18  C         15.4830  -24.0590   -9.5610 C.2     1  UNL1        0.0030
     19  C         16.1020  -23.2120  -10.4810 C.2     1  UNL1        0.0160
     20  C         16.8560  -22.1090  -10.0440 C.2     1  UNL1        0.0490
     21  C         16.9760  -21.8690   -8.6660 C.2     1  UNL1        0.0400
     22  C         17.4830  -21.1740  -11.0460 C.3     1  UNL1        0.4170
     23  F         16.9960  -19.9050  -10.9760 F       1  UNL1       -0.1660
     24  F         18.8330  -21.0610  -10.8890 F       1  UNL1       -0.1660
     25  F         17.2900  -21.5810  -12.3290 F       1  UNL1       -0.1660
     26  C         23.7970  -22.2060  -11.0720 C.2     1  UNL1        0.0540
     27  C         25.1020  -22.6530  -10.7890 C.2     1  UNL1        0.0200
     28  C         26.0570  -22.7760  -11.8020 C.2     1  UNL1        0.0250
     29  C         25.7070  -22.4740  -13.1150 C.2     1  UNL1        0.0240
     30  C         24.4210  -22.0290  -13.4140 C.2     1  UNL1        0.0490
     31  C         23.4600  -21.9060  -12.4010 C.2     1  UNL1        0.0510
     32 CL         21.8800  -21.4040  -12.9000 Cl      1  UNL1       -0.0830
     33  N         26.6880  -22.5280  -14.1570 N.pl3   1  UNL1       -0.1810
     34  H         27.1830  -21.6360  -14.2400 H       1  UNL1        0.1460
     35  S         26.0300  -22.8610  -15.7010 S.O2    1  UNL1        0.2450
     36  O         26.9610  -23.6590  -16.4680 O.2     1  UNL1       -0.2060
     37  O         24.6630  -23.2800  -15.4730 O.2     1  UNL1       -0.2060
     38  C         26.0080  -21.2320  -16.4040 C.2     1  UNL1        0.0740
     39  C         26.6770  -20.2010  -15.7420 C.2     1  UNL1        0.0250
     40  C         26.6710  -18.9160  -16.2880 C.2     1  UNL1        0.0080
     41  C         25.9950  -18.6580  -17.4890 C.2     1  UNL1       -0.0620
     42  C         26.0200  -17.2810  -18.0870 C.3     1  UNL1        0.0480
     43  C         25.3490  -19.7100  -18.1530 C.2     1  UNL1        0.0080
     44  C         25.3520  -20.9980  -17.6140 C.2     1  UNL1        0.0250
@<TRIPOS>BOND
     1    43    44    1
     2    43    41    2
     3    42    41    1
     4    44    38    2
     5    41    40    1
     6    36    35    2
     7    38    39    1
     8    38    35    1
     9    40    39    2
    10    35    37    2
    11    35    33    1
    12    34    33    1
    13    33    29    1
    14    30    29    2
    15    30    31    1
    16    29    28    1
    17    32    31    1
    18    31    26    2
    19    25    22    1
    20    28    27    2
    21    26    27    1
    22    26     1    1
    23    22    23    1
    24    22    24    1
    25    22    20    1
    26     4     3    1
    27    19    20    2
    28    19    18    1
    29    20    21    1
    30     1     3   am
    31     1     2    2
    32     3     5    1
    33    18    17    2
    34     5     6    2
    35     5    10    1
    36     6     7    1
    37    21    16    2
    38    17    16    1
    39    10     9    2
    40    16    14    1
    41     7     8    2
    42     9     8    1
    43     8    11    1
    44    14    15    1
    45    14    11    1
    46    11    12    2
    47    11    13    2
