@<TRIPOS>MOLECULE
70500_out_ligand_01.pdbqt
 37 40 0 0 0
SMALL
GASTEIGER

@<TRIPOS>ATOM
      1  C         21.0780  -22.6100  -10.6540 C.2     1  UNL1        0.0340
      2  C         20.7770  -23.5670   -9.6760 C.2     1  UNL1        0.0310
      3  C         19.4770  -23.6950   -9.1790 C.2     1  UNL1        0.0270
      4  C         18.4720  -22.8620   -9.6650 C.2     1  UNL1        0.0800
      5  C         18.7490  -21.9280  -10.6650 C.2     1  UNL1        0.0270
      6  C         20.0560  -21.7960  -11.1470 C.2     1  UNL1        0.0310
      7  N         22.4100  -22.5430  -11.0970 N.am    1  UNL1       -0.3250
      8  C         23.4570  -21.8220  -10.5490 C.2     1  UNL1        0.2510
      9  O         23.4170  -21.1310   -9.5340 O.2     1  UNL1       -0.2700
     10  H         22.6730  -23.1510  -11.8660 H       1  UNL1        0.1690
     11  C         24.7480  -21.9270  -11.3820 C.3     1  UNL1        0.2170
     12  C         25.7220  -20.8550  -10.9010 C.3     1  UNL1        0.0500
     13  O         24.5130  -21.6740  -12.7690 O.2     1  UNL1       -0.3360
     14  C         24.9240  -22.6120  -13.6790 C.2     1  UNL1        0.0760
     15  C         25.0060  -23.9820  -13.4010 C.2     1  UNL1        0.0370
     16  C         25.4030  -24.8830  -14.3920 C.2     1  UNL1        0.0030
     17  C         25.7090  -24.4260  -15.6690 C.2     1  UNL1        0.0010
     18  C         25.6150  -23.0650  -15.9590 C.2     1  UNL1        0.0100
     19  C         25.2250  -22.1370  -14.9740 C.2     1  UNL1       -0.0210
     20  C         25.1210  -20.6560  -15.3210 C.3     1  UNL1        0.0130
     21  C         26.3240  -19.8490  -14.8180 C.3     1  UNL1        0.0150
     22  C         24.9270  -20.4650  -16.8280 C.3     1  UNL1        0.0150
     23  S         16.8150  -23.0240   -9.0500 S.O2    1  UNL1        0.2630
     24  O         16.0640  -23.7840  -10.0300 O.2     1  UNL1       -0.2000
     25  O         16.3560  -21.7250   -8.6100 O.2     1  UNL1       -0.2000
     26  N         17.0110  -24.0580   -7.7280 N.pl3   1  UNL1       -0.2800
     27  H         16.7770  -25.0190   -7.9730 H       1  UNL1        0.1790
     28  C         16.5900  -23.5960   -6.4420 C.2     1  UNL1        0.0530
     29  C         15.3880  -24.1020   -5.9380 C.2     1  UNL1        0.0310
     30  C         14.9370  -23.7100   -4.6840 C.2     1  UNL1        0.0030
     31  C         15.6840  -22.8060   -3.9300 C.2     1  UNL1        0.0120
     32  C         16.8910  -22.2810   -4.4170 C.2     1  UNL1       -0.0240
     33  C         17.6280  -21.3650   -3.6470 C.2     1  UNL1        0.0120
     34  C         17.3690  -22.6770   -5.6910 C.2     1  UNL1        0.0010
     35  C         18.8280  -20.8340   -4.1160 C.2     1  UNL1        0.0010
     36  C         19.3130  -21.2170   -5.3600 C.2     1  UNL1        0.0010
     37  C         18.5940  -22.1280   -6.1370 C.2     1  UNL1        0.0140
@<TRIPOS>BOND
     1    22    20    1
     2    18    17    2
     3    18    19    1
     4    17    16    1
     5    20    19    1
     6    20    21    1
     7    19    14    2
     8    16    15    2
     9    14    15    1
    10    14    13    1
    11    13    11    1
    12    10     7    1
    13    11    12    1
    14    11     8    1
    15     6     5    1
    16     6     1    2
    17     7     1    1
    18     7     8   am
    19     5     4    2
    20     1     2    1
    21     8     9    2
    22    24    23    2
    23     2     3    2
    24     4     3    1
    25     4    23    1
    26    23    25    2
    27    23    26    1
    28    27    26    1
    29    26    28    1
    30    28    29    2
    31    28    34    1
    32    37    34    1
    33    37    36    2
    34    29    30    1
    35    34    32    2
    36    36    35    1
    37    30    31    2
    38    32    31    1
    39    32    33    1
    40    35    33    2
