@<TRIPOS>MOLECULE
70511_out_ligand_01.pdbqt
 34 37 0 0 0
SMALL
GASTEIGER

@<TRIPOS>ATOM
      1  C         22.3420  -22.3430  -11.4420 C.2     1  UNL1        0.0800
      2  C         21.2160  -21.7460  -12.0140 C.2     1  UNL1        0.0270
      3  C         19.9580  -21.9380  -11.4340 C.2     1  UNL1        0.0310
      4  C         19.8180  -22.7290  -10.2910 C.2     1  UNL1        0.0340
      5  C         20.9550  -23.3350   -9.7370 C.2     1  UNL1        0.0310
      6  C         22.2150  -23.1480  -10.3100 C.2     1  UNL1        0.0270
      7  N         18.5900  -22.9700   -9.6490 N.am    1  UNL1       -0.3250
      8  C         17.3770  -22.3350   -9.8560 C.2     1  UNL1        0.2460
      9  O         17.1450  -21.4360  -10.6590 O.2     1  UNL1       -0.2710
     10  H         18.5940  -23.6530   -8.8960 H       1  UNL1        0.1690
     11  C         16.2600  -22.8980   -8.9690 C.3     1  UNL1        0.2780
     12  O         16.6990  -23.7580   -7.9250 O.2     1  UNL1       -0.3410
     13  C         16.3400  -23.4660   -6.6290 C.2     1  UNL1        0.0800
     14  C         15.1700  -23.9270   -6.0150 C.2     1  UNL1        0.0370
     15  C         14.8730  -23.5600   -4.7040 C.2     1  UNL1        0.0040
     16  C         15.7370  -22.7290   -3.9950 C.2     1  UNL1        0.0120
     17  C         16.9130  -22.2490   -4.5870 C.2     1  UNL1       -0.0230
     18  C         17.7790  -21.4060   -3.8700 C.2     1  UNL1        0.0120
     19  C         17.2270  -22.6150   -5.9190 C.2     1  UNL1        0.0070
     20  C         18.9510  -20.9220   -4.4500 C.2     1  UNL1        0.0010
     21  C         19.2730  -21.2750   -5.7540 C.2     1  UNL1        0.0010
     22  C         18.4220  -22.1110   -6.4790 C.2     1  UNL1        0.0150
     23  S         23.9300  -22.1160  -12.2040 S.O2    1  UNL1        0.2760
     24  O         24.4030  -23.4400  -12.5630 O.2     1  UNL1       -0.2000
     25  O         24.7440  -21.2600  -11.3670 O.2     1  UNL1       -0.2000
     26  N         23.5790  -21.3540  -13.6350 N.pl3   1  UNL1       -0.1090
     27  H         22.6110  -21.4380  -13.9180 H       1  UNL1        0.1980
     28  C         24.4750  -21.5130  -14.6840 C.cat   1  UNL1        0.7360
     29  N         25.5740  -20.7620  -14.7220 N.2     1  UNL1       -0.0740
     30  C         26.3060  -20.8670  -15.8450 C.2     1  UNL1        0.1380
     31  C         25.9450  -21.6540  -16.9150 C.2     1  UNL1        0.0470
     32  C         24.7570  -22.3470  -16.7860 C.2     1  UNL1        0.0510
     33  C         24.2640  -23.2160  -17.9030 C.3     1  UNL1        0.0710
     34  N         23.9930  -22.2690  -15.6770 N.2     1  UNL1       -0.0670
@<TRIPOS>BOND
     1    33    32    1
     2    31    32    1
     3    31    30    2
     4    32    34    2
     5    30    29    1
     6    34    28    1
     7    29    28    2
     8    28    26    1
     9    27    26    1
    10    26    23    1
    11    24    23    2
    12    23     1    1
    13    23    25    2
    14     2     1    2
    15     2     3    1
    16     1     6    1
    17     3     4    2
    18     9     8    2
    19     6     5    2
    20     4     5    1
    21     4     7    1
    22     8     7   am
    23     8    11    1
    24     7    10    1
    25    11    12    1
    26    12    13    1
    27    13    14    2
    28    13    19    1
    29    22    19    1
    30    22    21    2
    31    14    15    1
    32    19    17    2
    33    21    20    1
    34    15    16    2
    35    17    16    1
    36    17    18    1
    37    20    18    2
