@<TRIPOS>MOLECULE
70514_out_ligand_01.pdbqt
 37 40 0 0 0
SMALL
GASTEIGER

@<TRIPOS>ATOM
      1  C         18.5850  -22.3200  -10.4090 C.2     1  UNL1        0.0810
      2  C         19.8970  -22.8070  -10.3000 C.2     1  UNL1        0.0420
      3  C         20.9280  -22.2420  -11.0580 C.2     1  UNL1        0.0330
      4  C         20.6440  -21.1710  -11.9100 C.2     1  UNL1        0.0170
      5  C         19.3410  -20.6780  -12.0110 C.2     1  UNL1        0.0090
      6  C         18.2900  -21.2430  -11.2690 C.2     1  UNL1       -0.0390
      7  C         16.9170  -20.6440  -11.4060 C.3     1  UNL1        0.0500
      8  C         22.3070  -22.7860  -10.8950 C.2     1  UNL1        0.2510
      9  O         22.6380  -23.3120   -9.8390 O.2     1  UNL1       -0.2680
     10  N         23.1430  -22.6800  -11.9830 N.am    1  UNL1       -0.3530
     11  H         22.7970  -22.3130  -12.8580 H       1  UNL1        0.1630
     12  C         24.5300  -23.0890  -11.9250 C.3     1  UNL1        0.1630
     13  C         25.4800  -21.9670  -12.2920 C.2     1  UNL1       -0.0130
     14  C         25.9280  -21.1270  -11.2530 C.2     1  UNL1        0.0110
     15  C         26.7400  -20.0200  -11.5110 C.2     1  UNL1        0.0010
     16  C         27.1210  -19.7240  -12.8140 C.2     1  UNL1        0.0020
     17  C         26.6930  -20.5350  -13.8640 C.2     1  UNL1        0.0300
     18  C         25.8860  -21.6570  -13.6090 C.2     1  UNL1        0.0480
     19  N         25.4970  -22.4540  -14.7130 N.pl3   1  UNL1       -0.3090
     20  C         24.5560  -22.1160  -15.6610 C.2     1  UNL1        0.1180
     21  C         24.5110  -23.1640  -16.5440 C.2     1  UNL1        0.1360
     22  N         25.4040  -24.1330  -16.1850 N.2     1  UNL1       -0.2460
     23  C         25.9680  -23.7130  -15.0650 C.2     1  UNL1        0.1060
     24  C         27.0550  -24.4360  -14.3520 C.3     1  UNL1        0.0910
     25  S         17.3220  -23.1000   -9.4100 S.O2    1  UNL1        0.2460
     26  O         16.5960  -22.0580   -8.7140 O.2     1  UNL1       -0.2060
     27  O         16.6470  -24.0760  -10.2360 O.2     1  UNL1       -0.2060
     28  N         18.2820  -23.8700   -8.2250 N.pl3   1  UNL1       -0.1810
     29  H         19.2260  -23.9330   -8.6070 H       1  UNL1        0.1460
     30  C         18.2960  -23.1880   -6.9620 C.2     1  UNL1        0.0230
     31  C         19.0700  -22.0430   -6.8070 C.2     1  UNL1        0.0250
     32  C         19.1150  -21.3980   -5.5700 C.2     1  UNL1        0.0090
     33  C         18.3960  -21.8970   -4.4730 C.2     1  UNL1       -0.0560
     34  C         18.4760  -21.1800   -3.1530 C.3     1  UNL1        0.0490
     35  C         17.6310  -23.0720   -4.6260 C.2     1  UNL1       -0.0540
     36  C         17.5950  -23.7120   -5.8750 C.2     1  UNL1        0.0310
     37  C         16.8630  -23.6620   -3.4740 C.3     1  UNL1        0.0490
@<TRIPOS>BOND
     1    21    22    1
     2    21    20    2
     3    22    23    2
     4    20    19    1
     5    23    19    1
     6    23    24    1
     7    19    18    1
     8    17    18    1
     9    17    16    2
    10    18    13    2
    11    11    10    1
    12    16    15    1
    13    13    12    1
    14    13    14    1
    15     5     4    2
    16     5     6    1
    17    10    12    1
    18    10     8   am
    19     4     3    1
    20    15    14    2
    21     7     6    1
    22     6     1    2
    23     3     8    1
    24     3     2    2
    25     8     9    2
    26     1     2    1
    27     1    25    1
    28    27    25    2
    29    25    26    2
    30    25    28    1
    31    29    28    1
    32    28    30    1
    33    30    31    2
    34    30    36    1
    35    31    32    1
    36    36    35    2
    37    32    33    2
    38    35    33    1
    39    35    37    1
    40    33    34    1
