@<TRIPOS>MOLECULE
70521_out_ligand_01.pdbqt
 40 43 0 0 0
SMALL
GASTEIGER

@<TRIPOS>ATOM
      1  N         22.2050  -22.3180  -10.7220 N.am    1  UNL1       -0.3230
      2  C         22.5650  -22.8330   -9.4920 C.2     1  UNL1        0.2560
      3  O         23.6440  -23.3030   -9.1540 O.2     1  UNL1       -0.2670
      4  H         21.3040  -21.8580  -10.7750 H       1  UNL1        0.1690
      5  C         22.9570  -22.3440  -11.9110 C.2     1  UNL1        0.0350
      6  C         22.5620  -21.4720  -12.9360 C.2     1  UNL1        0.0310
      7  C         23.2360  -21.4570  -14.1620 C.2     1  UNL1        0.0270
      8  C         24.3170  -22.3170  -14.3620 C.2     1  UNL1        0.0750
      9  C         24.7120  -23.1980  -13.3540 C.2     1  UNL1        0.0270
     10  C         24.0360  -23.2030  -12.1290 C.2     1  UNL1        0.0310
     11  S         25.1160  -22.3620  -15.9480 S.O2    1  UNL1        0.2480
     12  O         24.4820  -21.3340  -16.7510 O.2     1  UNL1       -0.2050
     13  O         25.1540  -23.7280  -16.4260 O.2     1  UNL1       -0.2050
     14  N         26.6570  -21.8110  -15.6470 N.pl3   1  UNL1       -0.1480
     15  H         27.1140  -22.3360  -14.9100 H       1  UNL1        0.1490
     16  C         26.7870  -20.4400  -15.4690 C.cat   1  UNL1        0.2150
     17  N         26.6790  -19.9370  -14.2390 N.2     1  UNL1       -0.2300
     18  C         26.6990  -18.5970  -14.1650 C.2     1  UNL1        0.1220
     19  C         26.7960  -17.7770  -15.2670 C.2     1  UNL1        0.0460
     20  C         26.8650  -18.4110  -16.4950 C.2     1  UNL1        0.0350
     21  C         26.9630  -17.6060  -17.7560 C.3     1  UNL1        0.0700
     22  N         26.8340  -19.7540  -16.6150 N.2     1  UNL1       -0.2230
     23  C         21.4910  -22.7330   -8.4730 C.2     1  UNL1        0.0400
     24  C         21.5090  -21.5920   -7.6580 C.2     1  UNL1        0.0180
     25  C         20.4850  -21.3820   -6.7410 C.2     1  UNL1        0.0030
     26  C         19.4380  -22.2970   -6.6560 C.2     1  UNL1        0.0310
     27  C         19.4260  -23.4470   -7.4570 C.2     1  UNL1        0.0490
     28  C         20.4790  -23.7110   -8.3510 C.2     1  UNL1       -0.0190
     29  C         20.5350  -24.9700   -9.1740 C.3     1  UNL1        0.0520
     30  N         18.2770  -24.2890   -7.4020 N.pl3   1  UNL1       -0.2800
     31  H         18.3640  -25.2720   -7.6480 H       1  UNL1        0.1790
     32  S         16.7700  -23.6540   -7.8460 S.O2    1  UNL1        0.2630
     33  O         15.9530  -24.7080   -8.4060 O.2     1  UNL1       -0.2000
     34  O         17.0500  -22.4450   -8.5900 O.2     1  UNL1       -0.2000
     35  C         16.0590  -23.1740   -6.2870 C.2     1  UNL1        0.0790
     36  C         16.5690  -23.7100   -5.1000 C.2     1  UNL1        0.0250
     37  C         16.0160  -23.3280   -3.8810 C.2     1  UNL1        0.0020
     38  C         14.9480  -22.4300   -3.8510 C.2     1  UNL1        0.0000
     39  C         14.4270  -21.9140   -5.0390 C.2     1  UNL1        0.0020
     40  C         14.9750  -22.2920   -6.2650 C.2     1  UNL1        0.0250
@<TRIPOS>BOND
     1    21    20    1
     2    12    11    2
     3    22    20    2
     4    22    16    1
     5    20    19    1
     6    13    11    2
     7    11    14    1
     8    11     8    1
     9    14    16    1
    10    14    15    1
    11    16    17    2
    12    19    18    2
    13     8     7    2
    14     8     9    1
    15    17    18    1
    16     7     6    1
    17     9    10    2
    18     6     5    2
    19    10     5    1
    20     5     1    1
    21     4     1    1
    22     1     2   am
    23     2     3    2
    24     2    23    1
    25    29    28    1
    26    34    32    2
    27    23    28    2
    28    23    24    1
    29    33    32    2
    30    28    27    1
    31    32    30    1
    32    32    35    1
    33    24    25    2
    34    31    30    1
    35    27    30    1
    36    27    26    2
    37    25    26    1
    38    35    40    2
    39    35    36    1
    40    40    39    1
    41    36    37    2
    42    39    38    2
    43    37    38    1
