@<TRIPOS>MOLECULE
70525_out_ligand_01.pdbqt
 34 36 0 0 0
SMALL
GASTEIGER

@<TRIPOS>ATOM
      1  C         21.3690  -21.6310  -10.6050 C.2     1  UNL1        0.0330
      2  C         20.8720  -20.8570  -11.6560 C.2     1  UNL1        0.0170
      3  C         19.4910  -20.7440  -11.8500 C.2     1  UNL1        0.0090
      4  C         18.5760  -21.4060  -11.0100 C.2     1  UNL1       -0.0390
      5  C         17.1090  -21.2320  -11.2920 C.3     1  UNL1        0.0500
      6  C         19.0870  -22.1990   -9.9650 C.2     1  UNL1        0.0860
      7  C         20.4750  -22.3050   -9.7670 C.2     1  UNL1        0.0420
      8  C         22.8270  -21.7900  -10.3500 C.2     1  UNL1        0.2510
      9  N         23.5510  -22.4570  -11.3130 N.am    1  UNL1       -0.3530
     10  H         23.1300  -22.6680  -12.2070 H       1  UNL1        0.1630
     11  O         23.3260  -21.3010   -9.3410 O.2     1  UNL1       -0.2680
     12  C         24.9950  -22.5660  -11.2450 C.3     1  UNL1        0.1640
     13  C         25.6710  -21.3580  -11.8470 C.2     1  UNL1       -0.0070
     14  C         26.2910  -20.4120  -11.0130 C.2     1  UNL1        0.0110
     15  C         26.9130  -19.2800  -11.5480 C.2     1  UNL1        0.0010
     16  C         26.9220  -19.0730  -12.9260 C.2     1  UNL1        0.0030
     17  C         26.3300  -20.0110  -13.7710 C.2     1  UNL1        0.0370
     18  C         25.7340  -21.1570  -13.2330 C.2     1  UNL1        0.0760
     19  O         25.1590  -22.0590  -14.0940 O.2     1  UNL1       -0.3510
     20  C         24.3850  -21.3700  -15.0870 C.3     1  UNL1        0.1710
     21  C         23.1010  -20.8890  -14.4290 C.3     1  UNL1        0.0340
     22  S         18.0640  -23.1110   -8.8190 S.O2    1  UNL1        0.2630
     23  O         18.8460  -24.0890   -8.0970 O.2     1  UNL1       -0.2000
     24  O         16.8830  -23.5250   -9.5520 O.2     1  UNL1       -0.2000
     25  N         17.5440  -21.9070   -7.7540 N.pl3   1  UNL1       -0.2800
     26  H         16.8780  -21.2800   -8.2000 H       1  UNL1        0.1790
     27  C         17.3250  -22.2530   -6.3900 C.2     1  UNL1        0.0490
     28  C         16.1910  -23.0060   -6.0730 C.2     1  UNL1        0.0370
     29  C         15.8890  -23.3230   -4.7430 C.2     1  UNL1       -0.0600
     30  C         14.6820  -24.1530   -4.4160 C.3     1  UNL1        0.0480
     31  C         16.7560  -22.8960   -3.7350 C.2     1  UNL1        0.0070
     32  C         17.8950  -22.1470   -4.0500 C.2     1  UNL1        0.0090
     33  C         18.1960  -21.8180   -5.3800 C.2     1  UNL1       -0.0350
     34  C         19.4120  -20.9910   -5.6770 C.3     1  UNL1        0.0500
@<TRIPOS>BOND
     1    20    21    1
     2    20    19    1
     3    19    18    1
     4    17    18    1
     5    17    16    2
     6    18    13    2
     7    16    15    1
     8    10     9    1
     9     3     2    1
    10     3     4    2
    11    13    12    1
    12    13    14    1
    13     2     1    2
    14    15    14    2
    15     9    12    1
    16     9     8   am
    17     5     4    1
    18     4     6    1
    19     1     8    1
    20     1     7    1
    21     8    11    2
    22     6     7    2
    23     6    22    1
    24    24    22    2
    25    22    23    2
    26    22    25    1
    27    26    25    1
    28    25    27    1
    29    27    28    2
    30    27    33    1
    31    28    29    1
    32    34    33    1
    33    33    32    2
    34    29    30    1
    35    29    31    2
    36    32    31    1
