@<TRIPOS>MOLECULE
70524_out_ligand_01.pdbqt
 36 39 0 0 0
SMALL
GASTEIGER

@<TRIPOS>ATOM
      1  C         21.1170  -22.9110  -10.2030 C.2     1  UNL1        0.0340
      2  C         20.0240  -22.1540  -10.6360 C.2     1  UNL1        0.0310
      3  C         18.7630  -22.3290  -10.0580 C.2     1  UNL1        0.0270
      4  C         18.5900  -23.2740   -9.0460 C.2     1  UNL1        0.0750
      5  C         19.6760  -24.0210   -8.5830 C.2     1  UNL1        0.0270
      6  C         20.9310  -23.8440   -9.1710 C.2     1  UNL1        0.0310
      7  N         22.4100  -22.8180  -10.7610 N.am    1  UNL1       -0.3250
      8  C         23.3920  -21.8760  -10.4640 C.2     1  UNL1        0.2510
      9  O         23.3260  -21.0360   -9.5710 O.2     1  UNL1       -0.2700
     10  H         22.6360  -23.5090  -11.4630 H       1  UNL1        0.1690
     11  C         24.6410  -22.0160  -11.3760 C.3     1  UNL1        0.2200
     12  C         25.7890  -21.2500  -10.6930 C.3     1  UNL1        0.0380
     13  C         26.3350  -20.1090  -11.5370 C.3     1  UNL1        0.0080
     14  O         24.4910  -21.5020  -12.7060 O.2     1  UNL1       -0.3360
     15  C         24.7850  -22.4590  -13.6520 C.2     1  UNL1        0.0810
     16  C         24.9150  -23.7760  -13.2070 C.2     1  UNL1        0.0380
     17  C         25.2340  -24.7860  -14.1040 C.2     1  UNL1        0.0040
     18  C         25.4070  -24.4850  -15.4550 C.2     1  UNL1        0.0120
     19  C         25.2340  -23.1740  -15.9300 C.2     1  UNL1       -0.0230
     20  C         25.3830  -22.8830  -17.2960 C.2     1  UNL1        0.0120
     21  C         24.8950  -22.1390  -15.0260 C.2     1  UNL1        0.0070
     22  C         25.1810  -21.5900  -17.7810 C.2     1  UNL1        0.0010
     23  C         24.8170  -20.5730  -16.9080 C.2     1  UNL1        0.0010
     24  C         24.6750  -20.8440  -15.5470 C.2     1  UNL1        0.0150
     25  S         16.9820  -23.4990   -8.3200 S.O2    1  UNL1        0.2450
     26  O         17.0820  -24.5890   -7.3760 O.2     1  UNL1       -0.2060
     27  O         16.0090  -23.5250   -9.3930 O.2     1  UNL1       -0.2060
     28  N         16.7750  -22.0930   -7.3980 N.pl3   1  UNL1       -0.1800
     29  H         16.0110  -21.5280   -7.7770 H       1  UNL1        0.1460
     30  C         16.8110  -22.1990   -5.9690 C.2     1  UNL1        0.0440
     31  C         15.6590  -22.5700   -5.2730 C.2     1  UNL1        0.0260
     32  C         15.6730  -22.6480   -3.8790 C.2     1  UNL1        0.0020
     33  C         16.8420  -22.3570   -3.1730 C.2     1  UNL1        0.0020
     34  C         17.9990  -21.9910   -3.8600 C.2     1  UNL1        0.0260
     35  C         17.9850  -21.9130   -5.2540 C.2     1  UNL1        0.0560
     36 CL         19.4400  -21.4670   -6.0720 Cl      1  UNL1       -0.0820
@<TRIPOS>BOND
     1    22    20    2
     2    22    23    1
     3    20    19    1
     4    23    24    2
     5    19    18    2
     6    19    21    1
     7    24    21    1
     8    18    17    1
     9    21    15    2
    10    17    16    2
    11    15    16    1
    12    15    14    1
    13    14    11    1
    14    13    12    1
    15    10     7    1
    16    11    12    1
    17    11     8    1
    18     7     8   am
    19     7     1    1
    20     2     1    2
    21     2     3    1
    22     8     9    2
    23     1     6    1
    24     3     4    2
    25    27    25    2
    26     6     5    2
    27     4     5    1
    28     4    25    1
    29    25    28    1
    30    25    26    2
    31    29    28    1
    32    28    30    1
    33    36    35    1
    34    30    31    2
    35    30    35    1
    36    31    32    1
    37    35    34    2
    38    32    33    2
    39    34    33    1
