@<TRIPOS>MOLECULE
70532_out_ligand_01.pdbqt
 35 38 0 0 0
SMALL
GASTEIGER

@<TRIPOS>ATOM
      1  C         16.8210  -21.0020  -10.8870 C.3     1  UNL1        0.0500
      2  C         18.2390  -21.4920  -10.8350 C.2     1  UNL1       -0.0400
      3  C         19.1490  -21.0500  -11.8060 C.2     1  UNL1        0.0090
      4  C         20.4760  -21.4930  -11.8060 C.2     1  UNL1        0.0170
      5  C         20.9070  -22.4080  -10.8390 C.2     1  UNL1        0.0330
      6  C         20.0060  -22.8560   -9.8670 C.2     1  UNL1        0.0420
      7  C         18.6840  -22.4020   -9.8650 C.2     1  UNL1        0.0290
      8  C         22.3060  -22.9150  -10.7760 C.2     1  UNL1        0.2510
      9  O         22.6650  -23.6060   -9.8280 O.2     1  UNL1       -0.2680
     10  N         23.1340  -22.5850  -11.8250 N.am    1  UNL1       -0.3530
     11  H         22.7680  -22.0990  -12.6310 H       1  UNL1        0.1630
     12  C         24.5300  -22.9620  -11.8400 C.3     1  UNL1        0.1630
     13  C         25.4320  -21.8140  -12.2420 C.2     1  UNL1       -0.0130
     14  C         25.8500  -20.9310  -11.2280 C.2     1  UNL1        0.0110
     15  C         26.6100  -19.7950  -11.5190 C.2     1  UNL1        0.0010
     16  C         26.9650  -19.5130  -12.8310 C.2     1  UNL1        0.0020
     17  C         26.5680  -20.3680  -13.8560 C.2     1  UNL1        0.0300
     18  C         25.8150  -21.5190  -13.5680 C.2     1  UNL1        0.0480
     19  N         25.4630  -22.3640  -14.6490 N.pl3   1  UNL1       -0.3090
     20  C         24.5000  -22.1020  -15.5980 C.2     1  UNL1        0.1180
     21  C         24.4720  -23.1970  -16.4240 C.2     1  UNL1        0.1360
     22  N         25.3960  -24.1210  -16.0290 N.2     1  UNL1       -0.2460
     23  C         25.9800  -23.6180  -14.9570 C.2     1  UNL1        0.1060
     24  C         27.1210  -24.2520  -14.2470 C.3     1  UNL1        0.0910
     25  N         17.7850  -22.9300   -8.8850 N.pl3   1  UNL1       -0.1810
     26  H         16.9260  -22.3820   -8.7850 H       1  UNL1        0.1460
     27  S         18.4190  -23.1570   -7.3210 S.O2    1  UNL1        0.2450
     28  O         18.7750  -24.5470   -7.1170 O.2     1  UNL1       -0.2060
     29  O         19.3750  -22.0850   -7.1200 O.2     1  UNL1       -0.2060
     30  C         17.0090  -22.7810   -6.3080 C.2     1  UNL1        0.0740
     31  C         17.1390  -22.8370   -4.9150 C.2     1  UNL1        0.0250
     32  C         16.0340  -22.5620   -4.1110 C.2     1  UNL1        0.0020
     33  C         14.8050  -22.2450   -4.6970 C.2     1  UNL1        0.0000
     34  C         14.6780  -22.1980   -6.0890 C.2     1  UNL1        0.0020
     35  C         15.7810  -22.4680   -6.9000 C.2     1  UNL1        0.0250
@<TRIPOS>BOND
     1    21    22    1
     2    21    20    2
     3    22    23    2
     4    20    19    1
     5    23    19    1
     6    23    24    1
     7    19    18    1
     8    17    18    1
     9    17    16    2
    10    18    13    2
    11    16    15    1
    12    11    10    1
    13    13    12    1
    14    13    14    1
    15    12    10    1
    16    10     8   am
    17     4     3    1
    18     4     5    2
    19     3     2    2
    20    15    14    2
    21     1     2    1
    22     5     8    1
    23     5     6    1
    24     2     7    1
    25     8     9    2
    26     6     7    2
    27     7    25    1
    28    25    26    1
    29    25    27    1
    30    27    29    2
    31    27    28    2
    32    27    30    1
    33    35    30    2
    34    35    34    1
    35    30    31    1
    36    34    33    2
    37    31    32    2
    38    33    32    1
