@<TRIPOS>MOLECULE
70535_out_ligand_01.pdbqt
 34 36 0 0 0
SMALL
GASTEIGER

@<TRIPOS>ATOM
      1  C         20.9990  -22.0410  -11.1680 C.2     1  UNL1        0.0330
      2  C         20.5050  -21.0520  -12.0250 C.2     1  UNL1        0.0170
      3  C         19.1560  -20.6930  -11.9730 C.2     1  UNL1        0.0090
      4  C         18.2690  -21.3180  -11.0800 C.2     1  UNL1       -0.0390
      5  C         16.8330  -20.8720  -11.0710 C.3     1  UNL1        0.0500
      6  C         18.7790  -22.3140  -10.2210 C.2     1  UNL1        0.0810
      7  C         20.1350  -22.6740  -10.2700 C.2     1  UNL1        0.0420
      8  C         22.4220  -22.4720  -11.2060 C.2     1  UNL1        0.2520
      9  N         23.1490  -22.0780  -12.3060 N.am    1  UNL1       -0.3490
     10  H         22.7680  -21.3760  -12.9260 H       1  UNL1        0.1630
     11  O         22.8870  -23.1210  -10.2760 O.2     1  UNL1       -0.2680
     12  C         24.5700  -22.3640  -12.4290 C.3     1  UNL1        0.1140
     13  C         24.8010  -23.7410  -13.0650 C.3     1  UNL1        0.0370
     14  C         25.2400  -21.2170  -13.1810 C.2     1  UNL1       -0.0300
     15  C         24.9930  -21.0270  -14.5540 C.2     1  UNL1        0.0100
     16  C         25.5720  -19.9680  -15.2570 C.2     1  UNL1        0.0070
     17  C         26.3970  -19.0540  -14.6030 C.2     1  UNL1       -0.0610
     18  C         27.0520  -17.9380  -15.3590 C.3     1  UNL1        0.0480
     19  C         26.6460  -19.2260  -13.2370 C.2     1  UNL1        0.0140
     20  C         26.0650  -20.2830  -12.5130 C.2     1  UNL1       -0.0530
     21  C         26.3630  -20.3900  -11.0400 C.3     1  UNL1        0.0490
     22  S         17.7400  -23.1570   -9.0300 S.O2    1  UNL1        0.2460
     23  O         16.5840  -23.6640   -9.7370 O.2     1  UNL1       -0.2060
     24  O         18.5850  -24.0290   -8.2460 O.2     1  UNL1       -0.2060
     25  N         17.2170  -21.8290   -8.0970 N.pl3   1  UNL1       -0.1810
     26  H         16.4820  -21.3390   -8.6060 H       1  UNL1        0.1460
     27  C         16.8340  -22.1500   -6.7480 C.2     1  UNL1        0.0290
     28  C         15.5430  -22.6400   -6.5380 C.2     1  UNL1        0.0250
     29  C         15.1140  -22.9680   -5.2580 C.2     1  UNL1        0.0020
     30  C         15.9800  -22.8120   -4.1790 C.2     1  UNL1        0.0070
     31  C         17.2830  -22.3180   -4.3640 C.2     1  UNL1       -0.0540
     32  C         18.1670  -22.1750   -3.1530 C.3     1  UNL1        0.0490
     33  C         17.7190  -21.9620   -5.6630 C.2     1  UNL1       -0.0340
     34  C         19.1120  -21.4370   -5.8940 C.3     1  UNL1        0.0500
@<TRIPOS>BOND
     1    18    17    1
     2    16    17    2
     3    16    15    1
     4    17    19    1
     5    15    14    2
     6    19    20    2
     7    14    20    1
     8    14    12    1
     9    13    12    1
    10    10     9    1
    11    20    21    1
    12    12     9    1
    13     9     8   am
    14     2     3    1
    15     2     1    2
    16     3     4    2
    17     8     1    1
    18     8    11    2
    19     1     7    1
    20     4     5    1
    21     4     6    1
    22     7     6    2
    23     6    22    1
    24    23    22    2
    25    22    24    2
    26    22    25    1
    27    26    25    1
    28    25    27    1
    29    27    28    2
    30    27    33    1
    31    28    29    1
    32    34    33    1
    33    33    31    2
    34    29    30    2
    35    31    30    1
    36    31    32    1
