@<TRIPOS>MOLECULE
70538_out_ligand_01.pdbqt
 40 44 0 0 0
SMALL
GASTEIGER

@<TRIPOS>ATOM
      1  N         21.5810  -22.6000  -10.4920 N.am    1  UNL1       -0.3230
      2  C         22.7170  -21.9790  -10.0040 C.2     1  UNL1        0.2560
      3  O         22.9890  -21.7620   -8.8300 O.2     1  UNL1       -0.2670
      4  H         21.5860  -22.8560  -11.4710 H       1  UNL1        0.1690
      5  C         20.4570  -23.0210   -9.7520 C.2     1  UNL1        0.0350
      6  C         19.2160  -22.4700  -10.1020 C.2     1  UNL1        0.0310
      7  C         18.0530  -22.8400   -9.4230 C.2     1  UNL1        0.0270
      8  C         18.1300  -23.7700   -8.3850 C.2     1  UNL1        0.0800
      9  C         19.3630  -24.3000   -8.0010 C.2     1  UNL1        0.0270
     10  C         20.5210  -23.9300   -8.6930 C.2     1  UNL1        0.0310
     11  S         16.6590  -24.2390   -7.5020 S.O2    1  UNL1        0.2630
     12  O         15.6320  -24.5130   -8.4860 O.2     1  UNL1       -0.2000
     13  O         17.0260  -25.2330   -6.5160 O.2     1  UNL1       -0.2000
     14  N         16.1980  -22.8110   -6.7320 N.pl3   1  UNL1       -0.2800
     15  H         15.7510  -22.1590   -7.3730 H       1  UNL1        0.1790
     16  C         16.9830  -22.2840   -5.6650 C.2     1  UNL1        0.0490
     17  C         16.6250  -22.5340   -4.3290 C.2     1  UNL1       -0.0350
     18  C         17.4220  -21.9980   -3.3050 C.2     1  UNL1        0.0090
     19  C         15.4260  -23.3630   -3.9600 C.3     1  UNL1        0.0500
     20  C         18.5500  -21.2310   -3.6020 C.2     1  UNL1        0.0070
     21  C         18.9050  -20.9790   -4.9300 C.2     1  UNL1       -0.0600
     22  C         20.1410  -20.1950   -5.2590 C.3     1  UNL1        0.0480
     23  C         18.1220  -21.5250   -5.9560 C.2     1  UNL1        0.0370
     24  C         23.7140  -21.6030  -11.0450 C.2     1  UNL1        0.0320
     25  C         23.3510  -21.4540  -12.3870 C.2     1  UNL1        0.0170
     26  C         24.3160  -21.0970  -13.3330 C.2     1  UNL1        0.0100
     27  C         25.6540  -20.8900  -12.9560 C.2     1  UNL1       -0.0400
     28  C         25.9980  -21.0130  -11.6010 C.2     1  UNL1        0.0100
     29  C         25.0350  -21.3650  -10.6520 C.2     1  UNL1        0.0170
     30  C         26.7040  -20.4530  -13.9610 C.3     1  UNL1        0.1610
     31  N         26.6140  -21.2220  -15.2090 N.pl3   1  UNL1       -0.3760
     32  C         26.2650  -20.4800  -16.4240 C.3     1  UNL1        0.1230
     33  C         24.8420  -20.7940  -16.8540 C.3     1  UNL1        0.0240
     34  C         24.7330  -22.2790  -17.1680 C.3     1  UNL1        0.0420
     35  C         25.3430  -23.1260  -16.0800 C.2     1  UNL1       -0.0320
     36  C         25.0150  -24.4920  -16.0270 C.2     1  UNL1        0.0090
     37  C         26.2430  -22.5680  -15.1480 C.2     1  UNL1        0.0360
     38  C         25.5600  -25.3160  -15.0470 C.2     1  UNL1        0.0010
     39  C         26.4470  -24.7830  -14.1200 C.2     1  UNL1        0.0020
     40  C         26.7840  -23.4270  -14.1750 C.2     1  UNL1        0.0300
@<TRIPOS>BOND
     1    34    33    1
     2    34    35    1
     3    33    32    1
     4    32    31    1
     5    35    36    2
     6    35    37    1
     7    36    38    1
     8    31    37    1
     9    31    30    1
    10    37    40    2
    11    38    39    2
    12    40    39    1
    13    30    27    1
    14    26    27    2
    15    26    25    1
    16    27    28    1
    17    25    24    2
    18    28    29    2
    19     4     1    1
    20    24    29    1
    21    24     2    1
    22     1     2   am
    23     1     5    1
    24     6     5    2
    25     6     7    1
    26     2     3    2
    27     5    10    1
    28     7     8    2
    29    10     9    2
    30    12    11    2
    31     8     9    1
    32     8    11    1
    33    11    14    1
    34    11    13    2
    35    15    14    1
    36    14    16    1
    37    23    16    2
    38    23    21    1
    39    16    17    1
    40    22    21    1
    41    21    20    2
    42    17    19    1
    43    17    18    2
    44    20    18    1
