@<TRIPOS>MOLECULE
70558_out_ligand_01.pdbqt
 33 35 0 0 0
SMALL
GASTEIGER

@<TRIPOS>ATOM
      1  C         17.7660  -22.4470  -10.2250 C.2     1  UNL1        0.0330
      2  C         17.6010  -21.3750  -11.1080 C.2     1  UNL1        0.0170
      3  C         18.6970  -20.8880  -11.8240 C.2     1  UNL1        0.0090
      4  C         19.9650  -21.4720  -11.6750 C.2     1  UNL1       -0.0400
      5  C         21.1270  -20.9050  -12.4400 C.3     1  UNL1        0.0500
      6  C         20.1150  -22.5510  -10.7890 C.2     1  UNL1        0.0290
      7  C         19.0220  -23.0420  -10.0700 C.2     1  UNL1        0.0420
      8  C         16.6260  -22.9930   -9.4470 C.2     1  UNL1        0.2510
      9  N         16.9490  -23.9100   -8.4750 N.am    1  UNL1       -0.3530
     10  H         17.8760  -24.3150   -8.4580 H       1  UNL1        0.1630
     11  O         15.4800  -22.6450   -9.7090 O.2     1  UNL1       -0.2680
     12  C         15.9170  -24.5600   -7.7020 C.3     1  UNL1        0.1610
     13  C         15.7740  -23.9050   -6.3550 C.2     1  UNL1       -0.0380
     14  C         16.6250  -24.2550   -5.3010 C.2     1  UNL1        0.0090
     15  C         16.5090  -23.6210   -4.0640 C.2     1  UNL1        0.0030
     16  C         15.5520  -22.6210   -3.8700 C.2     1  UNL1        0.0370
     17  C         14.7060  -22.2480   -4.9140 C.2     1  UNL1        0.0690
     18  C         14.8220  -22.8950   -6.1500 C.2     1  UNL1        0.0450
     19  O         13.7270  -21.2970   -4.8670 O.2     1  UNL1       -0.3520
     20  C         13.0570  -20.9320   -6.0720 C.3     1  UNL1        0.1710
     21  C         12.1220  -19.7580   -5.8390 C.3     1  UNL1        0.0340
     22  N         21.4110  -23.1190  -10.5560 N.pl3   1  UNL1       -0.1810
     23  H         21.6960  -23.7400  -11.3150 H       1  UNL1        0.1460
     24  S         21.5580  -24.0180   -9.1130 S.O2    1  UNL1        0.2450
     25  O         22.9790  -24.1470   -8.8620 O.2     1  UNL1       -0.2060
     26  O         20.6810  -25.1700   -9.1380 O.2     1  UNL1       -0.2060
     27  C         20.9070  -22.8620   -7.9300 C.2     1  UNL1        0.0740
     28  C         19.6810  -23.1190   -7.3120 C.2     1  UNL1        0.0250
     29  C         19.1820  -22.2200   -6.3690 C.2     1  UNL1        0.0080
     30  C         19.9040  -21.0650   -6.0400 C.2     1  UNL1       -0.0620
     31  C         19.3850  -20.1040   -5.0100 C.3     1  UNL1        0.0480
     32  C         21.1460  -20.8330   -6.6480 C.2     1  UNL1        0.0080
     33  C         21.6510  -21.7300   -7.5910 C.2     1  UNL1        0.0250
@<TRIPOS>BOND
     1     5     4    1
     2     3     4    2
     3     3     2    1
     4     4     6    1
     5    23    22    1
     6     2     1    2
     7     6    22    1
     8     6     7    2
     9    22    24    1
    10     1     7    1
    11     1     8    1
    12    11     8    2
    13     8     9   am
    14    26    24    2
    15    24    25    2
    16    24    27    1
    17     9    10    1
    18     9    12    1
    19    27    33    2
    20    27    28    1
    21    12    13    1
    22    33    32    1
    23    28    29    2
    24    32    30    2
    25    29    30    1
    26    13    18    2
    27    13    14    1
    28    18    17    1
    29    20    21    1
    30    20    19    1
    31    30    31    1
    32    14    15    2
    33    17    19    1
    34    17    16    2
    35    15    16    1
