@<TRIPOS>MOLECULE
70555_out_ligand_01.pdbqt
 32 34 0 0 0
SMALL
GASTEIGER

@<TRIPOS>ATOM
      1  C         21.2970  -21.7010  -10.8770 C.2     1  UNL1        0.0330
      2  C         20.5650  -20.9090  -11.7660 C.2     1  UNL1        0.0170
      3  C         19.1700  -20.8680  -11.6800 C.2     1  UNL1        0.0090
      4  C         18.4810  -21.6030  -10.6990 C.2     1  UNL1       -0.0390
      5  C         16.9790  -21.5240  -10.6790 C.3     1  UNL1        0.0500
      6  C         19.2310  -22.3960   -9.8070 C.2     1  UNL1        0.0810
      7  C         20.6310  -22.4390   -9.8950 C.2     1  UNL1        0.0420
      8  C         22.7820  -21.7540  -10.9220 C.2     1  UNL1        0.2520
      9  N         23.3330  -22.3590  -12.0260 N.am    1  UNL1       -0.3490
     10  H         22.7410  -22.8680  -12.6690 H       1  UNL1        0.1630
     11  O         23.4370  -21.2890   -9.9970 O.2     1  UNL1       -0.2680
     12  C         24.7700  -22.5260  -12.1740 C.3     1  UNL1        0.1140
     13  C         25.1070  -23.8210  -12.9220 C.3     1  UNL1        0.0370
     14  C         25.3480  -21.2860  -12.8330 C.2     1  UNL1       -0.0360
     15  C         24.8480  -20.8700  -14.0770 C.2     1  UNL1        0.0100
     16  C         25.3740  -19.7470  -14.7220 C.2     1  UNL1        0.0070
     17  C         26.4120  -19.0140  -14.1390 C.2     1  UNL1       -0.0620
     18  C         26.9940  -17.8280  -14.8500 C.3     1  UNL1        0.0480
     19  C         26.9350  -19.4390  -12.9140 C.2     1  UNL1        0.0070
     20  C         26.4100  -20.5620  -12.2670 C.2     1  UNL1        0.0100
     21  S         18.4500  -23.3860   -8.5380 S.O2    1  UNL1        0.2460
     22  O         19.3950  -24.4010   -8.1200 O.2     1  UNL1       -0.2060
     23  O         17.1240  -23.7320   -9.0020 O.2     1  UNL1       -0.2060
     24  N         18.3670  -22.2490   -7.2690 N.pl3   1  UNL1       -0.1810
     25  H         19.2920  -22.2020   -6.8380 H       1  UNL1        0.1460
     26  C         17.3570  -22.5320   -6.2910 C.2     1  UNL1        0.0230
     27  C         17.6430  -23.3750   -5.2160 C.2     1  UNL1        0.0240
     28  C         16.6540  -23.6570   -4.2750 C.2     1  UNL1        0.0020
     29  C         15.3760  -23.1100   -4.4150 C.2     1  UNL1        0.0070
     30  C         15.0720  -22.2910   -5.5100 C.2     1  UNL1       -0.0600
     31  C         13.7060  -21.6930   -5.6650 C.3     1  UNL1        0.0480
     32  C         16.0750  -22.0010   -6.4440 C.2     1  UNL1        0.0310
@<TRIPOS>BOND
     1    18    17    1
     2    16    17    2
     3    16    15    1
     4    17    19    1
     5    15    14    2
     6    13    12    1
     7    19    20    2
     8    14    20    1
     9    14    12    1
    10    10     9    1
    11    12     9    1
    12     9     8   am
    13     2     3    1
    14     2     1    2
    15     3     4    2
    16     8     1    1
    17     8    11    2
    18     1     7    1
    19     4     5    1
    20     4     6    1
    21     7     6    2
    22     6    21    1
    23    23    21    2
    24    21    22    2
    25    21    24    1
    26    24    25    1
    27    24    26    1
    28    32    26    2
    29    32    30    1
    30    26    27    1
    31    31    30    1
    32    30    29    2
    33    27    28    2
    34    29    28    1
