@<TRIPOS>MOLECULE
70556_out_ligand_01.pdbqt
 32 34 0 0 0
SMALL
GASTEIGER

@<TRIPOS>ATOM
      1  C         17.6240  -23.2970   -8.9080 C.2     1  UNL1        0.0860
      2  C         19.0160  -23.4910   -8.9130 C.2     1  UNL1        0.0420
      3  C         19.8080  -22.9430   -9.9250 C.2     1  UNL1        0.0330
      4  C         19.2090  -22.1920  -10.9370 C.2     1  UNL1        0.0170
      5  C         17.8290  -21.9730  -10.9180 C.2     1  UNL1        0.0090
      6  C         17.0130  -22.5130   -9.9040 C.2     1  UNL1       -0.0390
      7  C         15.5420  -22.2130   -9.9550 C.3     1  UNL1        0.0500
      8  C         21.2650  -23.2320   -9.9100 C.2     1  UNL1        0.2520
      9  O         21.6980  -24.1080   -9.1690 O.2     1  UNL1       -0.2680
     10  N         22.0490  -22.4640  -10.7400 N.am    1  UNL1       -0.3490
     11  H         21.6250  -21.7710  -11.3380 H       1  UNL1        0.1630
     12  C         23.4630  -22.7400  -10.9370 C.3     1  UNL1        0.1140
     13  C         24.3000  -21.8920   -9.9770 C.3     1  UNL1        0.0370
     14  C         23.8020  -22.5530  -12.4070 C.2     1  UNL1       -0.0360
     15  C         24.8400  -23.2540  -13.0440 C.2     1  UNL1        0.0120
     16  C         25.1320  -23.0220  -14.3910 C.2     1  UNL1        0.0430
     17  C         24.3960  -22.0830  -15.1040 C.2     1  UNL1        0.1160
     18  F         24.6810  -21.8610  -16.3940 F       1  UNL1       -0.2060
     19  C         23.3750  -21.3660  -14.4950 C.2     1  UNL1        0.0430
     20  C         23.0830  -21.5970  -13.1490 C.2     1  UNL1        0.0120
     21  S         16.7410  -24.0870   -7.5650 S.O2    1  UNL1        0.2630
     22  O         17.6450  -24.9060   -6.7890 O.2     1  UNL1       -0.2000
     23  O         15.5440  -24.6640   -8.1410 O.2     1  UNL1       -0.2000
     24  N         16.2250  -22.7840   -6.6250 N.pl3   1  UNL1       -0.2800
     25  H         15.6860  -22.1080   -7.1620 H       1  UNL1        0.1790
     26  C         17.0090  -22.3140   -5.5290 C.2     1  UNL1        0.0480
     27  C         18.1250  -21.5060   -5.7670 C.2     1  UNL1        0.0300
     28  C         18.8930  -21.0240   -4.7050 C.2     1  UNL1        0.0020
     29  C         18.5550  -21.3590   -3.3980 C.2     1  UNL1        0.0010
     30  C         17.4600  -22.1870   -3.1530 C.2     1  UNL1        0.0090
     31  C         16.6820  -22.6860   -4.2120 C.2     1  UNL1       -0.0350
     32  C         15.5220  -23.5890   -3.8910 C.3     1  UNL1        0.0500
@<TRIPOS>BOND
     1    18    17    1
     2    17    19    2
     3    17    16    1
     4    19    20    1
     5    16    15    2
     6    20    14    2
     7    15    14    1
     8    14    12    1
     9    11    10    1
    10    12    10    1
    11    12    13    1
    12     4     5    2
    13     4     3    1
    14     5     6    1
    15    10     8   am
    16     7     6    1
    17     3     8    1
    18     3     2    2
    19     8     9    2
    20     6     1    2
    21     2     1    1
    22     1    21    1
    23    23    21    2
    24    21    22    2
    25    21    24    1
    26    25    24    1
    27    24    26    1
    28    27    26    2
    29    27    28    1
    30    26    31    1
    31    28    29    2
    32    31    32    1
    33    31    30    2
    34    29    30    1
