@<TRIPOS>MOLECULE
70554_out_ligand_01.pdbqt
 32 34 0 0 0
SMALL
GASTEIGER

@<TRIPOS>ATOM
      1  C         17.6730  -23.6010   -8.5820 C.2     1  UNL1        0.0860
      2  C         19.0510  -23.8610   -8.4880 C.2     1  UNL1        0.0420
      3  C         19.9360  -23.3260   -9.4280 C.2     1  UNL1        0.0330
      4  C         19.4460  -22.5240  -10.4600 C.2     1  UNL1        0.0170
      5  C         18.0750  -22.2750  -10.5620 C.2     1  UNL1        0.0090
      6  C         17.1650  -22.8030   -9.6270 C.2     1  UNL1       -0.0390
      7  C         15.7050  -22.5050   -9.8180 C.3     1  UNL1        0.0500
      8  S         16.6180  -24.3620   -7.3500 S.O2    1  UNL1        0.2630
      9  O         15.4470  -24.8930   -8.0140 O.2     1  UNL1       -0.2000
     10  O         17.4380  -25.2280   -6.5290 O.2     1  UNL1       -0.2000
     11  N         16.0880  -23.0520   -6.4300 N.pl3   1  UNL1       -0.2800
     12  H         15.4290  -22.4620   -6.9320 H       1  UNL1        0.1790
     13  C         16.9420  -22.4540   -5.4560 C.2     1  UNL1        0.0490
     14  C         16.7110  -22.6660   -4.0860 C.2     1  UNL1       -0.0350
     15  C         17.5510  -22.0380   -3.1530 C.2     1  UNL1        0.0090
     16  C         15.5840  -23.5230   -3.5830 C.3     1  UNL1        0.0500
     17  C         18.6050  -21.2230   -3.5710 C.2     1  UNL1        0.0070
     18  C         18.8410  -21.0190   -4.9310 C.2     1  UNL1       -0.0600
     19  C         19.9890  -20.1710   -5.3910 C.3     1  UNL1        0.0480
     20  C         18.0180  -21.6580   -5.8660 C.2     1  UNL1        0.0370
     21  C         21.3890  -23.6140   -9.2770 C.2     1  UNL1        0.2510
     22  O         21.7600  -24.7230   -8.9120 O.2     1  UNL1       -0.2680
     23  N         22.2460  -22.5850   -9.6020 N.am    1  UNL1       -0.3530
     24  H         21.8840  -21.7980  -10.1210 H       1  UNL1        0.1630
     25  C         23.6780  -22.7890   -9.6470 C.3     1  UNL1        0.1610
     26  C         24.2600  -22.2060  -10.9110 C.2     1  UNL1       -0.0400
     27  C         25.3320  -21.2990  -10.8550 C.2     1  UNL1        0.0120
     28  C         25.8490  -20.7490  -12.0290 C.2     1  UNL1        0.0430
     29  C         25.2950  -21.0990  -13.2550 C.2     1  UNL1        0.1160
     30  F         25.7940  -20.5680  -14.3790 F       1  UNL1       -0.2060
     31  C         24.2300  -21.9880  -13.3310 C.2     1  UNL1        0.0430
     32  C         23.7110  -22.5410  -12.1600 C.2     1  UNL1        0.0120
@<TRIPOS>BOND
     1    30    29    1
     2    31    29    2
     3    31    32    1
     4    29    28    1
     5    32    26    2
     6    28    27    2
     7    26    27    1
     8    26    25    1
     9     5     4    2
    10     5     6    1
    11     4     3    1
    12    24    23    1
    13     7     6    1
    14    25    23    1
    15     6     1    2
    16    23    21   am
    17     3    21    1
    18     3     2    2
    19    21    22    2
    20     1     2    1
    21     1     8    1
    22     9     8    2
    23     8    10    2
    24     8    11    1
    25    12    11    1
    26    11    13    1
    27    20    13    2
    28    20    18    1
    29    13    14    1
    30    19    18    1
    31    18    17    2
    32    14    16    1
    33    14    15    2
    34    17    15    1
