@<TRIPOS>MOLECULE
70562_out_ligand_01.pdbqt
 32 34 0 0 0
SMALL
GASTEIGER

@<TRIPOS>ATOM
      1  C         19.0920  -22.2510  -10.2550 C.2     1  UNL1        0.0330
      2  C         18.8270  -21.2500  -11.1950 C.2     1  UNL1        0.0170
      3  C         19.7900  -20.9110  -12.1500 C.2     1  UNL1        0.0090
      4  C         21.0310  -21.5640  -12.1850 C.2     1  UNL1       -0.0400
      5  C         22.0410  -21.1590  -13.2210 C.3     1  UNL1        0.0500
      6  C         21.3030  -22.5450  -11.2200 C.2     1  UNL1        0.0290
      7  C         20.3440  -22.8800  -10.2580 C.2     1  UNL1        0.0420
      8  C         18.1010  -22.6720   -9.2210 C.2     1  UNL1        0.2510
      9  N         18.5640  -23.4830   -8.2090 N.am    1  UNL1       -0.3530
     10  H         19.5550  -23.6020   -8.0680 H       1  UNL1        0.1630
     11  O         16.9470  -22.2630   -9.2800 O.2     1  UNL1       -0.2680
     12  C         17.7350  -23.8280   -7.0740 C.3     1  UNL1        0.1640
     13  C         17.9650  -22.8700   -5.9300 C.2     1  UNL1       -0.0070
     14  C         18.8610  -21.8020   -6.1100 C.2     1  UNL1        0.0110
     15  C         19.1060  -20.9000   -5.0770 C.2     1  UNL1        0.0010
     16  C         18.4640  -21.0620   -3.8540 C.2     1  UNL1        0.0030
     17  C         17.5850  -22.1320   -3.6550 C.2     1  UNL1        0.0370
     18  C         17.3350  -23.0460   -4.6830 C.2     1  UNL1        0.0760
     19  O         16.5120  -24.1370   -4.5840 O.2     1  UNL1       -0.3510
     20  C         15.1200  -23.9490   -4.3290 C.3     1  UNL1        0.1710
     21  C         14.4970  -23.0190   -5.3570 C.3     1  UNL1        0.0340
     22  N         22.5960  -23.1720  -11.1610 N.pl3   1  UNL1       -0.1810
     23  H         22.5050  -24.1460  -10.8630 H       1  UNL1        0.1460
     24  S         23.6700  -22.4340  -10.0510 S.O2    1  UNL1        0.2450
     25  O         23.1230  -21.1820   -9.5770 O.2     1  UNL1       -0.2060
     26  O         24.1060  -23.4750   -9.1440 O.2     1  UNL1       -0.2060
     27  C         25.0270  -22.0460  -11.1300 C.2     1  UNL1        0.0740
     28  C         25.3850  -22.9550  -12.1290 C.2     1  UNL1        0.0250
     29  C         26.4390  -22.6490  -12.9900 C.2     1  UNL1        0.0020
     30  C         27.1210  -21.4380  -12.8550 C.2     1  UNL1        0.0000
     31  C         26.7510  -20.5280  -11.8620 C.2     1  UNL1        0.0020
     32  C         25.7000  -20.8280  -10.9960 C.2     1  UNL1        0.0250
@<TRIPOS>BOND
     1     5     4    1
     2    29    30    2
     3    29    28    1
     4    30    31    1
     5     4     3    2
     6     4     6    1
     7     3     2    1
     8    28    27    2
     9    31    32    2
    10     6    22    1
    11     6     7    2
    12     2     1    2
    13    22    23    1
    14    22    24    1
    15    27    32    1
    16    27    24    1
    17     7     1    1
    18     1     8    1
    19    24    25    2
    20    24    26    2
    21    11     8    2
    22     8     9   am
    23     9    10    1
    24     9    12    1
    25    12    13    1
    26    14    13    2
    27    14    15    1
    28    13    18    1
    29    21    20    1
    30    15    16    2
    31    18    19    1
    32    18    17    2
    33    19    20    1
    34    16    17    1
