@<TRIPOS>MOLECULE
70575_out_ligand_01.pdbqt
 41 44 0 0 0
SMALL
GASTEIGER

@<TRIPOS>ATOM
      1  N         22.2580  -22.0480  -10.4810 N.am    1  UNL1       -0.3230
      2  C         22.5610  -22.5390   -9.2250 C.2     1  UNL1        0.2560
      3  O         23.4830  -23.2870   -8.9240 O.2     1  UNL1       -0.2670
      4  H         21.3930  -21.5330  -10.5750 H       1  UNL1        0.1690
      5  C         22.9720  -22.2610  -11.6800 C.2     1  UNL1        0.0350
      6  C         24.0070  -23.1890  -11.8180 C.2     1  UNL1        0.0310
      7  C         24.6680  -23.3400  -13.0420 C.2     1  UNL1        0.0270
      8  C         24.3000  -22.5480  -14.1300 C.2     1  UNL1        0.0800
      9  C         23.2630  -21.6210  -14.0110 C.2     1  UNL1        0.0270
     10  C         22.6060  -21.4790  -12.7850 C.2     1  UNL1        0.0310
     11  S         25.1240  -22.7660  -15.6870 S.O2    1  UNL1        0.2760
     12  O         25.2320  -24.1980  -15.8950 O.2     1  UNL1       -0.2000
     13  O         24.4860  -21.9370  -16.6870 O.2     1  UNL1       -0.2000
     14  N         26.6680  -22.2300  -15.3990 N.pl3   1  UNL1       -0.1090
     15  H         27.3470  -22.5570  -16.0760 H       1  UNL1        0.1980
     16  C         26.8270  -20.8920  -15.0620 C.cat   1  UNL1        0.7360
     17  N         26.6710  -19.9630  -16.0040 N.2     1  UNL1       -0.0670
     18  C         26.6890  -18.6840  -15.5820 C.2     1  UNL1        0.0510
     19  C         26.8140  -18.3490  -14.2470 C.2     1  UNL1        0.0540
     20  C         26.5530  -17.6140  -16.6220 C.3     1  UNL1        0.0710
     21  C         26.9160  -19.3970  -13.3500 C.2     1  UNL1        0.0510
     22  C         27.0310  -19.1260  -11.8800 C.3     1  UNL1        0.0710
     23  N         26.8990  -20.6860  -13.7440 N.2     1  UNL1       -0.0670
     24  C         21.6260  -22.1120   -8.1480 C.2     1  UNL1        0.0330
     25  C         21.9840  -21.1340   -7.2150 C.2     1  UNL1        0.0170
     26  C         21.0840  -20.7630   -6.2130 C.2     1  UNL1        0.0090
     27  C         19.8180  -21.3680   -6.1090 C.2     1  UNL1       -0.0390
     28  C         18.8980  -20.9000   -5.0160 C.3     1  UNL1        0.0500
     29  C         19.4730  -22.3610   -7.0490 C.2     1  UNL1        0.0860
     30  C         20.3760  -22.7270   -8.0610 C.2     1  UNL1        0.0420
     31  S         17.8830  -23.1860   -7.0320 S.O2    1  UNL1        0.2630
     32  O         16.8630  -22.1960   -6.7590 O.2     1  UNL1       -0.2000
     33  O         17.9980  -24.3650   -6.1990 O.2     1  UNL1       -0.2000
     34  N         17.7120  -23.7350   -8.6170 N.pl3   1  UNL1       -0.2810
     35  H         18.1060  -24.6620   -8.7570 H       1  UNL1        0.1790
     36  C         17.7560  -22.8130   -9.7000 C.2     1  UNL1        0.0420
     37  C         16.6970  -21.9170   -9.8550 C.2     1  UNL1        0.0300
     38  C         16.6920  -21.0190  -10.9260 C.2     1  UNL1        0.0020
     39  C         17.7500  -21.0140  -11.8340 C.2     1  UNL1        0.0000
     40  C         18.8140  -21.8990  -11.6700 C.2     1  UNL1        0.0020
     41  C         18.8190  -22.7950  -10.6010 C.2     1  UNL1        0.0300
@<TRIPOS>BOND
     1    13    11    2
     2    20    18    1
     3    15    14    1
     4    17    18    1
     5    17    16    2
     6    12    11    2
     7    11    14    1
     8    11     8    1
     9    18    19    2
    10    14    16    1
    11    16    23    1
    12    19    21    1
    13     8     9    2
    14     8     7    1
    15     9    10    1
    16    23    21    2
    17    21    22    1
    18     7     6    2
    19    10     5    2
    20    39    40    2
    21    39    38    1
    22     6     5    1
    23     5     1    1
    24    40    41    1
    25    38    37    2
    26    41    36    2
    27     4     1    1
    28     1     2   am
    29    37    36    1
    30    36    34    1
    31     2     3    2
    32     2    24    1
    33    35    34    1
    34    34    31    1
    35    24    30    2
    36    24    25    1
    37    30    29    1
    38    25    26    2
    39    29    31    1
    40    29    27    2
    41    31    32    2
    42    31    33    2
    43    26    27    1
    44    27    28    1
