@<TRIPOS>MOLECULE
70573_out_ligand_01.pdbqt
 33 35 0 0 0
SMALL
GASTEIGER

@<TRIPOS>ATOM
      1  C         22.0490  -23.3500   -8.8550 C.2     1  UNL1        0.0750
      2  C         21.4340  -22.3690   -8.0700 C.2     1  UNL1        0.0260
      3  C         20.1420  -22.5860   -7.5910 C.2     1  UNL1        0.0260
      4  C         19.4810  -23.7810   -7.8850 C.2     1  UNL1        0.0220
      5  C         20.0970  -24.7570   -8.6710 C.2     1  UNL1        0.0260
      6  C         21.3900  -24.5470   -9.1530 C.2     1  UNL1        0.0260
      7  N         18.1380  -23.9690   -7.4490 N.pl3   1  UNL1       -0.1850
      8  H         17.9820  -23.8020   -6.4530 H       1  UNL1        0.1460
      9  S         16.9280  -23.1650   -8.3230 S.O2    1  UNL1        0.2180
     10  O         17.6420  -22.4370   -9.3520 O.2     1  UNL1       -0.2110
     11  O         15.8840  -24.1030   -8.6790 O.2     1  UNL1       -0.2110
     12  C         16.2580  -22.0050   -7.1190 C.3     1  UNL1        0.2010
     13  C         16.3630  -22.5610   -5.7260 C.2     1  UNL1        0.0170
     14  C         15.3940  -23.4680   -5.2800 C.2     1  UNL1        0.1250
     15  F         14.3670  -23.7870   -6.0810 F       1  UNL1       -0.2050
     16  C         15.4470  -24.0450   -4.0150 C.2     1  UNL1        0.0430
     17  C         16.4870  -23.7180   -3.1530 C.2     1  UNL1        0.0050
     18  C         17.4590  -22.8060   -3.5640 C.2     1  UNL1        0.0240
     19  C         17.3960  -22.2280   -4.8380 C.2     1  UNL1        0.0440
     20 CL         18.6150  -21.0740   -5.2450 Cl      1  UNL1       -0.0840
     21  S         23.6980  -23.0910   -9.4870 S.O2    1  UNL1        0.2480
     22  O         23.9240  -21.6600   -9.4940 O.2     1  UNL1       -0.2050
     23  O         24.5540  -23.9970   -8.7550 O.2     1  UNL1       -0.2050
     24  N         23.4770  -23.5950  -11.0690 N.pl3   1  UNL1       -0.1480
     25  H         22.7660  -24.3180  -11.1290 H       1  UNL1        0.1490
     26  C         23.0450  -22.5630  -11.9070 C.cat   1  UNL1        0.2160
     27  N         21.7860  -22.1910  -11.6630 N.2     1  UNL1       -0.2230
     28  C         21.2740  -21.2740  -12.5100 C.2     1  UNL1        0.0360
     29  C         21.9910  -20.7760  -13.5830 C.2     1  UNL1        0.0530
     30  C         19.8760  -20.7980  -12.2490 C.3     1  UNL1        0.0700
     31  C         23.2690  -21.2740  -13.7620 C.2     1  UNL1        0.0360
     32  C         24.1130  -20.8030  -14.9060 C.3     1  UNL1        0.0700
     33  N         23.8050  -22.1900  -12.9340 N.2     1  UNL1       -0.2230
@<TRIPOS>BOND
     1    32    31    1
     2    31    29    1
     3    31    33    2
     4    29    28    2
     5    33    26    1
     6    28    30    1
     7    28    27    1
     8    26    27    2
     9    26    24    1
    10    25    24    1
    11    24    21    1
    12    22    21    2
    13    21     1    1
    14    21    23    2
    15    10     9    2
    16     6     1    2
    17     6     5    1
    18     1     2    1
    19    11     9    2
    20     5     4    2
    21     9     7    1
    22     9    12    1
    23     2     3    2
    24     4     3    1
    25     4     7    1
    26     7     8    1
    27    12    13    1
    28    15    14    1
    29    13    14    2
    30    13    19    1
    31    14    16    1
    32    20    19    1
    33    19    18    2
    34    16    17    2
    35    18    17    1
