@<TRIPOS>MOLECULE
70578_out_ligand_01.pdbqt
 43 46 0 0 0
SMALL
GASTEIGER

@<TRIPOS>ATOM
      1  C         23.0320  -22.1830  -10.1420 C.2     1  UNL1        0.2560
      2  O         23.0210  -21.0360   -9.7090 O.2     1  UNL1       -0.2670
      3  N         22.1730  -23.2090   -9.7870 N.am    1  UNL1       -0.3230
      4  H         22.2400  -24.0790  -10.2990 H       1  UNL1        0.1690
      5  C         24.0480  -22.5190  -11.1840 C.2     1  UNL1        0.0340
      6  C         23.8340  -22.0600  -12.4920 C.2     1  UNL1        0.0440
      7  C         24.7540  -22.3460  -13.5210 C.2     1  UNL1        0.1020
      8  C         25.9080  -23.0750  -13.2320 C.2     1  UNL1        0.0570
      9  C         26.1290  -23.5140  -11.9170 C.2     1  UNL1        0.0260
     10 CL         27.1210  -23.5200  -14.3730 Cl      1  UNL1       -0.0830
     11  C         25.2130  -23.2360  -10.8970 C.2     1  UNL1        0.0190
     12  S         24.3880  -21.6760  -15.1250 S.O2    1  UNL1        0.2650
     13  O         24.0890  -22.8010  -15.9910 O.2     1  UNL1       -0.2000
     14  O         23.4390  -20.5930  -15.0100 O.2     1  UNL1       -0.2000
     15  N         25.8680  -21.1050  -15.6560 N.pl3   1  UNL1       -0.2800
     16  H         26.6680  -21.7240  -15.5030 H       1  UNL1        0.1790
     17  C         26.0830  -19.7510  -16.0140 C.2     1  UNL1        0.0480
     18  C         25.8890  -19.3560  -17.3390 C.2     1  UNL1        0.0310
     19  C         26.1120  -18.0320  -17.7220 C.2     1  UNL1        0.0090
     20  C         26.5480  -17.0910  -16.7860 C.2     1  UNL1       -0.0610
     21  C         26.7600  -15.6630  -17.1960 C.3     1  UNL1        0.0480
     22  C         26.7350  -17.4910  -15.4540 C.2     1  UNL1        0.0150
     23  C         26.5250  -18.8240  -15.0560 C.2     1  UNL1       -0.0340
     24  C         26.7190  -19.1890  -13.6100 C.3     1  UNL1        0.0500
     25  C         21.1480  -23.1660   -8.8160 C.2     1  UNL1        0.0350
     26  C         21.0110  -22.1480   -7.8660 C.2     1  UNL1        0.0310
     27  C         19.9640  -22.1760   -6.9360 C.2     1  UNL1        0.0270
     28  C         19.0570  -23.2360   -6.9480 C.2     1  UNL1        0.0750
     29  C         19.1730  -24.2550   -7.8940 C.2     1  UNL1        0.0270
     30  C         20.2190  -24.2170   -8.8210 C.2     1  UNL1        0.0310
     31  S         17.7070  -23.2400   -5.7940 S.O2    1  UNL1        0.2480
     32  O         18.1300  -22.6020   -4.5650 O.2     1  UNL1       -0.2050
     33  O         17.1960  -24.5970   -5.7660 O.2     1  UNL1       -0.2050
     34  N         16.5410  -22.3300   -6.5500 N.pl3   1  UNL1       -0.1480
     35  H         16.5550  -21.3530   -6.2830 H       1  UNL1        0.1490
     36  C         16.3770  -22.5190   -7.9150 C.cat   1  UNL1        0.2160
     37  N         17.0700  -21.7640   -8.7680 N.2     1  UNL1       -0.2230
     38  C         16.9580  -22.0920  -10.0700 C.2     1  UNL1        0.0360
     39  C         17.6830  -21.2330  -11.0620 C.3     1  UNL1        0.0700
     40  C         16.2110  -23.1740  -10.5000 C.2     1  UNL1        0.0530
     41  C         15.5680  -23.9120   -9.5220 C.2     1  UNL1        0.0360
     42  C         14.7370  -25.1010   -9.8940 C.3     1  UNL1        0.0700
     43  N         15.6630  -23.6080   -8.2130 N.2     1  UNL1       -0.2230
@<TRIPOS>BOND
     1    19    18    1
     2    19    20    2
     3    18    17    2
     4    21    20    1
     5    20    22    1
     6    17    15    1
     7    17    23    1
     8    13    12    2
     9    15    16    1
    10    15    12    1
    11    22    23    2
    12    12    14    2
    13    12     7    1
    14    23    24    1
    15    10     8    1
    16     7     8    2
    17     7     6    1
    18     8     9    1
    19     6     5    2
    20     9    11    2
    21     5    11    1
    22     5     1    1
    23    39    38    1
    24    40    38    2
    25    40    41    1
    26     4     3    1
    27     1     3   am
    28     1     2    2
    29    38    37    1
    30    42    41    1
    31     3    25    1
    32    41    43    2
    33    30    25    2
    34    30    29    1
    35    25    26    1
    36    37    36    2
    37    43    36    1
    38    36    34    1
    39    29    28    2
    40    26    27    2
    41    28    27    1
    42    28    31    1
    43    34    35    1
    44    34    31    1
    45    31    33    2
    46    31    32    2
