@<TRIPOS>MOLECULE
70586_out_ligand_01.pdbqt
 36 39 0 0 0
SMALL
GASTEIGER

@<TRIPOS>ATOM
      1  C         20.6530  -22.3500  -10.8380 C.2     1  UNL1        0.0340
      2  C         19.5380  -21.5930  -11.2090 C.2     1  UNL1        0.0310
      3  C         18.2870  -21.8420  -10.6350 C.2     1  UNL1        0.0270
      4  C         18.1490  -22.8640   -9.6950 C.2     1  UNL1        0.0800
      5  C         19.2550  -23.6220   -9.3060 C.2     1  UNL1        0.0270
      6  C         20.5020  -23.3620   -9.8800 C.2     1  UNL1        0.0310
      7  N         21.9440  -22.1450  -11.3530 N.am    1  UNL1       -0.3250
      8  C         23.0470  -21.6110  -10.7050 C.2     1  UNL1        0.2510
      9  O         23.0820  -21.1730   -9.5580 O.2     1  UNL1       -0.2700
     10  H         22.0820  -22.3310  -12.3430 H       1  UNL1        0.1690
     11  C         24.3150  -21.6400  -11.5790 C.3     1  UNL1        0.2170
     12  C         25.5130  -21.2660  -10.7090 C.3     1  UNL1        0.0500
     13  O         24.5750  -22.9420  -12.1100 O.2     1  UNL1       -0.3370
     14  C         24.7450  -23.0630  -13.4630 C.2     1  UNL1        0.0720
     15  C         25.3370  -24.2650  -13.8620 C.2     1  UNL1        0.0370
     16  C         25.5760  -24.5220  -15.2110 C.2     1  UNL1        0.0050
     17  C         25.2120  -23.5780  -16.1670 C.2     1  UNL1        0.0370
     18  C         24.5990  -22.3810  -15.7860 C.2     1  UNL1        0.0700
     19  C         24.3660  -22.1250  -14.4300 C.2     1  UNL1        0.0730
     20  O         24.2890  -21.5460  -16.8260 O.2     1  UNL1       -0.3560
     21  C         25.2710  -20.5870  -17.2020 C.3     1  UNL1        0.2100
     22  S         16.5720  -23.1570   -8.9320 S.O2    1  UNL1        0.2630
     23  O         15.7530  -23.9250   -9.8420 O.2     1  UNL1       -0.2000
     24  O         16.1100  -21.8880   -8.4070 O.2     1  UNL1       -0.2000
     25  N         16.9790  -24.0890   -7.5840 N.pl3   1  UNL1       -0.2800
     26  H         17.8810  -24.5480   -7.7100 H       1  UNL1        0.1790
     27  C         16.6950  -23.5590   -6.2880 C.2     1  UNL1        0.0530
     28  C         15.5450  -24.0250   -5.6440 C.2     1  UNL1        0.0310
     29  C         15.2060  -23.5410   -4.3860 C.2     1  UNL1        0.0030
     30  C         16.0150  -22.5900   -3.7670 C.2     1  UNL1        0.0120
     31  C         17.1730  -22.1040   -4.3980 C.2     1  UNL1       -0.0240
     32  C         17.9770  -21.1430   -3.7620 C.2     1  UNL1        0.0120
     33  C         17.5290  -22.5850   -5.6830 C.2     1  UNL1        0.0010
     34  C         19.1250  -20.6470   -4.3780 C.2     1  UNL1        0.0010
     35  C         19.4840  -21.1040   -5.6410 C.2     1  UNL1        0.0010
     36  C         18.6980  -22.0610   -6.2850 C.2     1  UNL1        0.0140
@<TRIPOS>BOND
     1    21    20    1
     2    20    18    1
     3    17    18    2
     4    17    16    1
     5    18    19    1
     6    16    15    2
     7    19    14    2
     8    15    14    1
     9    14    13    1
    10    10     7    1
    11    13    11    1
    12    11    12    1
    13    11     8    1
    14     7     1    1
    15     7     8   am
    16     2     1    2
    17     2     3    1
    18     1     6    1
    19     8     9    2
    20     3     4    2
    21     6     5    2
    22    23    22    2
    23     4     5    1
    24     4    22    1
    25    22    24    2
    26    22    25    1
    27    26    25    1
    28    25    27    1
    29    27    33    2
    30    27    28    1
    31    36    33    1
    32    36    35    2
    33    33    31    1
    34    28    29    2
    35    35    34    1
    36    31    30    2
    37    31    32    1
    38    29    30    1
    39    34    32    2
