@<TRIPOS>MOLECULE
70587_out_ligand_01.pdbqt
 40 43 0 0 0
SMALL
GASTEIGER

@<TRIPOS>ATOM
      1  C         21.1860  -23.3020   -8.7850 C.2     1  UNL1        0.0220
      2  C         20.2650  -24.3480   -8.6920 C.2     1  UNL1        0.0260
      3  C         19.2500  -24.2970   -7.7350 C.2     1  UNL1        0.0270
      4  C         19.1780  -23.2040   -6.8660 C.2     1  UNL1        0.0800
      5  C         20.0960  -22.1520   -6.9570 C.2     1  UNL1        0.0270
      6  C         21.1120  -22.2100   -7.9140 C.2     1  UNL1        0.0260
      7  N         22.2540  -23.3870   -9.7330 N.pl3   1  UNL1       -0.1810
      8  H         22.0290  -24.0230  -10.4990 H       1  UNL1        0.1460
      9  S         22.7000  -21.9020  -10.4460 S.O2    1  UNL1        0.2450
     10  O         23.2690  -20.9990   -9.4730 O.2     1  UNL1       -0.2060
     11  O         21.5760  -21.5300  -11.2830 O.2     1  UNL1       -0.2060
     12  C         24.0210  -22.4140  -11.5150 C.2     1  UNL1        0.0770
     13  C         25.0990  -23.1230  -10.9940 C.2     1  UNL1        0.0280
     14  C         26.1340  -23.4910  -11.8450 C.2     1  UNL1        0.0400
     15  C         26.1150  -23.1220  -13.2060 C.2     1  UNL1        0.0950
     16  C         25.0170  -22.4080  -13.7520 C.2     1  UNL1        0.0720
     17  C         23.9740  -22.0710  -12.8730 C.2     1  UNL1        0.0570
     18  O         27.1210  -23.5500  -14.0410 O.2     1  UNL1       -0.3540
     19  C         27.0670  -24.9400  -14.3750 C.3     1  UNL1        0.2100
     20  N         24.9460  -21.9960  -15.1220 N.am    1  UNL1       -0.3150
     21  C         24.4780  -22.8530  -16.1870 C.3     1  UNL1        0.1330
     22  C         24.9850  -22.1900  -17.4510 C.3     1  UNL1        0.0290
     23  C         24.9420  -20.7160  -17.1050 C.3     1  UNL1        0.1050
     24  C         25.2190  -20.7080  -15.6190 C.2     1  UNL1        0.2240
     25  O         25.5650  -19.7030  -15.0180 O.2     1  UNL1       -0.2730
     26  S         17.8960  -23.1360   -5.6340 S.O2    1  UNL1        0.2630
     27  O         17.4900  -24.4990   -5.3690 O.2     1  UNL1       -0.2000
     28  O         18.3330  -22.2650   -4.5640 O.2     1  UNL1       -0.2000
     29  N         16.6110  -22.4180   -6.4490 N.pl3   1  UNL1       -0.2810
     30  H         15.8180  -22.2450   -5.8330 H       1  UNL1        0.1790
     31  C         16.3640  -22.6670   -7.8270 C.2     1  UNL1        0.0430
     32  C         15.6390  -23.7720   -8.2710 C.2     1  UNL1        0.0300
     33  C         15.4370  -23.9750   -9.6370 C.2     1  UNL1        0.0030
     34  C         15.9780  -23.0870  -10.5660 C.2     1  UNL1        0.0160
     35  C         16.7350  -21.9880  -10.1370 C.2     1  UNL1        0.0500
     36  C         16.9280  -21.7940   -8.7600 C.2     1  UNL1        0.0460
     37  C         17.3490  -21.0240  -11.1230 C.3     1  UNL1        0.4170
     38  F         18.6810  -20.8390  -10.8950 F       1  UNL1       -0.1660
     39  F         17.2450  -21.4170  -12.4200 F       1  UNL1       -0.1660
     40  F         16.7890  -19.7830  -11.0610 F       1  UNL1       -0.1660
@<TRIPOS>BOND
     1    22    23    1
     2    22    21    1
     3    23    24    1
     4    21    20    1
     5    24    20   am
     6    24    25    2
     7    20    16    1
     8    19    18    1
     9    18    15    1
    10    16    15    2
    11    16    17    1
    12    15    14    1
    13    17    12    2
    14    39    37    1
    15    14    13    2
    16    12    13    1
    17    12     9    1
    18    11     9    2
    19    37    40    1
    20    37    38    1
    21    37    35    1
    22    34    35    2
    23    34    33    1
    24     8     7    1
    25     9     7    1
    26     9    10    2
    27    35    36    1
    28     7     1    1
    29    33    32    2
    30     1     2    2
    31     1     6    1
    32    36    31    2
    33     2     3    1
    34    32    31    1
    35     6     5    2
    36    31    29    1
    37     3     4    2
    38     5     4    1
    39     4    26    1
    40    29    30    1
    41    29    26    1
    42    26    27    2
    43    26    28    2
