@<TRIPOS>MOLECULE
70589_out_ligand_01.pdbqt
 39 43 0 0 0
SMALL
GASTEIGER

@<TRIPOS>ATOM
      1  N         21.5000  -22.6620   -9.1980 N.am    1  UNL1       -0.3230
      2  C         21.2750  -22.3340  -10.5240 C.2     1  UNL1        0.2560
      3  O         20.1920  -22.0820  -11.0390 O.2     1  UNL1       -0.2670
      4  H         22.4280  -22.9810   -8.9550 H       1  UNL1        0.1690
      5  C         20.5500  -22.6920   -8.1540 C.2     1  UNL1        0.0350
      6  C         20.3650  -21.6550   -7.2360 C.2     1  UNL1        0.0310
      7  C         19.4020  -21.7600   -6.2280 C.2     1  UNL1        0.0270
      8  C         18.6100  -22.9050   -6.1430 C.2     1  UNL1        0.0800
      9  C         18.7980  -23.9610   -7.0350 C.2     1  UNL1        0.0270
     10  C         19.7640  -23.8490   -8.0390 C.2     1  UNL1        0.0310
     11  S         17.3790  -23.0410   -4.8660 S.O2    1  UNL1        0.2630
     12  O         17.6250  -22.0060   -3.8840 O.2     1  UNL1       -0.2000
     13  O         17.3110  -24.4370   -4.4810 O.2     1  UNL1       -0.2000
     14  N         15.9370  -22.7140   -5.6860 N.pl3   1  UNL1       -0.2810
     15  H         15.1220  -22.8740   -5.0980 H       1  UNL1        0.1790
     16  C         15.8350  -23.0360   -7.0680 C.2     1  UNL1        0.0430
     17  C         15.3750  -24.3010   -7.4310 C.2     1  UNL1        0.0300
     18  C         15.3200  -24.6610   -8.7780 C.2     1  UNL1        0.0030
     19  C         15.7200  -23.7540   -9.7600 C.2     1  UNL1        0.0070
     20  C         16.1630  -22.4740   -9.4060 C.2     1  UNL1       -0.0600
     21  C         16.6250  -21.5100  -10.4600 C.3     1  UNL1        0.0480
     22  C         16.2280  -22.1260   -8.0500 C.2     1  UNL1        0.0370
     23  C         22.4850  -22.3420  -11.3980 C.2     1  UNL1        0.0320
     24  C         22.4130  -21.6840  -12.6330 C.2     1  UNL1        0.0170
     25  C         23.5210  -21.6530  -13.4830 C.2     1  UNL1        0.0100
     26  C         24.7270  -22.2640  -13.1080 C.2     1  UNL1       -0.0400
     27  C         24.7890  -22.9260  -11.8710 C.2     1  UNL1        0.0100
     28  C         23.6840  -22.9540  -11.0150 C.2     1  UNL1        0.0170
     29  C         25.9090  -22.2420  -14.0600 C.3     1  UNL1        0.1610
     30  N         25.5560  -21.6240  -15.3500 N.pl3   1  UNL1       -0.3760
     31  C         25.4650  -22.5770  -16.4660 C.3     1  UNL1        0.1230
     32  C         24.8910  -21.9180  -17.7070 C.3     1  UNL1        0.0240
     33  C         25.8290  -20.8060  -18.1350 C.3     1  UNL1        0.0420
     34  C         26.1190  -19.8810  -16.9800 C.2     1  UNL1       -0.0320
     35  C         26.5630  -18.5770  -17.2720 C.2     1  UNL1        0.0090
     36  C         25.9720  -20.3180  -15.6430 C.2     1  UNL1        0.0360
     37  C         26.8170  -17.6700  -16.2510 C.2     1  UNL1        0.0010
     38  C         26.6130  -18.0550  -14.9340 C.2     1  UNL1        0.0020
     39  C         26.1860  -19.3560  -14.6400 C.2     1  UNL1        0.0300
@<TRIPOS>BOND
     1    33    32    1
     2    33    34    1
     3    32    31    1
     4    35    34    2
     5    35    37    1
     6    34    36    1
     7    31    30    1
     8    37    38    2
     9    36    30    1
    10    36    39    2
    11    30    29    1
    12    38    39    1
    13    29    26    1
    14    25    26    2
    15    25    24    1
    16    26    27    1
    17    24    23    2
    18    27    28    2
    19    23    28    1
    20    23     2    1
    21     3     2    2
    22     2     1   am
    23    21    20    1
    24    19    20    2
    25    19    18    1
    26    20    22    1
    27     1     4    1
    28     1     5    1
    29    18    17    2
    30     5    10    2
    31     5     6    1
    32    22    16    2
    33    10     9    1
    34    17    16    1
    35     6     7    2
    36    16    14    1
    37     9     8    2
    38     7     8    1
    39     8    11    1
    40    14    15    1
    41    14    11    1
    42    11    13    2
    43    11    12    2
