@<TRIPOS>MOLECULE
70588_out_ligand_01.pdbqt
 36 42 0 0 0
SMALL
GASTEIGER

@<TRIPOS>ATOM
      1  O         20.6990  -21.2230  -11.4360 O.2     1  UNL1       -0.2670
      2  C         21.5610  -21.9880  -11.0190 C.2     1  UNL1        0.2560
      3  N         21.5560  -22.6750   -9.8190 N.am    1  UNL1       -0.3230
      4  H         22.4080  -23.1580   -9.5630 H       1  UNL1        0.1690
      5  C         22.7830  -22.1920  -11.8470 C.2     1  UNL1        0.0320
      6  C         23.7100  -23.1590  -11.4440 C.2     1  UNL1        0.0170
      7  C         24.8680  -23.3790  -12.1930 C.2     1  UNL1        0.0090
      8  C         25.1210  -22.6220  -13.3470 C.2     1  UNL1       -0.0450
      9  C         24.1930  -21.6420  -13.7360 C.2     1  UNL1        0.0090
     10  C         23.0340  -21.4210  -12.9900 C.2     1  UNL1        0.0170
     11  C         26.3780  -22.8520  -14.1620 C.3     1  UNL1        0.1340
     12  N         26.0730  -22.9320  -15.5900 N.pl3   1  UNL1       -0.2780
     13  C         24.8560  -23.6680  -15.9990 C.3     1  UNL1        0.1010
     14  C         24.4340  -23.1390  -17.3790 C.3     1  UNL1        0.0550
     15  C         25.0200  -21.7690  -17.3230 C.2     1  UNL1       -0.0360
     16  C         24.7620  -20.6900  -18.1530 C.2     1  UNL1        0.0090
     17  C         25.9560  -21.7070  -16.2840 C.2     1  UNL1        0.0170
     18  C         25.4600  -19.5070  -17.9270 C.2     1  UNL1        0.0010
     19  C         26.4070  -19.4280  -16.8950 C.2     1  UNL1        0.0020
     20  C         26.6630  -20.5330  -16.0740 C.2     1  UNL1        0.0240
     21  C         20.5270  -22.7060   -8.8540 C.2     1  UNL1        0.0350
     22  C         20.6090  -22.0970   -7.6060 C.2     1  UNL1        0.0300
     23  C         19.5380  -22.1650   -6.7030 C.2     1  UNL1        0.0100
     24  C         18.3510  -22.8430   -7.0190 C.2     1  UNL1       -0.0490
     25  C         18.2840  -23.4500   -8.2860 C.2     1  UNL1        0.0100
     26  C         19.3520  -23.3810   -9.1890 C.2     1  UNL1        0.0300
     27  C         17.1610  -22.9370   -6.0510 C.3     1  UNL1       -0.0120
     28  C         17.0200  -24.3930   -5.5180 C.3     1  UNL1        0.0190
     29  C         15.7980  -24.5290   -4.5900 C.3     1  UNL1       -0.0130
     30  C         14.5270  -24.1460   -5.3660 C.3     1  UNL1        0.0090
     31  C         15.9630  -23.5890   -3.3890 C.3     1  UNL1        0.0090
     32  C         14.6250  -22.6920   -5.8540 C.3     1  UNL1       -0.0130
     33  C         14.7960  -21.7600   -4.6450 C.3     1  UNL1        0.0090
     34  C         15.8420  -22.5490   -6.7850 C.3     1  UNL1        0.0190
     35  C         16.0690  -22.1360   -3.8750 C.3     1  UNL1       -0.0130
     36  C         17.2850  -22.0020   -4.8070 C.3     1  UNL1        0.0190
@<TRIPOS>BOND
     1    16    18    1
     2    16    15    2
     3    18    19    2
     4    14    15    1
     5    14    13    1
     6    15    17    1
     7    19    20    1
     8    17    20    2
     9    17    12    1
    10    13    12    1
    11    12    11    1
    12    11     8    1
    13     9     8    2
    14     9    10    1
    15     8     7    1
    16    10     5    2
    17     7     6    2
    18     5     6    1
    19     5     2    1
    20     1     2    2
    21     2     3   am
    22     3     4    1
    23     3    21    1
    24    26    21    2
    25    26    25    1
    26    21    22    1
    27    25    24    2
    28    22    23    2
    29    24    23    1
    30    24    27    1
    31    34    27    1
    32    34    32    1
    33    27    28    1
    34    27    36    1
    35    32    30    1
    36    32    33    1
    37    28    29    1
    38    30    29    1
    39    36    35    1
    40    33    35    1
    41    29    31    1
    42    35    31    1
