@<TRIPOS>MOLECULE
70595_out_ligand_01.pdbqt
 31 33 0 0 0
SMALL
GASTEIGER

@<TRIPOS>ATOM
      1  C         21.2360  -23.1880   -9.8640 C.2     1  UNL1        0.0340
      2  C         20.2370  -22.3390  -10.3470 C.2     1  UNL1        0.0310
      3  C         18.9290  -22.4260   -9.8570 C.2     1  UNL1        0.0270
      4  C         18.6220  -23.3610   -8.8680 C.2     1  UNL1        0.0800
      5  C         19.6020  -24.2320   -8.3900 C.2     1  UNL1        0.0270
      6  C         20.9050  -24.1400   -8.8860 C.2     1  UNL1        0.0310
      7  S         16.9600  -23.4890   -8.2620 S.O2    1  UNL1        0.2630
      8  O         16.0740  -23.3510   -9.3990 O.2     1  UNL1       -0.2000
      9  O         16.8810  -24.6520   -7.4040 O.2     1  UNL1       -0.2000
     10  N         16.7720  -22.0800   -7.3590 N.pl3   1  UNL1       -0.2800
     11  H         16.1030  -21.4310   -7.7710 H       1  UNL1        0.1790
     12  C         16.8730  -22.1230   -5.9380 C.2     1  UNL1        0.0540
     13  C         15.7410  -22.4000   -5.1470 C.2     1  UNL1       -0.0340
     14  C         14.3720  -22.6510   -5.7200 C.3     1  UNL1        0.0500
     15  C         15.8900  -22.4810   -3.7540 C.2     1  UNL1        0.0090
     16  C         17.1240  -22.2510   -3.1530 C.2     1  UNL1        0.0010
     17  C         18.2250  -21.9210   -3.9370 C.2     1  UNL1        0.0090
     18  C         18.1100  -21.8310   -5.3330 C.2     1  UNL1       -0.0340
     19  C         19.3350  -21.4350   -6.1130 C.3     1  UNL1        0.0500
     20  N         22.5740  -23.1630  -10.3030 N.am    1  UNL1       -0.3270
     21  C         23.5100  -22.1590  -10.1160 C.2     1  UNL1        0.2260
     22  O         23.3240  -21.0960   -9.5280 O.2     1  UNL1       -0.2730
     23  H         22.9070  -24.0080  -10.7520 H       1  UNL1        0.1690
     24  C         24.8520  -22.4420  -10.7810 C.3     1  UNL1        0.1410
     25  C         24.7870  -22.6030  -12.2810 C.2     1  UNL1       -0.0490
     26  C         25.3110  -23.7450  -12.9010 C.2     1  UNL1        0.0080
     27  C         25.2660  -23.8800  -14.2900 C.2     1  UNL1        0.0070
     28  C         24.7030  -22.8750  -15.0840 C.2     1  UNL1       -0.0620
     29  C         24.6220  -23.0380  -16.5730 C.3     1  UNL1        0.0480
     30  C         24.1580  -21.7460  -14.4650 C.2     1  UNL1        0.0070
     31  C         24.2000  -21.6080  -13.0760 C.2     1  UNL1        0.0080
@<TRIPOS>BOND
     1    29    28    1
     2    28    30    2
     3    28    27    1
     4    30    31    1
     5    27    26    2
     6    31    25    2
     7    26    25    1
     8    25    24    1
     9    24    21    1
    10    23    20    1
    11     2     1    2
    12     2     3    1
    13    20    21   am
    14    20     1    1
    15    21    22    2
    16     1     6    1
    17     3     4    2
    18     8     7    2
    19     6     5    2
    20     4     5    1
    21     4     7    1
    22     7     9    2
    23     7    10    1
    24    11    10    1
    25    10    12    1
    26    19    18    1
    27    12    18    2
    28    12    13    1
    29    14    13    1
    30    18    17    1
    31    13    15    2
    32    17    16    2
    33    15    16    1
