@<TRIPOS>MOLECULE
70591_out_ligand_01.pdbqt
 32 35 0 0 0
SMALL
GASTEIGER

@<TRIPOS>ATOM
      1  C         23.2840  -22.3550  -11.9530 C.2     1  UNL1        0.0450
      2  C         22.2440  -21.6190  -12.5250 C.2     1  UNL1        0.0310
      3  C         20.9840  -21.6000  -11.9190 C.2     1  UNL1        0.0190
      4  C         20.7710  -22.3150  -10.7330 C.2     1  UNL1        0.0320
      5  C         21.8270  -23.0240  -10.1470 C.2     1  UNL1        0.0190
      6  C         23.0830  -23.0460  -10.7580 C.2     1  UNL1        0.0310
      7  C         19.4520  -22.3240  -10.0440 C.2     1  UNL1        0.2520
      8  O         18.4300  -22.1020  -10.6810 O.2     1  UNL1       -0.2680
      9  N         19.4740  -22.5710   -8.6900 N.am    1  UNL1       -0.3480
     10  H         20.3440  -22.7780   -8.2220 H       1  UNL1        0.1630
     11  C         18.2480  -22.7200   -7.9190 C.3     1  UNL1        0.1180
     12  C         17.8590  -24.2120   -7.8930 C.3     1  UNL1        0.0300
     13  C         16.8190  -24.6110   -6.8410 C.3     1  UNL1        0.0070
     14  C         16.2750  -23.4500   -6.0150 C.3     1  UNL1        0.0390
     15  C         17.3880  -22.5390   -5.5700 C.2     1  UNL1       -0.0500
     16  C         17.4150  -22.0150   -4.2720 C.2     1  UNL1        0.0070
     17  C         18.3660  -22.1580   -6.5110 C.2     1  UNL1       -0.0290
     18  C         18.4110  -21.1140   -3.9020 C.2     1  UNL1        0.0010
     19  C         19.3680  -20.7120   -4.8320 C.2     1  UNL1        0.0010
     20  C         19.3390  -21.2200   -6.1320 C.2     1  UNL1        0.0100
     21  N         24.5820  -22.3570  -12.5410 N.pl3   1  UNL1       -0.2720
     22  S         25.8490  -21.6300  -11.6910 S.O2    1  UNL1        0.2290
     23  C         26.5960  -23.0490  -10.9190 C.3     1  UNL1        0.1860
     24  O         26.8200  -21.0930  -12.6220 O.2     1  UNL1       -0.2060
     25  O         25.2940  -20.7980  -10.6420 O.2     1  UNL1       -0.2060
     26  C         24.8920  -23.3760  -13.5610 C.3     1  UNL1        0.1800
     27  C         24.8610  -22.8370  -14.9710 C.2     1  UNL1       -0.0390
     28  C         24.8390  -21.4550  -15.2070 C.2     1  UNL1        0.0090
     29  C         24.7900  -20.9590  -16.5100 C.2     1  UNL1        0.0010
     30  C         24.7640  -21.8400  -17.5900 C.2     1  UNL1        0.0000
     31  C         24.7850  -23.2150  -17.3690 C.2     1  UNL1        0.0010
     32  C         24.8320  -23.7140  -16.0660 C.2     1  UNL1        0.0090
@<TRIPOS>BOND
     1    30    31    2
     2    30    29    1
     3    31    32    1
     4    29    28    2
     5    32    27    2
     6    28    27    1
     7    27    26    1
     8    26    21    1
     9    24    22    2
    10    21     1    1
    11    21    22    1
    12     2     1    2
    13     2     3    1
    14     1     6    1
    15     3     4    2
    16    22    23    1
    17    22    25    2
    18     6     5    2
    19     4     5    1
    20     4     7    1
    21     8     7    2
    22     7     9   am
    23     9    10    1
    24     9    11    1
    25    11    12    1
    26    11    17    1
    27    12    13    1
    28    13    14    1
    29    17    20    1
    30    17    15    2
    31    20    19    2
    32    14    15    1
    33    15    16    1
    34    19    18    1
    35    16    18    2
