@<TRIPOS>MOLECULE
70590_out_ligand_01.pdbqt
 37 40 0 0 0
SMALL
GASTEIGER

@<TRIPOS>ATOM
      1  C         21.1180  -22.6500  -10.6220 C.2     1  UNL1        0.0340
      2  C         20.0490  -21.8710  -11.0720 C.2     1  UNL1        0.0310
      3  C         18.7630  -22.0660  -10.5570 C.2     1  UNL1        0.0270
      4  C         18.5440  -23.0560   -9.5970 C.2     1  UNL1        0.0800
      5  C         19.6060  -23.8260   -9.1190 C.2     1  UNL1        0.0270
      6  C         20.8870  -23.6250   -9.6390 C.2     1  UNL1        0.0310
      7  N         22.4370  -22.5190  -11.0920 N.am    1  UNL1       -0.3250
      8  C         23.4610  -21.7360  -10.5780 C.2     1  UNL1        0.2510
      9  O         23.3930  -21.0310   -9.5740 O.2     1  UNL1       -0.2700
     10  H         22.6660  -23.0270  -11.9400 H       1  UNL1        0.1690
     11  C         24.7770  -21.9110  -11.3750 C.3     1  UNL1        0.2200
     12  C         25.9090  -21.0310  -10.8290 C.3     1  UNL1        0.0380
     13  C         26.3350  -19.9180  -11.7790 C.3     1  UNL1        0.0080
     14  O         24.5450  -21.5960  -12.7540 O.2     1  UNL1       -0.3360
     15  C         24.7850  -22.5930  -13.6690 C.2     1  UNL1        0.0810
     16  C         24.9890  -23.9230  -13.2930 C.2     1  UNL1        0.0380
     17  C         25.2150  -24.8960  -14.2650 C.2     1  UNL1        0.0040
     18  C         25.2540  -24.5410  -15.6120 C.2     1  UNL1        0.0120
     19  C         25.0900  -23.2060  -16.0090 C.2     1  UNL1       -0.0230
     20  C         25.1570  -22.8480  -17.3660 C.2     1  UNL1        0.0120
     21  C         24.8680  -22.2070  -15.0300 C.2     1  UNL1        0.0070
     22  C         25.0170  -21.5200  -17.7670 C.2     1  UNL1        0.0010
     23  C         24.8110  -20.5280  -16.8150 C.2     1  UNL1        0.0010
     24  C         24.7390  -20.8670  -15.4630 C.2     1  UNL1        0.0150
     25  S         16.9060  -23.3060   -8.9540 S.O2    1  UNL1        0.2630
     26  O         16.9590  -24.4270   -8.0400 O.2     1  UNL1       -0.2000
     27  O         15.9830  -23.2890  -10.0680 O.2     1  UNL1       -0.2000
     28  N         16.6530  -21.9250   -8.0020 N.pl3   1  UNL1       -0.2790
     29  H         15.9980  -21.2900   -8.4640 H       1  UNL1        0.1790
     30  C         16.4640  -22.0930   -6.5880 C.2     1  UNL1        0.0660
     31  C         15.1800  -22.3560   -6.0990 C.2     1  UNL1        0.0320
     32  C         14.9630  -22.4810   -4.7280 C.2     1  UNL1        0.0040
     33  C         16.0290  -22.3470   -3.8400 C.2     1  UNL1        0.0260
     34  C         17.3170  -22.0910   -4.3190 C.2     1  UNL1        0.0580
     35 CL         18.5820  -21.9290   -3.1530 Cl      1  UNL1       -0.0820
     36  C         17.5440  -21.9680   -5.6970 C.2     1  UNL1        0.0830
     37 CL         19.1320  -21.6710   -6.3290 Cl      1  UNL1       -0.0800
@<TRIPOS>BOND
     1    22    20    2
     2    22    23    1
     3    20    19    1
     4    23    24    2
     5    19    18    2
     6    19    21    1
     7    18    17    1
     8    24    21    1
     9    21    15    2
    10    17    16    2
    11    15    16    1
    12    15    14    1
    13    14    11    1
    14    10     7    1
    15    13    12    1
    16    11    12    1
    17    11     8    1
    18     7     1    1
    19     7     8   am
    20     2     1    2
    21     2     3    1
    22     1     6    1
    23     8     9    2
    24     3     4    2
    25    27    25    2
    26     6     5    2
    27     4     5    1
    28     4    25    1
    29    25    26    2
    30    25    28    1
    31    29    28    1
    32    28    30    1
    33    30    31    2
    34    30    36    1
    35    37    36    1
    36    31    32    1
    37    36    34    2
    38    32    33    2
    39    34    33    1
    40    34    35    1
