@<TRIPOS>MOLECULE
70605_out_ligand_01.pdbqt
 38 42 0 0 0
SMALL
GASTEIGER

@<TRIPOS>ATOM
      1  O         20.7180  -20.7100  -11.5040 O.2     1  UNL1       -0.2670
      2  C         21.3740  -21.7420  -11.5770 C.2     1  UNL1        0.2560
      3  N         21.1360  -22.9230  -10.8980 N.am    1  UNL1       -0.3230
      4  H         21.8560  -23.6320  -10.9500 H       1  UNL1        0.1690
      5  C         22.5900  -21.7480  -12.4400 C.2     1  UNL1        0.0320
      6  C         23.7610  -22.4110  -12.0580 C.2     1  UNL1        0.0170
      7  C         24.8780  -22.3910  -12.8980 C.2     1  UNL1        0.0100
      8  C         24.8340  -21.7260  -14.1330 C.2     1  UNL1       -0.0300
      9  C         23.6530  -21.0750  -14.5130 C.2     1  UNL1        0.0100
     10  C         22.5350  -21.0910  -13.6740 C.2     1  UNL1        0.0170
     11  C         26.0510  -21.7030  -15.0380 C.3     1  UNL1        0.3110
     12  N         26.5910  -20.3530  -15.2600 N.3     1  UNL1        0.0970
     13  C         26.3470  -19.5040  -14.0820 C.3     1  UNL1        0.2770
     14  C         27.0750  -18.1620  -14.2190 C.3     1  UNL1        0.0690
     15  C         26.8220  -17.5020  -15.5490 C.2     1  UNL1       -0.0490
     16  C         27.1210  -16.1450  -15.7320 C.2     1  UNL1        0.0070
     17  C         26.3430  -18.2640  -16.6280 C.2     1  UNL1       -0.0240
     18  C         26.9190  -15.5410  -16.9730 C.2     1  UNL1        0.0010
     19  C         26.4260  -16.2870  -18.0400 C.2     1  UNL1        0.0010
     20  C         26.1370  -17.6420  -17.8690 C.2     1  UNL1        0.0090
     21  C         25.9820  -19.7260  -16.4520 C.3     1  UNL1        0.3110
     22  C         20.0490  -23.2170  -10.0490 C.2     1  UNL1        0.0350
     23  C         18.7350  -22.8090  -10.2970 C.2     1  UNL1        0.0310
     24  C         17.7070  -23.1370   -9.4060 C.2     1  UNL1        0.0270
     25  C         17.9990  -23.8720   -8.2560 C.2     1  UNL1        0.0800
     26  C         19.2990  -24.3100   -8.0070 C.2     1  UNL1        0.0270
     27  C         20.3200  -23.9780   -8.9020 C.2     1  UNL1        0.0310
     28  S         16.6900  -24.2790   -7.1230 S.O2    1  UNL1        0.2630
     29  O         17.2330  -25.1540   -6.1060 O.2     1  UNL1       -0.2000
     30  O         15.5370  -24.6620   -7.9080 O.2     1  UNL1       -0.2000
     31  N         16.3120  -22.7840   -6.4310 N.pl3   1  UNL1       -0.2790
     32  H         15.8850  -22.1530   -7.1090 H       1  UNL1        0.1790
     33  C         17.2100  -22.2260   -5.4750 C.2     1  UNL1        0.0600
     34  C         18.2200  -21.3550   -5.8670 C.2     1  UNL1        0.0330
     35  C         19.0550  -20.7960   -4.9030 C.2     1  UNL1        0.0210
     36  C         18.8420  -21.1270   -3.5740 C.2     1  UNL1        0.1160
     37  N         17.8650  -21.9610   -3.1560 N.2     1  UNL1       -0.2710
     38  C         17.0700  -22.4920   -4.1160 C.2     1  UNL1        0.1460
@<TRIPOS>BOND
     1    19    20    2
     2    19    18    1
     3    20    17    1
     4    18    16    2
     5    17    21    1
     6    17    15    2
     7    21    12    1
     8    16    15    1
     9    15    14    1
    10    12    11    1
    11    12    13    1
    12    11     8    1
    13     9     8    2
    14     9    10    1
    15    14    13    1
    16     8     7    1
    17    10     5    2
    18     7     6    2
    19     5     6    1
    20     5     2    1
    21     2     1    2
    22     2     3   am
    23     4     3    1
    24     3    22    1
    25    23    22    2
    26    23    24    1
    27    22    27    1
    28    24    25    2
    29    27    26    2
    30    25    26    1
    31    25    28    1
    32    30    28    2
    33    28    31    1
    34    28    29    2
    35    32    31    1
    36    31    33    1
    37    34    33    2
    38    34    35    1
    39    33    38    1
    40    35    36    2
    41    38    37    2
    42    36    37    1
