@<TRIPOS>MOLECULE
70608_out_ligand_01.pdbqt
 35 37 0 0 0
SMALL
GASTEIGER

@<TRIPOS>ATOM
      1  C         21.1890  -22.9950  -10.1530 C.2     1  UNL1        0.0340
      2  C         20.9800  -23.9580   -9.1620 C.2     1  UNL1        0.0310
      3  C         19.7190  -24.1130   -8.5780 C.2     1  UNL1        0.0270
      4  C         18.6540  -23.3160   -9.0030 C.2     1  UNL1        0.0800
      5  C         18.8540  -22.3300   -9.9720 C.2     1  UNL1        0.0270
      6  C         20.1200  -22.1750  -10.5430 C.2     1  UNL1        0.0310
      7  N         22.4260  -22.7770  -10.7840 N.am    1  UNL1       -0.3250
      8  C         23.4040  -21.8560  -10.4470 C.2     1  UNL1        0.2510
      9  O         23.3770  -21.0720   -9.5030 O.2     1  UNL1       -0.2700
     10  H         22.6890  -23.4260  -11.5210 H       1  UNL1        0.1690
     11  C         24.5880  -21.8630  -11.4340 C.3     1  UNL1        0.2200
     12  C         25.8480  -21.4310  -10.6700 C.3     1  UNL1        0.0380
     13  C         26.5410  -20.2450  -11.3280 C.3     1  UNL1        0.0080
     14  O         24.3960  -20.9360  -12.5070 O.2     1  UNL1       -0.3370
     15  C         24.4960  -21.4000  -13.7900 C.2     1  UNL1        0.0700
     16  C         24.3610  -20.6470  -14.9520 C.2     1  UNL1        0.0370
     17  C         24.5000  -21.2590  -16.2020 C.2     1  UNL1        0.0100
     18  C         24.7790  -22.6300  -16.3120 C.2     1  UNL1       -0.0560
     19  C         24.9160  -23.2500  -17.6750 C.3     1  UNL1        0.0490
     20  C         24.9360  -23.3920  -15.1390 C.2     1  UNL1       -0.0530
     21  C         25.2320  -24.8660  -15.1920 C.3     1  UNL1        0.0490
     22  C         24.7870  -22.7640  -13.8910 C.2     1  UNL1        0.0440
     23  S         17.0550  -23.5090   -8.2510 S.O2    1  UNL1        0.2630
     24  O         16.0800  -23.5960   -9.3150 O.2     1  UNL1       -0.2000
     25  O         17.1690  -24.5650   -7.2650 O.2     1  UNL1       -0.2000
     26  N         16.8320  -22.0900   -7.3640 N.pl3   1  UNL1       -0.2800
     27  H         16.1460  -21.4700   -7.7850 H       1  UNL1        0.1790
     28  C         16.9370  -22.1050   -5.9390 C.2     1  UNL1        0.0540
     29  C         18.1730  -21.8270   -5.3220 C.2     1  UNL1       -0.0340
     30  C         19.4000  -21.4030   -6.0830 C.3     1  UNL1        0.0500
     31  C         18.2840  -21.9470   -3.9270 C.2     1  UNL1        0.0090
     32  C         17.1840  -22.3010   -3.1530 C.2     1  UNL1        0.0010
     33  C         15.9540  -22.5300   -3.7630 C.2     1  UNL1        0.0090
     34  C         15.8090  -22.4250   -5.1570 C.2     1  UNL1       -0.0340
     35  C         14.4410  -22.7020   -5.7220 C.3     1  UNL1        0.0500
@<TRIPOS>BOND
     1    19    18    1
     2    18    17    2
     3    18    20    1
     4    17    16    1
     5    21    20    1
     6    20    22    2
     7    16    15    2
     8    22    15    1
     9    15    14    1
    10    14    11    1
    11    10     7    1
    12    11    12    1
    13    11     8    1
    14    13    12    1
    15     7     8   am
    16     7     1    1
    17     6     1    2
    18     6     5    1
    19     8     9    2
    20     1     2    1
    21     5     4    2
    22    24    23    2
    23     2     3    2
    24     4     3    1
    25     4    23    1
    26    23    26    1
    27    23    25    2
    28    27    26    1
    29    26    28    1
    30    30    29    1
    31    28    29    2
    32    28    34    1
    33    35    34    1
    34    29    31    1
    35    34    33    2
    36    31    32    2
    37    33    32    1
