@<TRIPOS>MOLECULE
70609_out_ligand_01.pdbqt
 31 33 0 0 0
SMALL
GASTEIGER

@<TRIPOS>ATOM
      1  C         21.1410  -23.2280   -9.9020 C.2     1  UNL1        0.0340
      2  C         20.2170  -22.4110  -10.5600 C.2     1  UNL1        0.0310
      3  C         18.8750  -22.3940  -10.1660 C.2     1  UNL1        0.0270
      4  C         18.4570  -23.1930   -9.1010 C.2     1  UNL1        0.0800
      5  C         19.3620  -24.0260   -8.4420 C.2     1  UNL1        0.0270
      6  C         20.7000  -24.0390   -8.8440 C.2     1  UNL1        0.0310
      7  N         22.5070  -23.3050  -10.2370 N.am    1  UNL1       -0.3270
      8  C         23.5220  -22.4370   -9.8690 C.2     1  UNL1        0.2260
      9  O         23.3920  -21.4310   -9.1760 O.2     1  UNL1       -0.2730
     10  H         22.7870  -24.1280  -10.7580 H       1  UNL1        0.1690
     11  C         24.8850  -22.7850  -10.4580 C.3     1  UNL1        0.1420
     12  C         25.4340  -21.7840  -11.4560 C.2     1  UNL1       -0.0430
     13  C         25.3490  -21.9890  -12.8490 C.2     1  UNL1       -0.0550
     14  C         25.8260  -20.9930  -13.7130 C.2     1  UNL1        0.0080
     15  C         24.7260  -23.2240  -13.4410 C.3     1  UNL1        0.0490
     16  C         26.4020  -19.8230  -13.2150 C.2     1  UNL1        0.0070
     17  C         26.5220  -19.6260  -11.8380 C.2     1  UNL1       -0.0610
     18  C         27.1210  -18.3590  -11.3000 C.3     1  UNL1        0.0480
     19  C         26.0250  -20.6020  -10.9680 C.2     1  UNL1        0.0140
     20  S         16.7540  -23.1660   -8.6050 S.O2    1  UNL1        0.2630
     21  O         15.9480  -23.7310   -9.6650 O.2     1  UNL1       -0.2000
     22  O         16.4790  -21.8440   -8.0810 O.2     1  UNL1       -0.2000
     23  N         16.7390  -24.2110   -7.2730 N.pl3   1  UNL1       -0.2810
     24  H         17.4620  -24.9230   -7.3710 H       1  UNL1        0.1790
     25  C         16.5360  -23.6440   -5.9860 C.2     1  UNL1        0.0440
     26  C         15.3020  -23.7990   -5.3520 C.2     1  UNL1        0.0300
     27  C         15.0820  -23.2140   -4.1040 C.2     1  UNL1        0.0040
     28  C         16.0940  -22.4690   -3.4980 C.2     1  UNL1        0.0240
     29  C         17.3210  -22.3110   -4.1440 C.2     1  UNL1        0.0360
     30 CL         18.5630  -21.3850   -3.3940 Cl      1  UNL1       -0.0840
     31  C         17.5480  -22.8930   -5.3900 C.2     1  UNL1        0.0540
@<TRIPOS>BOND
     1    14    16    2
     2    14    13    1
     3    15    13    1
     4    16    17    1
     5    13    12    2
     6    17    18    1
     7    17    19    2
     8    12    19    1
     9    12    11    1
    10    10     7    1
    11     2     3    1
    12     2     1    2
    13    11     8    1
    14     7     1    1
    15     7     8   am
    16     3     4    2
    17     1     6    1
    18     8     9    2
    19    21    20    2
    20     4    20    1
    21     4     5    1
    22     6     5    2
    23    20    22    2
    24    20    23    1
    25    24    23    1
    26    23    25    1
    27    25    31    2
    28    25    26    1
    29    31    29    1
    30    26    27    2
    31    29    28    2
    32    29    30    1
    33    27    28    1
