@<TRIPOS>MOLECULE
70600_out_ligand_01.pdbqt
 34 37 0 0 0
SMALL
GASTEIGER

@<TRIPOS>ATOM
      1  C         20.9910  -22.6350  -10.6500 C.2     1  UNL1        0.0340
      2  C         20.7090  -23.6030   -9.6730 C.2     1  UNL1        0.0310
      3  C         19.4140  -23.7540   -9.1690 C.2     1  UNL1        0.0270
      4  C         18.3910  -22.9340   -9.6490 C.2     1  UNL1        0.0800
      5  C         18.6590  -21.9530  -10.6050 C.2     1  UNL1        0.0270
      6  C         19.9580  -21.8110  -11.1070 C.2     1  UNL1        0.0310
      7  S         16.7500  -23.1110   -8.9980 S.O2    1  UNL1        0.2630
      8  O         16.3610  -21.8220   -8.4640 O.2     1  UNL1       -0.2000
      9  O         15.9290  -23.7860   -9.9770 O.2     1  UNL1       -0.2000
     10  N         16.9920  -24.1090   -7.6560 N.pl3   1  UNL1       -0.2800
     11  H         17.8880  -24.5930   -7.7120 H       1  UNL1        0.1790
     12  C         16.5980  -23.6170   -6.3720 C.2     1  UNL1        0.0530
     13  C         15.3860  -24.0820   -5.8520 C.2     1  UNL1        0.0310
     14  C         14.9380  -23.6290   -4.6160 C.2     1  UNL1        0.0030
     15  C         15.7000  -22.7110   -3.8980 C.2     1  UNL1        0.0120
     16  C         16.9190  -22.2270   -4.4030 C.2     1  UNL1       -0.0240
     17  C         17.6740  -21.3000   -3.6660 C.2     1  UNL1        0.0120
     18  C         17.3850  -22.6740   -5.6640 C.2     1  UNL1        0.0010
     19  C         18.8820  -20.8060   -4.1580 C.2     1  UNL1        0.0010
     20  C         19.3480  -21.2290   -5.3950 C.2     1  UNL1        0.0010
     21  C         18.6110  -22.1510   -6.1400 C.2     1  UNL1        0.0140
     22  N         22.3240  -22.5540  -11.1020 N.am    1  UNL1       -0.3270
     23  C         23.3660  -21.8330  -10.5430 C.2     1  UNL1        0.2260
     24  O         23.3030  -21.1320   -9.5360 O.2     1  UNL1       -0.2730
     25  H         22.5220  -23.0280  -11.9760 H       1  UNL1        0.1690
     26  C         24.6990  -22.0230  -11.2590 C.3     1  UNL1        0.1410
     27  C         24.6110  -22.0600  -12.7670 C.2     1  UNL1       -0.0490
     28  C         24.1750  -20.9380  -13.4810 C.2     1  UNL1        0.0100
     29  C         24.0820  -20.9830  -14.8740 C.2     1  UNL1        0.0370
     30  C         24.4300  -22.1380  -15.5760 C.2     1  UNL1        0.0680
     31  C         24.8740  -23.2550  -14.8710 C.2     1  UNL1        0.0370
     32  C         24.9670  -23.2150  -13.4740 C.2     1  UNL1        0.0100
     33  O         24.2890  -22.0470  -16.9330 O.2     1  UNL1       -0.3560
     34  C         24.5810  -23.2130  -17.6920 C.3     1  UNL1        0.2100
@<TRIPOS>BOND
     1    34    33    1
     2    33    30    1
     3    30    29    2
     4    30    31    1
     5    29    28    1
     6    31    32    2
     7    28    27    2
     8    32    27    1
     9    27    26    1
    10    25    22    1
    11    26    23    1
    12     6     1    2
    13     6     5    1
    14    22     1    1
    15    22    23   am
    16     1     2    1
    17     5     4    2
    18    23    24    2
    19     9     7    2
    20     2     3    2
    21     4     3    1
    22     4     7    1
    23     7     8    2
    24     7    10    1
    25    11    10    1
    26    10    12    1
    27    12    13    2
    28    12    18    1
    29    21    18    1
    30    21    20    2
    31    13    14    1
    32    18    16    2
    33    20    19    1
    34    14    15    2
    35    16    15    1
    36    16    17    1
    37    19    17    2
