@<TRIPOS>MOLECULE
70619_out_ligand_01.pdbqt
 32 34 0 0 0
SMALL
GASTEIGER

@<TRIPOS>ATOM
      1  C         20.9940  -22.1910  -11.0620 C.2     1  UNL1        0.0330
      2  C         20.5410  -21.2170  -11.9520 C.2     1  UNL1        0.0170
      3  C         19.1960  -20.8360  -11.9400 C.2     1  UNL1        0.0090
      4  C         18.2800  -21.3990  -11.0310 C.2     1  UNL1       -0.0390
      5  C         16.8520  -20.9370  -11.0980 C.3     1  UNL1        0.0500
      6  C         18.7590  -22.3540  -10.1140 C.2     1  UNL1        0.0860
      7  C         20.1050  -22.7580  -10.1470 C.2     1  UNL1        0.0420
      8  C         22.4180  -22.6150  -11.0130 C.2     1  UNL1        0.2520
      9  N         23.1670  -22.3570  -12.1380 N.am    1  UNL1       -0.3490
     10  H         22.7540  -21.8760  -12.9230 H       1  UNL1        0.1630
     11  O         22.8460  -23.1750  -10.0110 O.2     1  UNL1       -0.2680
     12  C         24.6060  -22.5610  -12.1710 C.3     1  UNL1        0.1140
     13  C         24.9350  -23.8560  -12.9140 C.3     1  UNL1        0.0370
     14  C         25.2640  -21.3210  -12.7530 C.2     1  UNL1       -0.0360
     15  C         26.1700  -20.5310  -12.0290 C.2     1  UNL1        0.0100
     16  C         26.7710  -19.4140  -12.6180 C.2     1  UNL1        0.0070
     17  C         26.4950  -19.0720  -13.9460 C.2     1  UNL1       -0.0620
     18  C         27.1190  -17.8530  -14.5570 C.3     1  UNL1        0.0480
     19  C         25.5980  -19.8570  -14.6740 C.2     1  UNL1        0.0070
     20  C         24.9970  -20.9730  -14.0870 C.2     1  UNL1        0.0100
     21  S         17.7460  -23.1470   -8.8680 S.O2    1  UNL1        0.2630
     22  O         18.6170  -24.0410   -8.1320 O.2     1  UNL1       -0.2000
     23  O         16.5240  -23.6430   -9.4600 O.2     1  UNL1       -0.2000
     24  N         17.3800  -21.8820   -7.8120 N.pl3   1  UNL1       -0.2800
     25  H         16.8740  -21.1280   -8.2700 H       1  UNL1        0.1790
     26  C         17.1410  -22.1330   -6.4290 C.2     1  UNL1        0.0480
     27  C         15.9370  -22.7230   -6.0350 C.2     1  UNL1        0.0300
     28  C         15.6630  -22.9540   -4.6860 C.2     1  UNL1        0.0020
     29  C         16.5980  -22.6000   -3.7200 C.2     1  UNL1        0.0010
     30  C         17.8120  -22.0300   -4.1060 C.2     1  UNL1        0.0090
     31  C         18.1100  -21.8060   -5.4620 C.2     1  UNL1       -0.0350
     32  C         19.4310  -21.1700   -5.7980 C.3     1  UNL1        0.0500
@<TRIPOS>BOND
     1    19    20    1
     2    19    17    2
     3    18    17    1
     4    20    14    2
     5    17    16    1
     6    10     9    1
     7    13    12    1
     8    14    12    1
     9    14    15    1
    10    16    15    2
    11    12     9    1
    12     9     8   am
    13     2     3    1
    14     2     1    2
    15     3     4    2
    16     5     4    1
    17     1     8    1
    18     1     7    1
    19     4     6    1
    20     8    11    2
    21     7     6    2
    22     6    21    1
    23    23    21    2
    24    21    22    2
    25    21    24    1
    26    25    24    1
    27    24    26    1
    28    26    27    2
    29    26    31    1
    30    27    28    1
    31    32    31    1
    32    31    30    2
    33    28    29    2
    34    30    29    1
