@<TRIPOS>MOLECULE
70615_out_ligand_01.pdbqt
 32 34 0 0 0
SMALL
GASTEIGER

@<TRIPOS>ATOM
      1  C         21.8410  -23.0920  -10.6340 C.2     1  UNL1        0.0240
      2  C         21.5330  -23.9230   -9.5600 C.2     1  UNL1        0.0250
      3  C         20.2740  -23.8390   -8.9620 C.2     1  UNL1        0.0200
      4  C         19.3110  -22.9420   -9.4540 C.2     1  UNL1        0.0540
      5  C         19.6300  -22.1110  -10.5360 C.2     1  UNL1        0.0510
      6 CL         18.5360  -20.9400  -11.1780 Cl      1  UNL1       -0.0830
      7  C         20.8930  -22.1970  -11.1280 C.2     1  UNL1        0.0490
      8  C         17.9960  -22.9350   -8.7650 C.2     1  UNL1        0.2570
      9  O         17.0070  -23.1740   -9.4450 O.2     1  UNL1       -0.2670
     10  N         18.0390  -22.5730   -7.4320 N.am    1  UNL1       -0.3220
     11  H         18.9560  -22.3710   -7.0610 H       1  UNL1        0.1690
     12  C         16.9600  -22.4780   -6.5160 C.2     1  UNL1        0.0410
     13  C         15.6450  -22.7610   -6.9100 C.2     1  UNL1        0.0300
     14  C         14.5910  -22.7250   -5.9960 C.2     1  UNL1        0.0020
     15  C         14.8360  -22.4150   -4.6680 C.2     1  UNL1        0.0010
     16  C         16.1340  -22.1220   -4.2570 C.2     1  UNL1        0.0100
     17  C         17.2160  -22.1230   -5.1660 C.2     1  UNL1       -0.0280
     18  C         18.6080  -21.7600   -4.6520 C.3     1  UNL1        0.0130
     19  C         18.5590  -21.4610   -3.1540 C.3     1  UNL1        0.0150
     20  C         19.2680  -20.5990   -5.4070 C.3     1  UNL1        0.0150
     21  N         23.1020  -23.2130  -11.3050 N.pl3   1  UNL1       -0.1810
     22  H         23.0370  -22.8870  -12.2730 H       1  UNL1        0.1460
     23  S         24.3550  -22.3040  -10.5720 S.O2    1  UNL1        0.2450
     24  O         23.7050  -21.4330   -9.6170 O.2     1  UNL1       -0.2060
     25  O         25.4420  -23.1820  -10.1980 O.2     1  UNL1       -0.2060
     26  C         24.9040  -21.3280  -11.9450 C.2     1  UNL1        0.0740
     27  C         24.2820  -21.4520  -13.1870 C.2     1  UNL1        0.0250
     28  C         24.7260  -20.6720  -14.2570 C.2     1  UNL1        0.0080
     29  C         25.7870  -19.7720  -14.0900 C.2     1  UNL1       -0.0620
     30  C         26.2610  -18.9200  -15.2310 C.3     1  UNL1        0.0480
     31  C         26.3930  -19.6520  -12.8320 C.2     1  UNL1        0.0080
     32  C         25.9550  -20.4270  -11.7590 C.2     1  UNL1        0.0250
@<TRIPOS>BOND
     1    30    29    1
     2    28    29    2
     3    28    27    1
     4    29    31    1
     5    27    26    2
     6    31    32    2
     7    22    21    1
     8    26    32    1
     9    26    23    1
    10    21     1    1
    11    21    23    1
    12     6     5    1
    13     7     1    2
    14     7     5    1
    15     1     2    1
    16    23    25    2
    17    23    24    2
    18     5     4    2
    19     2     3    2
    20     4     3    1
    21     4     8    1
    22     9     8    2
    23     8    10   am
    24    10    11    1
    25    10    12    1
    26    13    12    2
    27    13    14    1
    28    12    17    1
    29    14    15    2
    30    20    18    1
    31    17    18    1
    32    17    16    2
    33    15    16    1
    34    18    19    1
