@<TRIPOS>MOLECULE
70616_out_ligand_01.pdbqt
 42 45 0 0 0
SMALL
GASTEIGER

@<TRIPOS>ATOM
      1  C         20.9580  -21.5250   -6.9320 C.2     1  UNL1        0.2560
      2  O         21.6930  -20.6680   -6.4630 O.2     1  UNL1       -0.2670
      3  N         21.2570  -22.4290   -7.9340 N.am    1  UNL1       -0.3230
      4  H         20.5820  -23.1600   -8.1150 H       1  UNL1        0.1690
      5  C         19.5860  -21.6520   -6.3650 C.2     1  UNL1        0.0340
      6  C         18.6180  -22.3550   -7.0910 C.2     1  UNL1        0.0440
      7  C         17.3220  -22.5120   -6.5720 C.2     1  UNL1        0.1020
      8  C         16.9930  -21.9740   -5.3240 C.2     1  UNL1        0.0570
      9  C         17.9720  -21.2830   -4.5980 C.2     1  UNL1        0.0260
     10 CL         15.4480  -22.1300   -4.5710 Cl      1  UNL1       -0.0830
     11  C         19.2640  -21.1250   -5.1090 C.2     1  UNL1        0.0190
     12  S         16.1320  -23.3930   -7.5460 S.O2    1  UNL1        0.2640
     13  O         15.8080  -24.6110   -6.8350 O.2     1  UNL1       -0.2000
     14  O         15.0790  -22.4760   -7.9280 O.2     1  UNL1       -0.2000
     15  N         17.0000  -23.8350   -8.9260 N.pl3   1  UNL1       -0.2810
     16  H         16.6130  -24.6790   -9.3450 H       1  UNL1        0.1790
     17  C         17.4390  -22.8050   -9.8030 C.2     1  UNL1        0.0430
     18  C         16.5660  -21.7840  -10.1690 C.2     1  UNL1        0.0300
     19  C         16.9910  -20.7960  -11.0570 C.2     1  UNL1        0.0030
     20  C         18.2820  -20.8380  -11.5850 C.2     1  UNL1        0.0070
     21  C         19.1570  -21.8750  -11.2390 C.2     1  UNL1       -0.0600
     22  C         20.5510  -21.9140  -11.7900 C.3     1  UNL1        0.0480
     23  C         18.7270  -22.8570  -10.3350 C.2     1  UNL1        0.0370
     24  C         22.4410  -22.4970   -8.6980 C.2     1  UNL1        0.0350
     25  C         23.0780  -23.7460   -8.7770 C.2     1  UNL1        0.0310
     26  C         24.2440  -23.9070   -9.5300 C.2     1  UNL1        0.0270
     27  C         24.7840  -22.8110  -10.2040 C.2     1  UNL1        0.0750
     28  C         24.1570  -21.5640  -10.1410 C.2     1  UNL1        0.0270
     29  C         22.9900  -21.4110   -9.3850 C.2     1  UNL1        0.0310
     30  S         26.2320  -23.0120  -11.2140 S.O2    1  UNL1        0.2480
     31  O         27.1210  -23.8930  -10.4810 O.2     1  UNL1       -0.2050
     32  O         26.6990  -21.7090  -11.6390 O.2     1  UNL1       -0.2050
     33  N         25.6940  -23.8860  -12.5170 N.pl3   1  UNL1       -0.1480
     34  H         26.2540  -24.7090  -12.7100 H       1  UNL1        0.1490
     35  C         25.3600  -23.1760  -13.6610 C.cat   1  UNL1        0.2160
     36  N         24.3400  -22.3330  -13.4790 N.2     1  UNL1       -0.2230
     37  C         24.0490  -21.5290  -14.5220 C.2     1  UNL1        0.0360
     38  C         22.8830  -20.5990  -14.3720 C.3     1  UNL1        0.0700
     39  C         24.7880  -21.5380  -15.6900 C.2     1  UNL1        0.0530
     40  C         25.8570  -22.4130  -15.7430 C.2     1  UNL1        0.0360
     41  C         26.7190  -22.4840  -16.9670 C.3     1  UNL1        0.0700
     42  N         26.1670  -23.2330  -14.7210 N.2     1  UNL1       -0.2230
@<TRIPOS>BOND
     1    41    40    1
     2    40    39    1
     3    40    42    2
     4    39    37    2
     5    42    35    1
     6    37    38    1
     7    37    36    1
     8    35    36    2
     9    35    33    1
    10    34    33    1
    11    33    30    1
    12    22    21    1
    13    32    30    2
    14    20    21    2
    15    20    19    1
    16    21    23    1
    17    30    31    2
    18    30    27    1
    19    19    18    2
    20    23    17    2
    21    27    28    2
    22    27    26    1
    23    18    17    1
    24    28    29    1
    25    17    15    1
    26    26    25    2
    27    29    24    2
    28    16    15    1
    29    15    12    1
    30    25    24    1
    31    24     3    1
    32     4     3    1
    33     3     1   am
    34    14    12    2
    35    12    13    2
    36    12     7    1
    37     6     7    1
    38     6     5    2
    39     1     2    2
    40     1     5    1
    41     7     8    2
    42     5    11    1
    43     8     9    1
    44     8    10    1
    45    11     9    2
