@<TRIPOS>MOLECULE
70629_out_ligand_01.pdbqt
 34 38 0 0 0
SMALL
GASTEIGER

@<TRIPOS>ATOM
      1  C         22.8050  -22.8430  -10.0610 C.2     1  UNL1        0.0320
      2  C         22.2920  -23.8030   -9.1820 C.2     1  UNL1        0.0170
      3  C         20.9090  -23.9630   -9.0510 C.2     1  UNL1        0.0100
      4  C         20.0220  -23.1800   -9.8070 C.2     1  UNL1       -0.0300
      5  C         20.5440  -22.2280  -10.6930 C.2     1  UNL1        0.0100
      6  C         21.9260  -22.0650  -10.8230 C.2     1  UNL1        0.0170
      7  C         24.2700  -22.6320  -10.2390 C.2     1  UNL1        0.2510
      8  N         24.6770  -21.3390  -10.4920 N.am    1  UNL1       -0.3530
      9  H         23.9830  -20.6530  -10.7530 H       1  UNL1        0.1630
     10  O         25.0380  -23.5860  -10.1910 O.2     1  UNL1       -0.2680
     11  C         26.0520  -21.0320  -10.8170 C.3     1  UNL1        0.1610
     12  C         26.1440  -20.3250  -12.1440 C.2     1  UNL1       -0.0400
     13  C         25.2870  -20.6780  -13.1940 C.2     1  UNL1        0.0110
     14  C         25.3490  -20.0120  -14.4210 C.2     1  UNL1        0.0300
     15  C         26.2780  -18.9810  -14.6280 C.2     1  UNL1        0.0400
     16  C         27.1210  -18.6140  -13.5720 C.2     1  UNL1        0.0300
     17  C         27.0540  -19.2800  -12.3430 C.2     1  UNL1        0.0110
     18  N         26.3210  -18.3080  -15.8850 N.pl3   1  UNL1       -0.3090
     19  C         26.4370  -16.9390  -16.0450 C.2     1  UNL1        0.1180
     20  C         26.5270  -16.7080  -17.3940 C.2     1  UNL1        0.1360
     21  N         26.4250  -17.8740  -18.0860 N.2     1  UNL1       -0.2460
     22  C         26.2620  -18.8240  -17.1810 C.2     1  UNL1        0.1060
     23  C         25.9440  -20.2300  -17.5460 C.3     1  UNL1        0.0910
     24  C         18.5240  -23.3520   -9.6560 C.3     1  UNL1        0.3110
     25  N         18.0430  -23.1350   -8.2820 N.3     1  UNL1        0.0970
     26  C         18.0270  -24.4050   -7.5400 C.3     1  UNL1        0.2770
     27  C         17.3460  -24.2300   -6.1760 C.3     1  UNL1        0.0690
     28  C         17.8830  -23.0490   -5.4120 C.2     1  UNL1       -0.0490
     29  C         17.6330  -22.9230   -4.0390 C.2     1  UNL1        0.0070
     30  C         18.5840  -22.0370   -6.0910 C.2     1  UNL1       -0.0240
     31  C         18.1000  -21.8130   -3.3370 C.2     1  UNL1        0.0010
     32  C         18.8130  -20.8170   -4.0020 C.2     1  UNL1        0.0010
     33  C         19.0570  -20.9290   -5.3700 C.2     1  UNL1        0.0090
     34  C         18.8970  -22.1590   -7.5700 C.3     1  UNL1        0.3110
@<TRIPOS>BOND
     1    21    20    1
     2    21    22    2
     3    23    22    1
     4    20    19    2
     5    22    18    1
     6    19    18    1
     7    18    15    1
     8    15    14    2
     9    15    16    1
    10    14    13    1
    11    16    17    2
    12    13    12    2
    13    17    12    1
    14    12    11    1
    15     6     5    1
    16     6     1    2
    17    11     8    1
    18     9     8    1
    19     5     4    2
    20     8     7   am
    21     7    10    2
    22     7     1    1
    23     1     2    1
    24     4    24    1
    25     4     3    1
    26    24    25    1
    27     2     3    2
    28    25    34    1
    29    25    26    1
    30    34    30    1
    31    26    27    1
    32    27    28    1
    33    30    28    2
    34    30    33    1
    35    28    29    1
    36    33    32    2
    37    29    31    2
    38    32    31    1
