@<TRIPOS>MOLECULE
70628_out_ligand_01.pdbqt
 37 40 0 0 0
SMALL
GASTEIGER

@<TRIPOS>ATOM
      1  C         17.5960  -23.5190   -8.6820 C.2     1  UNL1        0.0860
      2  C         18.9870  -23.7170   -8.6930 C.2     1  UNL1        0.0420
      3  C         19.7820  -23.1240   -9.6770 C.2     1  UNL1        0.0330
      4  C         19.1840  -22.3210  -10.6490 C.2     1  UNL1        0.0170
      5  C         17.7970  -22.1330  -10.6490 C.2     1  UNL1        0.0090
      6  C         16.9800  -22.7260   -9.6680 C.2     1  UNL1       -0.0390
      7  C         15.4950  -22.5160   -9.7660 C.3     1  UNL1        0.0500
      8  C         21.2510  -23.3670   -9.6390 C.2     1  UNL1        0.2510
      9  O         21.6880  -24.4060   -9.1530 O.2     1  UNL1       -0.2680
     10  N         22.0460  -22.3950  -10.2120 N.am    1  UNL1       -0.3530
     11  H         21.6110  -21.6980  -10.8010 H       1  UNL1        0.1630
     12  C         23.4650  -22.6050  -10.3980 C.3     1  UNL1        0.1610
     13  C         23.8600  -22.3520  -11.8320 C.2     1  UNL1       -0.0400
     14  C         22.9510  -21.7720  -12.7210 C.2     1  UNL1        0.0110
     15  C         23.3170  -21.5010  -14.0430 C.2     1  UNL1        0.0300
     16  C         24.6050  -21.8120  -14.5040 C.2     1  UNL1        0.0400
     17  C         25.5230  -22.3760  -13.6100 C.2     1  UNL1        0.0300
     18  C         25.1510  -22.6470  -12.2870 C.2     1  UNL1        0.0110
     19  N         24.9650  -21.5120  -15.8530 N.pl3   1  UNL1       -0.3090
     20  C         25.5420  -20.3270  -16.2730 C.2     1  UNL1        0.1180
     21  C         25.8100  -20.4740  -17.6090 C.2     1  UNL1        0.1360
     22  N         25.3770  -21.6850  -18.0540 N.2     1  UNL1       -0.2460
     23  C         24.8360  -22.2860  -17.0070 C.2     1  UNL1        0.1060
     24  C         24.0930  -23.5690  -17.1180 C.3     1  UNL1        0.0910
     25  S         16.6690  -24.3460   -7.3920 S.O2    1  UNL1        0.2630
     26  O         17.5920  -25.1620   -6.6300 O.2     1  UNL1       -0.2000
     27  O         15.4960  -24.9460   -7.9910 O.2     1  UNL1       -0.2000
     28  N         16.1210  -23.0760   -6.4300 N.pl3   1  UNL1       -0.2800
     29  H         15.4320  -22.4960   -6.9040 H       1  UNL1        0.1790
     30  C         16.9710  -22.4710   -5.4560 C.2     1  UNL1        0.0490
     31  C         16.7140  -22.6460   -4.0860 C.2     1  UNL1       -0.0350
     32  C         17.5400  -22.0010   -3.1530 C.2     1  UNL1        0.0090
     33  C         15.5640  -23.4660   -3.5800 C.3     1  UNL1        0.0500
     34  C         18.6120  -21.2080   -3.5710 C.2     1  UNL1        0.0070
     35  C         18.8800  -21.0460   -4.9300 C.2     1  UNL1       -0.0600
     36  C         20.0180  -20.1890   -5.3960 C.3     1  UNL1        0.0480
     37  C         18.0630  -21.6950   -5.8640 C.2     1  UNL1        0.0370
@<TRIPOS>BOND
     1    22    21    1
     2    22    23    2
     3    21    20    2
     4    24    23    1
     5    23    19    1
     6    20    19    1
     7    19    16    1
     8    16    15    2
     9    16    17    1
    10    15    14    1
    11    17    18    2
    12    14    13    2
    13    18    13    1
    14    13    12    1
    15    11    10    1
    16     4     5    2
    17     4     3    1
    18     5     6    1
    19    12    10    1
    20    10     8   am
    21     7     6    1
    22     3     8    1
    23     3     2    2
    24     6     1    2
    25     8     9    2
    26     2     1    1
    27     1    25    1
    28    27    25    2
    29    25    26    2
    30    25    28    1
    31    29    28    1
    32    28    30    1
    33    37    30    2
    34    37    35    1
    35    30    31    1
    36    36    35    1
    37    35    34    2
    38    31    33    1
    39    31    32    2
    40    34    32    1
