@<TRIPOS>MOLECULE
70626_out_ligand_01.pdbqt
 41 44 0 0 0
SMALL
GASTEIGER

@<TRIPOS>ATOM
      1  C         21.1400  -21.7670   -7.4410 C.2     1  UNL1        0.2560
      2  O         22.0360  -21.0130   -7.0840 O.2     1  UNL1       -0.2670
      3  N         21.1110  -22.5560   -8.5760 N.am    1  UNL1       -0.3230
      4  H         20.2410  -23.0280   -8.7840 H       1  UNL1        0.1690
      5  C         19.9150  -21.8460   -6.6000 C.2     1  UNL1        0.0330
      6  C         19.0080  -22.8830   -6.8330 C.2     1  UNL1        0.0420
      7  C         17.8340  -22.9820   -6.0680 C.2     1  UNL1        0.0860
      8  C         17.5560  -22.0390   -5.0570 C.2     1  UNL1       -0.0390
      9  C         18.4810  -21.0010   -4.8430 C.2     1  UNL1        0.0090
     10  C         16.3380  -22.0930   -4.1790 C.3     1  UNL1        0.0500
     11  C         19.6450  -20.8980   -5.6100 C.2     1  UNL1        0.0170
     12  S         16.7430  -24.3600   -6.4180 S.O2    1  UNL1        0.2630
     13  O         15.7730  -24.4480   -5.3460 O.2     1  UNL1       -0.2000
     14  O         17.5580  -25.5060   -6.7600 O.2     1  UNL1       -0.2000
     15  N         15.9000  -23.8520   -7.7870 N.pl3   1  UNL1       -0.2810
     16  H         14.9460  -23.5680   -7.5760 H       1  UNL1        0.1790
     17  C         16.5830  -23.1920   -8.8460 C.2     1  UNL1        0.0420
     18  C         17.6330  -23.8000   -9.5310 C.2     1  UNL1        0.0300
     19  C         18.3000  -23.1080  -10.5440 C.2     1  UNL1        0.0090
     20  C         17.9210  -21.8030  -10.8830 C.2     1  UNL1       -0.0620
     21  C         18.6210  -21.0740  -11.9910 C.3     1  UNL1        0.0480
     22  C         16.8440  -21.2130  -10.2120 C.2     1  UNL1        0.0090
     23  C         16.1790  -21.9040   -9.1970 C.2     1  UNL1        0.0300
     24  C         22.1290  -22.7050   -9.5410 C.2     1  UNL1        0.0350
     25  C         23.4100  -23.1870   -9.2570 C.2     1  UNL1        0.0310
     26  C         24.3660  -23.3080  -10.2710 C.2     1  UNL1        0.0270
     27  C         24.0340  -22.9560  -11.5810 C.2     1  UNL1        0.0750
     28  C         22.7640  -22.4640  -11.8790 C.2     1  UNL1        0.0270
     29  C         21.8150  -22.3460  -10.8610 C.2     1  UNL1        0.0310
     30  S         25.2670  -23.0740  -12.8540 S.O2    1  UNL1        0.2480
     31  O         25.1790  -24.4200  -13.3870 O.2     1  UNL1       -0.2050
     32  O         26.5300  -22.5810  -12.3420 O.2     1  UNL1       -0.2050
     33  N         24.7010  -22.0720  -14.0500 N.pl3   1  UNL1       -0.1480
     34  H         23.7330  -21.8010  -13.9280 H       1  UNL1        0.1490
     35  C         25.0170  -22.4020  -15.3610 C.cat   1  UNL1        0.2150
     36  N         26.1900  -22.0190  -15.8660 N.2     1  UNL1       -0.2300
     37  C         26.3530  -22.2510  -17.1790 C.2     1  UNL1        0.1220
     38  C         25.3800  -22.8050  -17.9790 C.2     1  UNL1        0.0460
     39  C         24.1860  -23.1150  -17.3580 C.2     1  UNL1        0.0350
     40  C         23.0540  -23.7040  -18.1470 C.3     1  UNL1        0.0700
     41  N         23.9790  -22.8960  -16.0430 N.2     1  UNL1       -0.2230
@<TRIPOS>BOND
     1    40    39    1
     2    38    39    1
     3    38    37    2
     4    39    41    2
     5    37    36    1
     6    41    35    1
     7    36    35    2
     8    35    33    1
     9    33    34    1
    10    33    30    1
    11    31    30    2
    12    30    32    2
    13    30    27    1
    14    21    20    1
    15    28    27    2
    16    28    29    1
    17    27    26    1
    18    20    19    2
    19    20    22    1
    20    29    24    2
    21    19    18    1
    22    26    25    2
    23    22    23    2
    24    24    25    1
    25    24     3    1
    26    18    17    2
    27    23    17    1
    28    17    15    1
    29     4     3    1
    30     3     1   am
    31    15    16    1
    32    15    12    1
    33     1     2    2
    34     1     5    1
    35     6     5    2
    36     6     7    1
    37    14    12    2
    38     5    11    1
    39    12     7    1
    40    12    13    2
    41     7     8    2
    42    11     9    2
    43     8     9    1
    44     8    10    1
