@<TRIPOS>MOLECULE
70640_out_ligand_01.pdbqt
 39 42 0 0 0
SMALL
GASTEIGER

@<TRIPOS>ATOM
      1  C         22.5710  -23.0830   -8.8250 C.2     1  UNL1        0.0340
      2  C         22.0050  -22.0650   -8.0500 C.2     1  UNL1        0.0310
      3  C         20.7130  -22.2010   -7.5340 C.2     1  UNL1        0.0270
      4  C         19.9770  -23.3560   -7.8110 C.2     1  UNL1        0.0800
      5  C         20.5330  -24.3880   -8.5670 C.2     1  UNL1        0.0270
      6  C         21.8300  -24.2480   -9.0700 C.2     1  UNL1        0.0310
      7  N         23.8610  -23.0190   -9.3890 N.am    1  UNL1       -0.3250
      8  C         24.2100  -23.0610  -10.7250 C.2     1  UNL1        0.2530
      9  O         23.4250  -23.1340  -11.6710 O.2     1  UNL1       -0.2700
     10  H         24.6270  -22.9270   -8.7260 H       1  UNL1        0.1690
     11  C         25.7290  -23.0170  -10.9930 C.3     1  UNL1        0.2400
     12  C         26.1010  -23.5720  -12.3620 C.3     1  UNL1        0.1840
     13  N         25.8080  -22.5620  -13.4230 N.pl3   1  UNL1       -0.2700
     14  C         26.3200  -21.2360  -13.1220 C.2     1  UNL1        0.0780
     15  C         26.4890  -20.2250  -14.0760 C.2     1  UNL1        0.0330
     16  C         26.5050  -20.8950  -11.7670 C.2     1  UNL1        0.0970
     17  C         26.8990  -18.9380  -13.7010 C.2     1  UNL1        0.0020
     18  C         27.1210  -18.6310  -12.3640 C.2     1  UNL1        0.0030
     19  C         26.9190  -19.6100  -11.3960 C.2     1  UNL1        0.0390
     20  O         26.3100  -21.7440  -10.7060 O.2     1  UNL1       -0.3320
     21  S         25.7060  -23.1810  -15.0030 S.O2    1  UNL1        0.2290
     22  C         25.3360  -24.9050  -14.7240 C.3     1  UNL1        0.1860
     23  O         24.5460  -22.5790  -15.6260 O.2     1  UNL1       -0.2060
     24  O         27.0000  -23.0810  -15.6460 O.2     1  UNL1       -0.2060
     25  S         18.3230  -23.5040   -7.1760 S.O2    1  UNL1        0.2630
     26  O         18.2310  -24.7440   -6.4320 O.2     1  UNL1       -0.2000
     27  O         17.9770  -22.2350   -6.5700 O.2     1  UNL1       -0.2000
     28  N         17.3890  -23.6260   -8.5800 N.pl3   1  UNL1       -0.2810
     29  H         16.4600  -24.0000   -8.3880 H       1  UNL1        0.1790
     30  C         17.5190  -22.6320   -9.5920 C.2     1  UNL1        0.0430
     31  C         16.4170  -21.8830  -10.0050 C.2     1  UNL1        0.0300
     32  C         16.5610  -20.9220  -11.0090 C.2     1  UNL1        0.0030
     33  C         17.8050  -20.7130  -11.6050 C.2     1  UNL1        0.0160
     34  C         18.9190  -21.4700  -11.2080 C.2     1  UNL1        0.0500
     35  C         18.7660  -22.4260  -10.1880 C.2     1  UNL1        0.0460
     36  C         20.2710  -21.2450  -11.8400 C.3     1  UNL1        0.4170
     37  F         20.2490  -20.2770  -12.7960 F       1  UNL1       -0.1660
     38  F         20.7490  -22.3670  -12.4510 F       1  UNL1       -0.1660
     39  F         21.2310  -20.8670  -10.9480 F       1  UNL1       -0.1660
@<TRIPOS>BOND
     1    24    21    2
     2    23    21    2
     3    21    22    1
     4    21    13    1
     5    15    17    1
     6    15    14    2
     7    17    18    2
     8    13    14    1
     9    13    12    1
    10    14    16    1
    11    37    36    1
    12    38    36    1
    13    18    19    1
    14    12    11    1
    15    36    34    1
    16    36    39    1
    17    16    19    2
    18    16    20    1
    19     9     8    2
    20    33    34    2
    21    33    32    1
    22    34    35    1
    23    32    31    2
    24    11     8    1
    25    11    20    1
    26     8     7   am
    27    35    30    2
    28    31    30    1
    29    30    28    1
    30     7     1    1
    31     7    10    1
    32     6     1    2
    33     6     5    1
    34     1     2    1
    35    28    29    1
    36    28    25    1
    37     5     4    2
    38     2     3    2
    39     4     3    1
    40     4    25    1
    41    25    27    2
    42    25    26    2
