@<TRIPOS>MOLECULE
70650_out_ligand_01.pdbqt
 41 44 0 0 0
SMALL
GASTEIGER

@<TRIPOS>ATOM
      1  C         20.9710  -21.4490   -6.9120 C.2     1  UNL1        0.2560
      2  O         21.7280  -20.6090   -6.4420 O.2     1  UNL1       -0.2670
      3  N         21.2310  -22.3030   -7.9690 N.am    1  UNL1       -0.3230
      4  H         20.5460  -23.0200   -8.1670 H       1  UNL1        0.1690
      5  C         19.6370  -21.6240   -6.2690 C.2     1  UNL1        0.0340
      6  C         18.6340  -22.2890   -6.9830 C.2     1  UNL1        0.0440
      7  C         17.3520  -22.4710   -6.4260 C.2     1  UNL1        0.1020
      8  C         17.0860  -22.0070   -5.1380 C.2     1  UNL1        0.0570
      9  C         18.1070  -21.3640   -4.4190 C.2     1  UNL1        0.0260
     10 CL         15.5720  -22.1310   -4.3260 Cl      1  UNL1       -0.0830
     11  C         19.3750  -21.1760   -4.9730 C.2     1  UNL1        0.0190
     12  S         16.1660  -23.3470   -7.4180 S.O2    1  UNL1        0.2650
     13  O         15.9160  -24.6130   -6.7580 O.2     1  UNL1       -0.2000
     14  O         15.0550  -22.4880   -7.7550 O.2     1  UNL1       -0.2000
     15  N         17.0370  -23.7400   -8.7900 N.pl3   1  UNL1       -0.2800
     16  H         17.3140  -24.7170   -8.8940 H       1  UNL1        0.1790
     17  C         17.4740  -22.7680   -9.7240 C.2     1  UNL1        0.0490
     18  C         16.6010  -21.7380  -10.0830 C.2     1  UNL1        0.0310
     19  C         16.9920  -20.7800  -11.0140 C.2     1  UNL1        0.0030
     20  C         18.2570  -20.8500  -11.5890 C.2     1  UNL1        0.0070
     21  C         19.1500  -21.8810  -11.2450 C.2     1  UNL1       -0.0540
     22  C         20.5030  -21.9080  -11.9060 C.3     1  UNL1        0.0490
     23  C         18.7470  -22.8770  -10.3220 C.2     1  UNL1       -0.0290
     24  C         19.6950  -23.9860   -9.9400 C.3     1  UNL1        0.0510
     25  C         22.4060  -22.3560   -8.7510 C.2     1  UNL1        0.0350
     26  C         22.9100  -21.2740   -9.4810 C.2     1  UNL1        0.0310
     27  C         24.0880  -21.4040  -10.2260 C.2     1  UNL1        0.0270
     28  C         24.7560  -22.6280  -10.2540 C.2     1  UNL1        0.0800
     29  C         24.2690  -23.7170   -9.5310 C.2     1  UNL1        0.0270
     30  C         23.0940  -23.5780   -8.7850 C.2     1  UNL1        0.0310
     31  S         26.2570  -22.7810  -11.1900 S.O2    1  UNL1        0.2630
     32  O         26.7180  -21.4440  -11.4990 O.2     1  UNL1       -0.2000
     33  O         27.1190  -23.7370  -10.5300 O.2     1  UNL1       -0.2000
     34  N         25.6990  -23.4320  -12.6290 N.pl3   1  UNL1       -0.2790
     35  H         25.2920  -24.3670  -12.5650 H       1  UNL1        0.1790
     36  C         25.3710  -22.5880  -13.7180 C.2     1  UNL1        0.0600
     37  C         26.2900  -22.4480  -14.7550 C.2     1  UNL1        0.0330
     38  C         25.9580  -21.6630  -15.8560 C.2     1  UNL1        0.0210
     39  C         24.7080  -21.0650  -15.8880 C.2     1  UNL1        0.1160
     40  N         23.7860  -21.1990  -14.9080 N.2     1  UNL1       -0.2710
     41  C         24.1360  -21.9630  -13.8450 C.2     1  UNL1        0.1460
@<TRIPOS>BOND
     1    39    38    2
     2    39    40    1
     3    38    37    1
     4    40    41    2
     5    37    36    2
     6    41    36    1
     7    36    34    1
     8    34    35    1
     9    34    31    1
    10    22    21    1
    11    20    21    2
    12    20    19    1
    13    32    31    2
    14    21    23    1
    15    31    33    2
    16    31    28    1
    17    19    18    2
    18    23    24    1
    19    23    17    2
    20    28    27    2
    21    28    29    1
    22    27    26    1
    23    18    17    1
    24    17    15    1
    25    29    30    2
    26    26    25    2
    27    16    15    1
    28    15    12    1
    29    30    25    1
    30    25     3    1
    31     4     3    1
    32     3     1   am
    33    14    12    2
    34    12    13    2
    35    12     7    1
    36     6     7    1
    37     6     5    2
    38     1     2    2
    39     1     5    1
    40     7     8    2
    41     5    11    1
    42     8     9    1
    43     8    10    1
    44    11     9    2
