@<TRIPOS>MOLECULE
70671_out_ligand_01.pdbqt
 32 34 0 0 0
SMALL
GASTEIGER

@<TRIPOS>ATOM
      1  C         19.7200  -23.0290   -9.7150 C.2     1  UNL1        0.0330
      2  C         19.0690  -22.2350  -10.6650 C.2     1  UNL1        0.0190
      3  C         17.6770  -22.1030  -10.6280 C.2     1  UNL1        0.0260
      4  C         16.9180  -22.7470   -9.6430 C.2     1  UNL1        0.0570
      5 CL         15.2110  -22.5270   -9.7300 Cl      1  UNL1       -0.0830
      6  C         17.5690  -23.5220   -8.6800 C.2     1  UNL1        0.0970
      7  C         18.9670  -23.6570   -8.7140 C.2     1  UNL1        0.0430
      8  C         21.2020  -23.2090   -9.7060 C.2     1  UNL1        0.2520
      9  N         21.9130  -22.5490  -10.6860 N.am    1  UNL1       -0.3490
     10  H         21.4210  -22.1830  -11.4890 H       1  UNL1        0.1630
     11  O         21.7210  -23.9440   -8.8740 O.2     1  UNL1       -0.2680
     12  C         23.3510  -22.7310  -10.8300 C.3     1  UNL1        0.1140
     13  C         24.1410  -21.7830   -9.9240 C.3     1  UNL1        0.0370
     14  C         23.7430  -22.5610  -12.2890 C.2     1  UNL1       -0.0360
     15  C         24.7480  -23.3470  -12.8750 C.2     1  UNL1        0.0100
     16  C         25.1020  -23.1720  -14.2160 C.2     1  UNL1        0.0070
     17  C         24.4570  -22.2120  -14.9990 C.2     1  UNL1       -0.0620
     18  C         24.8350  -22.0080  -16.4380 C.3     1  UNL1        0.0480
     19  C         23.4630  -21.4200  -14.4190 C.2     1  UNL1        0.0070
     20  C         23.1070  -21.5930  -13.0780 C.2     1  UNL1        0.0100
     21  S         16.6780  -24.3220   -7.3700 S.O2    1  UNL1        0.2470
     22  O         17.6290  -25.0360   -6.5500 O.2     1  UNL1       -0.2050
     23  O         15.5390  -24.9970   -7.9590 O.2     1  UNL1       -0.2050
     24  N         16.0120  -22.9850   -6.5420 N.pl3   1  UNL1       -0.1810
     25  H         15.1670  -23.3390   -6.0870 H       1  UNL1        0.1460
     26  C         16.8810  -22.4300   -5.5430 C.2     1  UNL1        0.0230
     27  C         16.5890  -22.6580   -4.1990 C.2     1  UNL1        0.0240
     28  C         17.4060  -22.1080   -3.2110 C.2     1  UNL1        0.0020
     29  C         18.5080  -21.3290   -3.5690 C.2     1  UNL1        0.0070
     30  C         18.8080  -21.0940   -4.9200 C.2     1  UNL1       -0.0600
     31  C         19.9630  -20.2140   -5.2950 C.3     1  UNL1        0.0480
     32  C         17.9760  -21.6400   -5.9080 C.2     1  UNL1        0.0310
@<TRIPOS>BOND
     1    18    17    1
     2    17    19    2
     3    17    16    1
     4    19    20    1
     5    16    15    2
     6    20    14    2
     7    15    14    1
     8    14    12    1
     9    10     9    1
    10    12     9    1
    11    12    13    1
    12     9     8   am
    13     2     3    1
    14     2     1    2
    15     3     4    2
    16     5     4    1
    17     1     8    1
    18     1     7    1
    19     8    11    2
    20     4     6    1
    21     7     6    2
    22     6    21    1
    23    23    21    2
    24    21    22    2
    25    21    24    1
    26    24    25    1
    27    24    26    1
    28    32    26    2
    29    32    30    1
    30    26    27    1
    31    31    30    1
    32    30    29    2
    33    27    28    2
    34    29    28    1
