@<TRIPOS>MOLECULE
70698_out_ligand_01.pdbqt
 41 44 0 0 0
SMALL
GASTEIGER

@<TRIPOS>ATOM
      1  C         20.9160  -21.5650   -6.9620 C.2     1  UNL1        0.2560
      2  O         21.6380  -20.6950   -6.4970 O.2     1  UNL1       -0.2670
      3  N         21.2060  -22.4320   -8.0010 N.am    1  UNL1       -0.3230
      4  H         20.4530  -23.0210   -8.3310 H       1  UNL1        0.1690
      5  C         19.5520  -21.7200   -6.3900 C.2     1  UNL1        0.0330
      6  C         18.5770  -22.3750   -7.1480 C.2     1  UNL1        0.0420
      7  C         17.2730  -22.5170   -6.6470 C.2     1  UNL1        0.0860
      8  C         16.9300  -21.9980   -5.3820 C.2     1  UNL1       -0.0390
      9  C         17.9260  -21.3410   -4.6380 C.2     1  UNL1        0.0090
     10  C         15.5600  -22.1270   -4.7750 C.3     1  UNL1        0.0500
     11  C         19.2230  -21.1950   -5.1360 C.2     1  UNL1        0.0170
     12  S         16.0950  -23.3890   -7.6680 S.O2    1  UNL1        0.2630
     13  O         15.1340  -22.4220   -8.1560 O.2     1  UNL1       -0.2000
     14  O         15.6440  -24.5700   -6.9650 O.2     1  UNL1       -0.2000
     15  N         17.0250  -23.8540   -9.0020 N.pl3   1  UNL1       -0.2810
     16  H         17.7210  -24.5450   -8.7290 H       1  UNL1        0.1790
     17  C         17.4370  -22.8370   -9.9100 C.2     1  UNL1        0.0430
     18  C         16.5600  -21.8090  -10.2480 C.2     1  UNL1        0.0300
     19  C         16.9780  -20.7940  -11.1070 C.2     1  UNL1        0.0030
     20  C         18.2760  -20.8020  -11.6200 C.2     1  UNL1        0.0070
     21  C         19.1710  -21.8180  -11.2670 C.2     1  UNL1       -0.0600
     22  C         20.5600  -21.8370  -11.8340 C.3     1  UNL1        0.0480
     23  C         18.7380  -22.8430  -10.4120 C.2     1  UNL1        0.0370
     24  C         22.4140  -22.5290   -8.7220 C.2     1  UNL1        0.0350
     25  C         23.0090  -21.4570   -9.3930 C.2     1  UNL1        0.0310
     26  C         24.2030  -21.6350  -10.1000 C.2     1  UNL1        0.0270
     27  C         24.8000  -22.8950  -10.1430 C.2     1  UNL1        0.0750
     28  C         24.2320  -23.9700   -9.4570 C.2     1  UNL1        0.0270
     29  C         23.0410  -23.7830   -8.7510 C.2     1  UNL1        0.0310
     30  S         26.3070  -23.1380  -11.0510 S.O2    1  UNL1        0.2480
     31  O         26.8480  -21.8540  -11.4440 O.2     1  UNL1       -0.2050
     32  O         27.1110  -24.0550  -10.2640 O.2     1  UNL1       -0.2050
     33  N         25.8340  -23.9880  -12.3980 N.pl3   1  UNL1       -0.1480
     34  H         26.4330  -24.7770  -12.6130 H       1  UNL1        0.1490
     35  C         25.4740  -23.2550  -13.5210 C.cat   1  UNL1        0.2150
     36  N         25.9880  -23.7360  -14.6560 N.2     1  UNL1       -0.2300
     37  C         25.5310  -23.1530  -15.7800 C.2     1  UNL1        0.1220
     38  C         24.5730  -22.1640  -15.7940 C.2     1  UNL1        0.0460
     39  C         24.0710  -21.7880  -14.5620 C.2     1  UNL1        0.0350
     40  C         23.0100  -20.7330  -14.4600 C.3     1  UNL1        0.0700
     41  N         24.5020  -22.3460  -13.4130 N.2     1  UNL1       -0.2230
@<TRIPOS>BOND
     1    38    37    2
     2    38    39    1
     3    37    36    1
     4    36    35    2
     5    39    40    1
     6    39    41    2
     7    35    41    1
     8    35    33    1
     9    34    33    1
    10    33    30    1
    11    22    21    1
    12    20    21    2
    13    20    19    1
    14    31    30    2
    15    21    23    1
    16    19    18    2
    17    30    32    2
    18    30    27    1
    19    23    17    2
    20    18    17    1
    21    27    26    2
    22    27    28    1
    23    26    25    1
    24    17    15    1
    25    28    29    2
    26    25    24    2
    27    15    16    1
    28    15    12    1
    29    29    24    1
    30    24     3    1
    31     4     3    1
    32    13    12    2
    33     3     1   am
    34    12    14    2
    35    12     7    1
    36     6     7    1
    37     6     5    2
    38     1     2    2
    39     1     5    1
    40     7     8    2
    41     5    11    1
    42     8    10    1
    43     8     9    1
    44    11     9    2
