@<TRIPOS>MOLECULE
70699_out_ligand_01.pdbqt
 35 38 0 0 0
SMALL
GASTEIGER

@<TRIPOS>ATOM
      1  C         17.6340  -23.5540   -8.6290 C.2     1  UNL1        0.0860
      2  C         19.0210  -23.7730   -8.6140 C.2     1  UNL1        0.0420
      3  C         19.8310  -23.2010   -9.5960 C.2     1  UNL1        0.0330
      4  C         19.2630  -22.4040  -10.5930 C.2     1  UNL1        0.0170
      5  C         17.8840  -22.1860  -10.6070 C.2     1  UNL1        0.0090
      6  C         17.0470  -22.7490   -9.6260 C.2     1  UNL1       -0.0390
      7  C         15.5700  -22.4800   -9.7190 C.3     1  UNL1        0.0500
      8  C         21.2940  -23.4490   -9.5450 C.2     1  UNL1        0.2510
      9  O         21.7190  -24.5330   -9.1700 O.2     1  UNL1       -0.2680
     10  N         22.0870  -22.4100   -9.9830 N.am    1  UNL1       -0.3530
     11  H         21.6470  -21.6770  -10.5190 H       1  UNL1        0.1630
     12  C         23.5070  -22.5940  -10.1820 C.3     1  UNL1        0.1610
     13  C         23.8560  -22.5290  -11.6480 C.2     1  UNL1       -0.0400
     14  C         23.1650  -21.6770  -12.5160 C.2     1  UNL1        0.0110
     15  C         23.4660  -21.6510  -13.8820 C.2     1  UNL1        0.0300
     16  C         24.4620  -22.4870  -14.4080 C.2     1  UNL1        0.0390
     17  C         25.1500  -23.3440  -13.5400 C.2     1  UNL1        0.0300
     18  C         24.8460  -23.3630  -12.1750 C.2     1  UNL1        0.0110
     19  N         24.7660  -22.4720  -15.8010 N.pl3   1  UNL1       -0.3150
     20  C         25.2180  -21.4060  -16.5520 C.2     1  UNL1        0.1170
     21  C         25.3600  -21.8730  -17.8370 C.2     1  UNL1        0.1350
     22  N         25.0210  -23.1940  -17.9140 N.2     1  UNL1       -0.2540
     23  C         24.6730  -23.5240  -16.6890 C.2     1  UNL1        0.2140
     24  S         16.6680  -24.3670   -7.3560 S.O2    1  UNL1        0.2630
     25  O         15.5070  -24.9630   -7.9810 O.2     1  UNL1       -0.2000
     26  O         17.5660  -25.1820   -6.5650 O.2     1  UNL1       -0.2000
     27  N         16.1020  -23.0860   -6.4170 N.pl3   1  UNL1       -0.2810
     28  H         15.4550  -22.4890   -6.9260 H       1  UNL1        0.1790
     29  C         16.9680  -22.4770   -5.4660 C.2     1  UNL1        0.0430
     30  C         16.7190  -22.6760   -4.1080 C.2     1  UNL1        0.0300
     31  C         17.5250  -22.0580   -3.1540 C.2     1  UNL1        0.0030
     32  C         18.5800  -21.2390   -3.5580 C.2     1  UNL1        0.0070
     33  C         18.8360  -21.0300   -4.9170 C.2     1  UNL1       -0.0600
     34  C         19.9850  -20.1730   -5.3570 C.3     1  UNL1        0.0480
     35  C         18.0340  -21.6720   -5.8690 C.2     1  UNL1        0.0370
@<TRIPOS>BOND
     1    22    21    1
     2    22    23    2
     3    21    20    2
     4    23    19    1
     5    20    19    1
     6    19    16    1
     7    16    15    2
     8    16    17    1
     9    15    14    1
    10    17    18    2
    11    14    13    2
    12    18    13    1
    13    13    12    1
    14     5     4    2
    15     5     6    1
    16     4     3    1
    17    11    10    1
    18    12    10    1
    19    10     8   am
    20     7     6    1
    21     6     1    2
    22     3     8    1
    23     3     2    2
    24     8     9    2
    25     1     2    1
    26     1    24    1
    27    25    24    2
    28    24    26    2
    29    24    27    1
    30    28    27    1
    31    27    29    1
    32    35    29    2
    33    35    33    1
    34    29    30    1
    35    34    33    1
    36    33    32    2
    37    30    31    2
    38    32    31    1
