@<TRIPOS>MOLECULE
70691_out_ligand_01.pdbqt
 36 39 0 0 0
SMALL
GASTEIGER

@<TRIPOS>ATOM
      1  C         19.1720  -22.2750   -9.8230 C.2     1  UNL1        0.0860
      2  C         20.5730  -22.3760   -9.7380 C.2     1  UNL1        0.0420
      3  C         21.3900  -21.7420  -10.6760 C.2     1  UNL1        0.0330
      4  C         20.8080  -21.0060  -11.7080 C.2     1  UNL1        0.0170
      5  C         19.4150  -20.9340  -11.8160 C.2     1  UNL1        0.0090
      6  C         18.5740  -21.5720  -10.8850 C.2     1  UNL1       -0.0390
      7  C         17.0890  -21.4540  -11.0880 C.3     1  UNL1        0.0500
      8  C         22.8640  -21.8390  -10.5040 C.2     1  UNL1        0.2510
      9  O         23.3820  -21.4180   -9.4760 O.2     1  UNL1       -0.2680
     10  N         23.5630  -22.4210  -11.5360 N.am    1  UNL1       -0.3530
     11  H         23.0620  -22.8090  -12.3210 H       1  UNL1        0.1630
     12  C         25.0020  -22.5600  -11.5100 C.3     1  UNL1        0.1630
     13  C         25.6620  -21.3700  -12.1670 C.2     1  UNL1       -0.0130
     14  C         26.0750  -20.3460  -11.2830 C.2     1  UNL1        0.0110
     15  C         26.7950  -19.2390  -11.7260 C.2     1  UNL1        0.0010
     16  C         27.1210  -19.1260  -13.0700 C.2     1  UNL1        0.0020
     17  C         26.7120  -20.1120  -13.9690 C.2     1  UNL1        0.0300
     18  C         25.9640  -21.2310  -13.5410 C.2     1  UNL1        0.0470
     19  N         25.5390  -22.1520  -14.5450 N.pl3   1  UNL1       -0.3150
     20  C         24.5320  -22.0060  -15.4760 C.2     1  UNL1        0.1170
     21  C         24.5550  -23.1390  -16.2540 C.2     1  UNL1        0.1350
     22  N         25.5470  -23.9830  -15.8490 N.2     1  UNL1       -0.2540
     23  C         26.1210  -23.3710  -14.8360 C.2     1  UNL1        0.2140
     24  S         18.2600  -23.1000   -8.5200 S.O2    1  UNL1        0.2630
     25  O         19.2150  -23.9190   -7.8010 O.2     1  UNL1       -0.2000
     26  O         17.0500  -23.6830   -9.0530 O.2     1  UNL1       -0.2000
     27  N         17.8560  -21.8330   -7.4770 N.pl3   1  UNL1       -0.2800
     28  H         17.3250  -21.1060   -7.9510 H       1  UNL1        0.1790
     29  C         17.5870  -22.0820   -6.0970 C.2     1  UNL1        0.0490
     30  C         18.4080  -21.5190   -5.1010 C.2     1  UNL1       -0.0350
     31  C         18.1070  -21.7750   -3.7520 C.2     1  UNL1        0.0090
     32  C         19.5970  -20.6560   -5.4240 C.3     1  UNL1        0.0500
     33  C         17.0240  -22.5850   -3.3980 C.2     1  UNL1        0.0070
     34  C         16.2180  -23.1560   -4.3860 C.2     1  UNL1       -0.0600
     35  C         15.0830  -24.0680   -4.0150 C.3     1  UNL1        0.0480
     36  C         16.5210  -22.9160   -5.7330 C.2     1  UNL1        0.0370
@<TRIPOS>BOND
     1    21    22    1
     2    21    20    2
     3    22    23    2
     4    20    19    1
     5    23    19    1
     6    19    18    1
     7    17    18    1
     8    17    16    2
     9    18    13    2
    10    16    15    1
    11    11    10    1
    12    13    12    1
    13    13    14    1
    14     5     4    2
    15     5     6    1
    16    15    14    2
    17     4     3    1
    18    10    12    1
    19    10     8   am
    20     7     6    1
    21     6     1    2
    22     3     8    1
    23     3     2    2
    24     8     9    2
    25     1     2    1
    26     1    24    1
    27    26    24    2
    28    24    25    2
    29    24    27    1
    30    28    27    1
    31    27    29    1
    32    29    36    2
    33    29    30    1
    34    36    34    1
    35    32    30    1
    36    30    31    2
    37    34    35    1
    38    34    33    2
    39    31    33    1
