@<TRIPOS>MOLECULE
70697_out_ligand_01.pdbqt
 29 32 0 0 0
SMALL
GASTEIGER

@<TRIPOS>ATOM
      1  C         19.6750  -22.3330  -10.4180 C.2     1  UNL1        0.0320
      2  C         20.2470  -23.2120   -9.4920 C.2     1  UNL1        0.0170
      3  C         19.4570  -23.8130   -8.5080 C.2     1  UNL1        0.0100
      4  C         18.0840  -23.5410   -8.4370 C.2     1  UNL1       -0.0400
      5  C         17.5230  -22.6340   -9.3520 C.2     1  UNL1        0.0100
      6  C         18.3110  -22.0320  -10.3360 C.2     1  UNL1        0.0170
      7  C         20.5530  -21.7170  -11.4520 C.2     1  UNL1        0.2560
      8  N         21.8540  -22.1890  -11.4640 N.am    1  UNL1       -0.3230
      9  H         22.1180  -22.8190  -10.7180 H       1  UNL1        0.1690
     10  O         20.0810  -20.8410  -12.1670 O.2     1  UNL1       -0.2670
     11  C         22.8910  -21.8250  -12.3480 C.2     1  UNL1        0.0350
     12  C         22.6850  -21.4060  -13.6590 C.2     1  UNL1        0.0300
     13  C         23.7710  -21.0690  -14.4730 C.2     1  UNL1        0.0090
     14  C         25.0860  -21.1450  -13.9940 C.2     1  UNL1       -0.0560
     15  C         26.2240  -20.7720  -14.9030 C.3     1  UNL1        0.0490
     16  C         25.3060  -21.5700  -12.6710 C.2     1  UNL1       -0.0540
     17  C         24.2030  -21.9060  -11.8640 C.2     1  UNL1        0.0370
     18  C         26.6950  -21.6720  -12.1020 C.3     1  UNL1        0.0490
     19  C         17.2310  -24.1690   -7.3500 C.3     1  UNL1        0.1610
     20  N         16.4580  -23.1430   -6.6260 N.pl3   1  UNL1       -0.3760
     21  C         15.0690  -23.4940   -6.3000 C.3     1  UNL1        0.1230
     22  C         14.9700  -24.1200   -4.9180 C.3     1  UNL1        0.0240
     23  C         15.4160  -23.1030   -3.8810 C.3     1  UNL1        0.0420
     24  C         16.7050  -22.4310   -4.2790 C.2     1  UNL1       -0.0320
     25  C         17.4290  -21.7310   -3.2980 C.2     1  UNL1        0.0090
     26  C         17.1680  -22.4730   -5.6100 C.2     1  UNL1        0.0360
     27  C         18.6160  -21.0780   -3.6230 C.2     1  UNL1        0.0010
     28  C         19.0810  -21.1080   -4.9320 C.2     1  UNL1        0.0020
     29  C         18.3590  -21.7930   -5.9130 C.2     1  UNL1        0.0300
@<TRIPOS>BOND
     1    15    14    1
     2    13    14    2
     3    13    12    1
     4    14    16    1
     5    12    11    2
     6    16    18    1
     7    16    17    2
     8    11    17    1
     9    11     8    1
    10    10     7    2
    11     8     7   am
    12     8     9    1
    13     7     1    1
    14     1     6    2
    15     1     2    1
    16     6     5    1
    17     2     3    2
    18     5     4    2
    19     3     4    1
    20     4    19    1
    21    19    20    1
    22    20    21    1
    23    20    26    1
    24    21    22    1
    25    29    26    1
    26    29    28    2
    27    26    24    2
    28    28    27    1
    29    22    23    1
    30    24    23    1
    31    24    25    1
    32    27    25    2
