@<TRIPOS>MOLECULE
7069_out_ligand_01.pdbqt
 35 39 0 0 0
SMALL
GASTEIGER

@<TRIPOS>ATOM
      1  C         18.6620  -22.3240  -10.4100 C.2     1  UNL1        0.0320
      2  C         18.9350  -21.3950  -11.4200 C.2     1  UNL1        0.0190
      3  C         20.2330  -21.2670  -11.9270 C.2     1  UNL1        0.0300
      4  C         21.2720  -22.0590  -11.4290 C.2     1  UNL1        0.0350
      5  C         20.9970  -22.9730  -10.4040 C.2     1  UNL1        0.0300
      6  C         19.7020  -23.1000   -9.8910 C.2     1  UNL1        0.0190
      7  C         17.2930  -22.5180   -9.8580 C.2     1  UNL1        0.2510
      8  O         16.3770  -21.7780  -10.2080 O.2     1  UNL1       -0.2680
      9  N         17.1600  -23.5170   -8.9140 N.am    1  UNL1       -0.3570
     10  H         17.9880  -23.9780   -8.5500 H       1  UNL1        0.1620
     11  C         15.9040  -23.7310   -8.2180 C.3     1  UNL1        0.1270
     12  C         16.0880  -24.3660   -6.8350 C.3     1  UNL1        0.0600
     13  C         16.3960  -23.3630   -5.7590 C.2     1  UNL1       -0.0290
     14  C         15.6350  -23.0940   -4.6340 C.2     1  UNL1        0.0960
     15  N         16.2730  -22.1260   -3.9020 N.pl3   1  UNL1       -0.3650
     16  C         17.4400  -21.7450   -4.5260 C.2     1  UNL1        0.0420
     17  H         15.9390  -21.7370   -3.0280 H       1  UNL1        0.1650
     18  C         18.4020  -20.8020   -4.1450 C.2     1  UNL1        0.0300
     19  C         17.5380  -22.4960   -5.7020 C.2     1  UNL1       -0.0020
     20  C         19.5000  -20.6170   -4.9910 C.2     1  UNL1        0.0020
     21  C         19.6270  -21.3460   -6.1740 C.2     1  UNL1        0.0010
     22  C         18.6560  -22.2860   -6.5390 C.2     1  UNL1        0.0140
     23  N         22.5940  -22.0170  -11.9100 N.am    1  UNL1       -0.3220
     24  C         23.7380  -21.6260  -11.2240 C.2     1  UNL1        0.2760
     25  O         23.8020  -21.3460  -10.0310 O.2     1  UNL1       -0.2660
     26  H         22.7330  -22.3520  -12.8590 H       1  UNL1        0.1690
     27  C         24.9250  -21.5770  -12.0990 C.ar    1  UNL1        0.1440
     28  N         25.7400  -20.5180  -12.0350 N.ar    1  UNL1       -0.2050
     29  S         26.9940  -20.7280  -13.0830 S.2     1  UNL1        0.0120
     30  C         26.5020  -22.2630  -13.6750 C.ar    1  UNL1        0.0360
     31  C         27.1210  -23.0900  -14.6280 C.2     1  UNL1        0.0210
     32  C         25.3070  -22.6150  -13.0440 C.ar    1  UNL1        0.0170
     33  C         26.5040  -24.2990  -14.9600 C.2     1  UNL1        0.0010
     34  C         25.3050  -24.6700  -14.3660 C.2     1  UNL1        0.0010
     35  C         24.6980  -23.8410  -13.4170 C.2     1  UNL1        0.0150
@<TRIPOS>BOND
     1    33    31    1
     2    33    34    2
     3    31    30    2
     4    34    35    1
     5    30    29   ar
     6    30    32   ar
     7    35    32    2
     8    29    28   ar
     9    32    27   ar
    10    26    23    1
    11    27    28   ar
    12    27    24    1
    13     3     4    2
    14     3     2    1
    15    23     4    1
    16    23    24   am
    17     4     5    1
    18     2     1    2
    19    24    25    2
    20     1     6    1
    21     1     7    1
    22     5     6    2
    23     8     7    2
    24     7     9   am
    25     9    10    1
    26     9    11    1
    27    11    12    1
    28    12    13    1
    29    22    21    2
    30    22    19    1
    31    21    20    1
    32    13    19    1
    33    13    14    2
    34    19    16    2
    35    20    18    2
    36    14    15    1
    37    16    18    1
    38    16    15    1
    39    15    17    1
