@<TRIPOS>MOLECULE
70704_out_ligand_01.pdbqt
 34 38 0 0 0
SMALL
GASTEIGER

@<TRIPOS>ATOM
      1  C         22.5890  -21.9210  -10.5410 C.2     1  UNL1        0.0350
      2  C         22.3230  -21.9300  -11.9120 C.2     1  UNL1        0.0310
      3  C         23.3600  -21.7790  -12.8390 C.2     1  UNL1        0.0270
      4  C         24.6700  -21.6030  -12.3900 C.2     1  UNL1        0.0750
      5  C         24.9570  -21.6100  -11.0240 C.2     1  UNL1        0.0270
      6  C         23.9150  -21.7670  -10.1050 C.2     1  UNL1        0.0310
      7  N         21.6050  -22.0720   -9.5480 N.am    1  UNL1       -0.3210
      8  C         21.1840  -23.2320   -8.9220 C.2     1  UNL1        0.2800
      9  O         21.5990  -24.3610   -9.1580 O.2     1  UNL1       -0.2650
     10  H         21.1260  -21.2310   -9.2410 H       1  UNL1        0.1690
     11  C         20.1590  -22.9850   -7.9230 C.2     1  UNL1        0.1440
     12  C         18.9310  -23.5830   -7.7170 C.2     1  UNL1        0.0580
     13  C         18.3400  -22.9530   -6.5850 C.2     1  UNL1        0.0120
     14  C         19.2630  -21.9980   -6.1740 C.2     1  UNL1        0.0870
     15  C         17.1280  -23.0770   -5.8540 C.2     1  UNL1       -0.0130
     16  C         19.0840  -21.1490   -5.0860 C.2     1  UNL1        0.0390
     17  O         20.3610  -22.0110   -6.9790 O.2     1  UNL1       -0.3040
     18  C         17.8880  -21.2830   -4.3740 C.2     1  UNL1        0.0150
     19  C         16.9120  -22.2270   -4.7370 C.2     1  UNL1       -0.0250
     20  C         15.7150  -22.3550   -4.0160 C.2     1  UNL1        0.0120
     21  C         14.7520  -23.2960   -4.3880 C.2     1  UNL1        0.0010
     22  C         14.9670  -24.1270   -5.4860 C.2     1  UNL1        0.0010
     23  C         16.1490  -24.0240   -6.2190 C.2     1  UNL1        0.0130
     24  S         25.9970  -21.4210  -13.5620 S.O2    1  UNL1        0.2470
     25  O         26.4740  -22.7430  -13.9080 O.2     1  UNL1       -0.2050
     26  O         26.9000  -20.4200  -13.0340 O.2     1  UNL1       -0.2050
     27  N         25.2550  -20.7330  -14.9060 N.pl3   1  UNL1       -0.1650
     28  H         24.3450  -20.3450  -14.6680 H       1  UNL1        0.1470
     29  C         25.1710  -21.5320  -16.0600 C.2     1  UNL1        0.1160
     30  C         26.1140  -21.5080  -17.0730 C.2     1  UNL1        0.0450
     31  C         25.9360  -22.3790  -18.1440 C.2     1  UNL1        0.0050
     32  C         24.8370  -23.2320  -18.1530 C.2     1  UNL1        0.0190
     33  C         23.9490  -23.1710  -17.0880 C.2     1  UNL1        0.1180
     34  N         24.0890  -22.3310  -16.0380 N.2     1  UNL1       -0.2480
@<TRIPOS>BOND
     1    32    31    2
     2    32    33    1
     3    31    30    1
     4    33    34    2
     5    30    29    2
     6    29    34    1
     7    29    27    1
     8    27    28    1
     9    27    24    1
    10    25    24    2
    11    24    26    2
    12    24     4    1
    13     3     4    2
    14     3     2    1
    15     4     5    1
    16     2     1    2
    17     5     6    2
    18     1     6    1
    19     1     7    1
    20     7    10    1
    21     7     8   am
    22     9     8    2
    23     8    11    1
    24    11    12    2
    25    11    17    1
    26    12    13    1
    27    17    14    1
    28    13    14    2
    29    13    15    1
    30    23    15    2
    31    23    22    1
    32    14    16    1
    33    15    19    1
    34    22    21    2
    35    16    18    2
    36    19    18    1
    37    19    20    2
    38    21    20    1
