@<TRIPOS>MOLECULE
70715_out_ligand_01.pdbqt
 38 41 0 0 0
SMALL
GASTEIGER

@<TRIPOS>ATOM
      1  C         24.0880  -22.8330  -11.3310 C.2     1  UNL1        0.0860
      2  C         22.8020  -23.1170  -10.8340 C.2     1  UNL1        0.0420
      3  C         22.6380  -23.6790   -9.5660 C.2     1  UNL1        0.0330
      4  C         23.7610  -23.9660   -8.7900 C.2     1  UNL1        0.0170
      5  C         25.0380  -23.6670   -9.2750 C.2     1  UNL1        0.0090
      6  C         25.2260  -23.0910  -10.5450 C.2     1  UNL1       -0.0390
      7  C         26.6320  -22.7910  -10.9770 C.3     1  UNL1        0.0500
      8  C         21.2600  -23.9920   -9.1080 C.2     1  UNL1        0.2520
      9  O         20.8470  -25.1440   -9.1830 O.2     1  UNL1       -0.2680
     10  N         20.5180  -22.9270   -8.6550 N.am    1  UNL1       -0.3440
     11  H         20.8650  -21.9840   -8.7570 H       1  UNL1        0.1630
     12  C         19.1420  -23.0760   -8.2010 C.3     1  UNL1        0.1520
     13  C         18.2230  -22.4760   -9.2630 C.2     1  UNL1       -0.0310
     14  C         18.7940  -21.8080  -10.3620 C.2     1  UNL1        0.0090
     15  C         17.9910  -21.2110  -11.3350 C.2     1  UNL1        0.0010
     16  C         16.6040  -21.2640  -11.2240 C.2     1  UNL1        0.0000
     17  C         16.0210  -21.9090  -10.1360 C.2     1  UNL1        0.0010
     18  C         16.8230  -22.5070   -9.1590 C.2     1  UNL1        0.0090
     19  C         18.9260  -22.5220   -6.7870 C.2     1  UNL1       -0.0250
     20  C         19.5390  -21.3160   -6.3860 C.2     1  UNL1        0.0100
     21  C         19.3270  -20.7790   -5.1160 C.2     1  UNL1        0.0010
     22  C         18.4940  -21.4340   -4.2180 C.2     1  UNL1        0.0010
     23  C         17.8740  -22.6260   -4.5880 C.2     1  UNL1        0.0070
     24  C         18.0740  -23.1800   -5.8650 C.2     1  UNL1       -0.0530
     25  C         17.3770  -24.4730   -6.2010 C.3     1  UNL1        0.0490
     26  S         24.1420  -22.1370  -12.9810 S.O2    1  UNL1        0.2630
     27  O         24.7510  -23.1370  -13.8340 O.2     1  UNL1       -0.2000
     28  O         22.8580  -21.5660  -13.3250 O.2     1  UNL1       -0.2000
     29  N         25.2790  -20.8910  -12.8280 N.pl3   1  UNL1       -0.2810
     30  H         25.1370  -20.3650  -11.9660 H       1  UNL1        0.1790
     31  C         25.6470  -20.1570  -13.9910 C.2     1  UNL1        0.0430
     32  C         26.4350  -19.0160  -13.8890 C.2     1  UNL1        0.0300
     33  C         26.8380  -18.3440  -15.0440 C.2     1  UNL1        0.0090
     34  C         26.4580  -18.8070  -16.3140 C.2     1  UNL1       -0.0560
     35  C         26.9420  -18.0740  -17.5380 C.3     1  UNL1        0.0490
     36  C         25.6580  -19.9630  -16.4170 C.2     1  UNL1       -0.0540
     37  C         25.2550  -20.6270  -15.2460 C.2     1  UNL1        0.0370
     38  C         25.2390  -20.5140  -17.7540 C.3     1  UNL1        0.0490
@<TRIPOS>BOND
     1    38    36    1
     2    35    34    1
     3    36    34    2
     4    36    37    1
     5    34    33    1
     6    37    31    2
     7    33    32    2
     8    31    32    1
     9    31    29    1
    10    27    26    2
    11    28    26    2
    12    26    29    1
    13    26     1    1
    14    29    30    1
    15    15    16    2
    16    15    14    1
    17     1     2    2
    18     1     6    1
    19    16    17    1
    20     7     6    1
    21     2     3    1
    22     6     5    2
    23    14    13    2
    24    17    18    2
    25     3     8    1
    26     3     4    2
    27     5     4    1
    28    13    18    1
    29    13    12    1
    30     9     8    2
    31     8    10   am
    32    11    10    1
    33    10    12    1
    34    12    19    1
    35    19    20    2
    36    19    24    1
    37    20    21    1
    38    25    24    1
    39    24    23    2
    40    21    22    2
    41    23    22    1
