@<TRIPOS>MOLECULE
7071_out_ligand_01.pdbqt
 31 34 0 0 0
SMALL
GASTEIGER

@<TRIPOS>ATOM
      1  C         23.2740  -22.0950  -12.4910 C.2     1  UNL1        0.0330
      2  C         23.4420  -22.9110  -11.3740 C.2     1  UNL1        0.0190
      3  C         22.3820  -23.1030  -10.4770 C.2     1  UNL1        0.0310
      4  C         21.1230  -22.5120  -10.6790 C.2     1  UNL1        0.0430
      5  C         20.9580  -21.7080  -11.8280 C.2     1  UNL1       -0.0300
      6  C         22.0310  -21.5030  -12.7180 C.2     1  UNL1        0.0260
      7  C         19.6590  -21.0110  -12.1370 C.3     1  UNL1        0.0420
      8  C         18.5010  -21.6890  -11.4360 C.3     1  UNL1        0.0250
      9  C         18.8400  -21.8490   -9.9650 C.3     1  UNL1        0.1330
     10  N         20.0330  -22.6810   -9.7450 N.am    1  UNL1       -0.3130
     11  C         20.0890  -23.5840   -8.6670 C.2     1  UNL1        0.2610
     12  O         20.8580  -24.5380   -8.5550 O.2     1  UNL1       -0.2670
     13  C         24.3750  -21.8460  -13.4660 C.2     1  UNL1        0.2560
     14  N         23.9550  -21.5840  -14.7580 N.am    1  UNL1       -0.3220
     15  H         22.9680  -21.6980  -14.9330 H       1  UNL1        0.1690
     16  O         25.5300  -21.9310  -13.0630 O.2     1  UNL1       -0.2670
     17  C         24.7500  -21.2760  -15.8880 C.2     1  UNL1        0.0410
     18  C         25.4610  -20.0730  -15.9910 C.2     1  UNL1        0.0300
     19  C         26.2440  -19.7890  -17.1130 C.2     1  UNL1        0.0020
     20  C         26.3290  -20.7050  -18.1530 C.2     1  UNL1        0.0010
     21  C         25.6240  -21.9030  -18.0730 C.2     1  UNL1        0.0090
     22  C         24.8230  -22.2030  -16.9530 C.2     1  UNL1       -0.0320
     23  C         24.0990  -23.5330  -16.9540 C.3     1  UNL1        0.0360
     24  C         23.1660  -23.6790  -18.1470 C.3     1  UNL1        0.0100
     25  C         19.1210  -23.4390   -7.5600 C.2     1  UNL1        0.0710
     26  C         18.1070  -24.3930   -7.4140 C.2     1  UNL1        0.0200
     27  C         17.2030  -24.2860   -6.3550 C.2     1  UNL1        0.0010
     28  C         17.3210  -23.2400   -5.4370 C.2     1  UNL1        0.0030
     29  C         18.3470  -22.3040   -5.5700 C.2     1  UNL1        0.0430
     30  C         19.2480  -22.4120   -6.6270 C.2     1  UNL1        0.1320
     31  F         20.2350  -21.5110   -6.7250 F       1  UNL1       -0.2050
@<TRIPOS>BOND
     1    20    21    2
     2    20    19    1
     3    24    23    1
     4    21    22    1
     5    19    18    2
     6    23    22    1
     7    22    17    2
     8    18    17    1
     9    17    14    1
    10    15    14    1
    11    14    13   am
    12    13    16    2
    13    13     1    1
    14     6     1    2
    15     6     5    1
    16     1     2    1
    17     7     5    1
    18     7     8    1
    19     5     4    2
    20     8     9    1
    21     2     3    2
    22     4     3    1
    23     4    10    1
    24     9    10    1
    25    10    11   am
    26    11    12    2
    27    11    25    1
    28    25    26    2
    29    25    30    1
    30    26    27    1
    31    31    30    1
    32    30    29    2
    33    27    28    2
    34    29    28    1
