@<TRIPOS>MOLECULE
70712_out_ligand_01.pdbqt
 40 43 0 0 0
SMALL
GASTEIGER

@<TRIPOS>ATOM
      1  C         19.9740  -22.7470   -7.6180 C.2     1  UNL1        0.2560
      2  O         19.3870  -23.5930   -8.2810 O.2     1  UNL1       -0.2670
      3  N         21.2030  -22.1730   -7.8900 N.am    1  UNL1       -0.3230
      4  H         21.6150  -21.6000   -7.1620 H       1  UNL1        0.1690
      5  C         19.3460  -22.2840   -6.3530 C.2     1  UNL1        0.0340
      6  C         19.6120  -20.9870   -5.9020 C.2     1  UNL1        0.0170
      7  C         18.9980  -20.5130   -4.7410 C.2     1  UNL1        0.0030
      8  C         18.1210  -21.3340   -4.0340 C.2     1  UNL1        0.0300
      9  C         17.8850  -22.6400   -4.4650 C.2     1  UNL1        0.0430
     10  C         18.5030  -23.1240   -5.6170 C.2     1  UNL1        0.0470
     11  N         16.9300  -23.4510   -3.7930 N.pl3   1  UNL1       -0.2810
     12  H         17.2070  -24.3920   -3.5180 H       1  UNL1        0.1790
     13  S         15.3260  -23.4140   -4.3420 S.O2    1  UNL1        0.2630
     14  O         14.7060  -22.1770   -3.9200 O.2     1  UNL1       -0.2000
     15  O         14.7540  -24.7000   -4.0050 O.2     1  UNL1       -0.2000
     16  C         15.5230  -23.3620   -6.1120 C.2     1  UNL1        0.0790
     17  C         15.6830  -24.5550   -6.8230 C.2     1  UNL1        0.0260
     18  C         15.8590  -24.5120   -8.2070 C.2     1  UNL1        0.0080
     19  C         15.8790  -23.2840   -8.8830 C.2     1  UNL1       -0.0620
     20  C         16.0180  -23.2310  -10.3790 C.3     1  UNL1        0.0480
     21  C         15.6880  -22.0980   -8.1600 C.2     1  UNL1        0.0080
     22  C         15.5020  -22.1330   -6.7770 C.2     1  UNL1        0.0260
     23  C         22.0010  -22.3630   -9.0360 C.2     1  UNL1        0.0350
     24  C         23.3170  -22.7990   -8.8290 C.2     1  UNL1        0.0310
     25  C         24.1820  -23.0030   -9.9070 C.2     1  UNL1        0.0270
     26  C         23.7290  -22.7590  -11.2050 C.2     1  UNL1        0.0750
     27  C         22.4200  -22.3360  -11.4290 C.2     1  UNL1        0.0270
     28  C         21.5610  -22.1310  -10.3430 C.2     1  UNL1        0.0310
     29  S         24.8270  -23.0460  -12.5720 S.O2    1  UNL1        0.2480
     30  O         26.1330  -22.5760  -12.1490 O.2     1  UNL1       -0.2050
     31  O         24.6650  -24.4040  -13.0460 O.2     1  UNL1       -0.2050
     32  N         24.3110  -21.9680  -13.7270 N.pl3   1  UNL1       -0.1480
     33  H         24.3810  -21.0000  -13.4390 H       1  UNL1        0.1490
     34  C         24.7440  -22.1800  -15.0300 C.cat   1  UNL1        0.2150
     35  N         25.8590  -21.5100  -15.3300 N.2     1  UNL1       -0.2300
     36  C         26.2360  -21.5750  -16.6190 C.2     1  UNL1        0.1220
     37  C         25.5180  -22.2380  -17.5890 C.2     1  UNL1        0.0460
     38  C         24.3460  -22.8400  -17.1740 C.2     1  UNL1        0.0350
     39  C         23.4890  -23.5890  -18.1490 C.3     1  UNL1        0.0700
     40  N         23.9350  -22.8010  -15.8900 N.2     1  UNL1       -0.2230
@<TRIPOS>BOND
     1    39    38    1
     2    37    38    1
     3    37    36    2
     4    38    40    2
     5    36    35    1
     6    40    34    1
     7    35    34    2
     8    34    32    1
     9    32    33    1
    10    32    29    1
    11    31    29    2
    12    29    30    2
    13    29    26    1
    14    27    26    2
    15    27    28    1
    16    26    25    1
    17    20    19    1
    18    28    23    2
    19    25    24    2
    20    23    24    1
    21    23     3    1
    22    19    18    2
    23    19    21    1
    24     2     1    2
    25    18    17    1
    26    21    22    2
    27     3     1   am
    28     3     4    1
    29     1     5    1
    30    17    16    2
    31    22    16    1
    32     5     6    2
    33     5    10    1
    34    16    13    1
    35     6     7    1
    36    10     9    2
    37     7     8    2
    38     9     8    1
    39     9    11    1
    40    13    15    2
    41    13    14    2
    42    13    11    1
    43    11    12    1
