@<TRIPOS>MOLECULE
70725_out_ligand_01.pdbqt
 40 43 0 0 0
SMALL
GASTEIGER

@<TRIPOS>ATOM
      1  N         21.2580  -22.3720   -9.1210 N.am    1  UNL1       -0.3230
      2  C         20.7410  -23.5880   -8.7110 C.2     1  UNL1        0.2560
      3  O         21.0570  -24.7000   -9.1160 O.2     1  UNL1       -0.2670
      4  H         20.9960  -21.5580   -8.5800 H       1  UNL1        0.1690
      5  C         22.2020  -22.1460  -10.1450 C.2     1  UNL1        0.0350
      6  C         23.4940  -21.7680   -9.7510 C.2     1  UNL1        0.0310
      7  C         24.4900  -21.5270  -10.7010 C.2     1  UNL1        0.0270
      8  C         24.1930  -21.6680  -12.0580 C.2     1  UNL1        0.0750
      9  C         22.9050  -22.0210  -12.4660 C.2     1  UNL1        0.0270
     10  C         21.9160  -22.2630  -11.5080 C.2     1  UNL1        0.0310
     11  S         25.4550  -21.3490  -13.2640 S.O2    1  UNL1        0.2480
     12  O         25.0390  -20.2620  -14.1240 O.2     1  UNL1       -0.2050
     13  O         26.7030  -21.2560  -12.5290 O.2     1  UNL1       -0.2050
     14  N         25.5470  -22.7610  -14.1360 N.pl3   1  UNL1       -0.1480
     15  H         26.2640  -23.3940  -13.8050 H       1  UNL1        0.1490
     16  C         25.5200  -22.6510  -15.5200 C.cat   1  UNL1        0.2160
     17  N         24.4710  -23.2590  -16.0800 N.2     1  UNL1       -0.2230
     18  C         24.3160  -23.0600  -17.4050 C.2     1  UNL1        0.0360
     19  C         25.1560  -22.2390  -18.1340 C.2     1  UNL1        0.0530
     20  C         23.1710  -23.7570  -18.0780 C.3     1  UNL1        0.0700
     21  C         26.1760  -21.6180  -17.4370 C.2     1  UNL1        0.0360
     22  C         27.1210  -20.6900  -18.1390 C.3     1  UNL1        0.0700
     23  N         26.3540  -21.7990  -16.1150 N.2     1  UNL1       -0.2230
     24  C         19.7220  -23.4970   -7.6280 C.2     1  UNL1        0.0320
     25  C         18.9560  -24.6060   -7.2440 C.2     1  UNL1        0.0190
     26  C         18.0100  -24.4780   -6.2240 C.2     1  UNL1        0.0250
     27  C         17.8330  -23.2510   -5.5800 C.2     1  UNL1        0.0250
     28  C         18.6090  -22.1490   -5.9490 C.2     1  UNL1        0.0250
     29  C         19.5560  -22.2740   -6.9670 C.2     1  UNL1        0.0190
     30  N         16.8410  -23.1770   -4.5400 N.pl3   1  UNL1       -0.1760
     31  C         17.1480  -22.1940   -3.4730 C.3     1  UNL1        0.1360
     32  S         15.2340  -23.1050   -5.1520 S.O2    1  UNL1        0.2470
     33  O         14.5440  -24.3120   -4.7400 O.2     1  UNL1       -0.2050
     34  O         14.6800  -21.7940   -4.8760 O.2     1  UNL1       -0.2050
     35  C         15.4950  -23.1920   -6.9090 C.2     1  UNL1        0.0750
     36  C         15.8690  -22.0510   -7.6230 C.2     1  UNL1        0.0250
     37  C         16.0700  -22.1420   -9.0000 C.2     1  UNL1        0.0020
     38  C         15.9060  -23.3660   -9.6520 C.2     1  UNL1        0.0000
     39  C         15.5440  -24.5060   -8.9310 C.2     1  UNL1        0.0020
     40  C         15.3390  -24.4240   -7.5540 C.2     1  UNL1        0.0250
@<TRIPOS>BOND
     1    22    21    1
     2    19    21    1
     3    19    18    2
     4    20    18    1
     5    21    23    2
     6    18    17    1
     7    23    16    1
     8    17    16    2
     9    16    14    1
    10    14    15    1
    11    14    11    1
    12    12    11    2
    13    11    13    2
    14    11     8    1
    15     9     8    2
    16     9    10    1
    17     8     7    1
    18    10     5    2
    19     7     6    2
    20     5     6    1
    21     5     1    1
    22    38    37    2
    23    38    39    1
    24     1     2   am
    25     1     4    1
    26     3     2    2
    27    37    36    1
    28    39    40    2
    29     2    24    1
    30    24    25    2
    31    24    29    1
    32    36    35    2
    33    40    35    1
    34    25    26    1
    35    29    28    2
    36    35    32    1
    37    26    27    2
    38    28    27    1
    39    27    30    1
    40    32    34    2
    41    32    33    2
    42    32    30    1
    43    30    31    1
