@<TRIPOS>MOLECULE
70722_out_ligand_01.pdbqt
 34 37 0 0 0
SMALL
GASTEIGER

@<TRIPOS>ATOM
      1  C         17.0310  -21.0120  -11.1670 C.3     1  UNL1        0.0500
      2  C         18.4260  -21.5340  -10.9640 C.2     1  UNL1       -0.0390
      3  C         19.4490  -21.0060  -11.7730 C.2     1  UNL1        0.0090
      4  C         20.7720  -21.4390  -11.6480 C.2     1  UNL1        0.0170
      5  C         21.1020  -22.4160  -10.7040 C.2     1  UNL1        0.0330
      6  C         20.1040  -22.9320   -9.8720 C.2     1  UNL1        0.0420
      7  C         18.7710  -22.5050  -10.0040 C.2     1  UNL1        0.0860
      8  C         22.4940  -22.9140  -10.5370 C.2     1  UNL1        0.2520
      9  O         22.7740  -23.6480   -9.5970 O.2     1  UNL1       -0.2680
     10  N         23.4010  -22.5330  -11.4990 N.am    1  UNL1       -0.3480
     11  H         23.1020  -22.0160  -12.3130 H       1  UNL1        0.1630
     12  C         24.7970  -22.9460  -11.4500 C.3     1  UNL1        0.1180
     13  C         25.6370  -21.9450  -10.6420 C.3     1  UNL1        0.0300
     14  C         25.8700  -20.6620  -11.4350 C.3     1  UNL1        0.0070
     15  C         26.6530  -20.9550  -12.7110 C.3     1  UNL1        0.0390
     16  C         26.1400  -22.1520  -13.4740 C.2     1  UNL1       -0.0500
     17  C         26.5600  -22.3420  -14.7990 C.2     1  UNL1        0.0070
     18  C         25.3070  -23.1130  -12.8690 C.2     1  UNL1       -0.0290
     19  C         26.1470  -23.4600  -15.5250 C.2     1  UNL1        0.0010
     20  C         25.3140  -24.4040  -14.9330 C.2     1  UNL1        0.0010
     21  C         24.8950  -24.2320  -13.6150 C.2     1  UNL1        0.0100
     22  S         17.5920  -23.2510   -8.8870 S.O2    1  UNL1        0.2630
     23  O         16.4480  -23.6490   -9.6800 O.2     1  UNL1       -0.2000
     24  O         18.2440  -24.2120   -8.0250 O.2     1  UNL1       -0.2000
     25  N         17.0740  -21.9280   -7.9730 N.pl3   1  UNL1       -0.2800
     26  H         16.4290  -21.3390   -8.4960 H       1  UNL1        0.1790
     27  C         16.8350  -22.1110   -6.5810 C.2     1  UNL1        0.0490
     28  C         15.5610  -22.5450   -6.2050 C.2     1  UNL1        0.0310
     29  C         15.2460  -22.7120   -4.8620 C.2     1  UNL1        0.0030
     30  C         16.2030  -22.4370   -3.8880 C.2     1  UNL1        0.0070
     31  C         17.4860  -21.9920   -4.2460 C.2     1  UNL1       -0.0540
     32  C         18.4820  -21.7050   -3.1530 C.3     1  UNL1        0.0490
     33  C         17.8220  -21.8440   -5.6140 C.2     1  UNL1       -0.0290
     34  C         19.1960  -21.3590   -5.9990 C.3     1  UNL1        0.0510
@<TRIPOS>BOND
     1    19    20    2
     2    19    17    1
     3    20    21    1
     4    17    16    2
     5    21    18    2
     6    16    18    1
     7    16    15    1
     8    18    12    1
     9    15    14    1
    10    11    10    1
    11     3     4    1
    12     3     2    2
    13     4     5    2
    14    10    12    1
    15    10     8   am
    16    12    13    1
    17    14    13    1
    18     1     2    1
    19     2     7    1
    20     5     8    1
    21     5     6    1
    22     8     9    2
    23     7     6    2
    24     7    22    1
    25    23    22    2
    26    22    24    2
    27    22    25    1
    28    26    25    1
    29    25    27    1
    30    27    28    2
    31    27    33    1
    32    28    29    1
    33    34    33    1
    34    33    31    2
    35    29    30    2
    36    31    30    1
    37    31    32    1
