@<TRIPOS>MOLECULE
70724_out_ligand_01.pdbqt
 32 34 0 0 0
SMALL
GASTEIGER

@<TRIPOS>ATOM
      1  C         19.0680  -21.5460  -10.9630 C.2     1  UNL1        0.0330
      2  C         17.7930  -21.1900  -11.4060 C.2     1  UNL1        0.0170
      3  C         16.6640  -21.7100  -10.7670 C.2     1  UNL1        0.0090
      4  C         16.7780  -22.5770   -9.6640 C.2     1  UNL1       -0.0390
      5  C         15.5110  -23.0860   -9.0360 C.3     1  UNL1        0.0500
      6  C         18.0680  -22.9080   -9.2110 C.2     1  UNL1        0.0860
      7  C         19.2040  -22.4050   -9.8700 C.2     1  UNL1        0.0420
      8  C         20.3010  -20.9940  -11.5850 C.2     1  UNL1        0.2560
      9  N         21.2320  -21.9370  -11.9630 N.am    1  UNL1       -0.3220
     10  H         21.0620  -22.9050  -11.7110 H       1  UNL1        0.1690
     11  O         20.3980  -19.7760  -11.6830 O.2     1  UNL1       -0.2670
     12  C         22.4710  -21.7330  -12.6150 C.2     1  UNL1        0.0510
     13  C         22.5840  -21.1160  -13.8640 C.2     1  UNL1        0.0310
     14  C         23.8360  -20.9560  -14.4660 C.2     1  UNL1        0.0020
     15  C         24.9860  -21.4150  -13.8300 C.2     1  UNL1        0.0020
     16  C         24.8900  -22.0340  -12.5850 C.2     1  UNL1        0.0210
     17  C         23.6400  -22.1890  -11.9690 C.2     1  UNL1        0.0270
     18  S         23.5610  -22.9870  -10.3590 S.3     1  UNL1       -0.1280
     19  C         23.2450  -21.5140   -9.3330 C.3     1  UNL1        0.0750
     20  C         22.4030  -21.8940   -8.1280 C.3     1  UNL1        0.0160
     21  S         18.3990  -23.9550   -7.7950 S.O2    1  UNL1        0.2630
     22  O         19.7460  -24.4610   -7.9610 O.2     1  UNL1       -0.2000
     23  O         17.2940  -24.8600   -7.5730 O.2     1  UNL1       -0.2000
     24  N         18.4640  -22.8520   -6.5150 N.pl3   1  UNL1       -0.2810
     25  H         18.8840  -21.9670   -6.7940 H       1  UNL1        0.1790
     26  C         17.3870  -22.8070   -5.5860 C.2     1  UNL1        0.0430
     27  C         17.5100  -23.3760   -4.3200 C.2     1  UNL1        0.0300
     28  C         16.4250  -23.3630   -3.4440 C.2     1  UNL1        0.0030
     29  C         15.2180  -22.7800   -3.8330 C.2     1  UNL1        0.0070
     30  C         15.0910  -22.1910   -5.0960 C.2     1  UNL1       -0.0600
     31  C         13.7830  -21.5980   -5.5310 C.3     1  UNL1        0.0480
     32  C         16.1820  -22.2160   -5.9750 C.2     1  UNL1        0.0370
@<TRIPOS>BOND
     1    14    13    1
     2    14    15    2
     3    13    12    2
     4    15    16    1
     5    12    17    1
     6    12     9    1
     7    16    17    2
     8    17    18    1
     9     9    10    1
    10     9     8   am
    11    11     8    2
    12     8     1    1
    13     2     1    2
    14     2     3    1
    15     1     7    1
    16     3     4    2
    17    18    19    1
    18     7     6    2
    19     4     6    1
    20     4     5    1
    21    19    20    1
    22     6    21    1
    23    22    21    2
    24    21    23    2
    25    21    24    1
    26    25    24    1
    27    24    26    1
    28    32    26    2
    29    32    30    1
    30    26    27    1
    31    31    30    1
    32    30    29    2
    33    27    28    2
    34    29    28    1
