@<TRIPOS>MOLECULE
70734_out_ligand_01.pdbqt
 33 36 0 0 0
SMALL
GASTEIGER

@<TRIPOS>ATOM
      1  C         19.8120  -22.8020  -10.2690 C.2     1  UNL1        0.0340
      2  C         20.9350  -23.4480   -9.7310 C.2     1  UNL1        0.0310
      3  C         22.2000  -23.2730  -10.3000 C.2     1  UNL1        0.0270
      4  C         22.3420  -22.4510  -11.4170 C.2     1  UNL1        0.0800
      5  C         21.2360  -21.7900  -11.9540 C.2     1  UNL1        0.0270
      6  C         19.9730  -21.9700  -11.3810 C.2     1  UNL1        0.0310
      7  N         18.5790  -23.0340   -9.6350 N.am    1  UNL1       -0.3250
      8  C         17.3740  -22.3870   -9.8450 C.2     1  UNL1        0.2460
      9  O         17.1580  -21.4700  -10.6330 O.2     1  UNL1       -0.2710
     10  H         18.5400  -23.8110   -8.9810 H       1  UNL1        0.1690
     11  C         16.2550  -22.9150   -8.9370 C.3     1  UNL1        0.2780
     12  O         16.6950  -23.7370   -7.8630 O.2     1  UNL1       -0.3410
     13  C         16.3130  -23.4140   -6.5800 C.2     1  UNL1        0.0800
     14  C         15.1470  -23.8810   -5.9650 C.2     1  UNL1        0.0370
     15  C         14.8530  -23.5210   -4.6510 C.2     1  UNL1        0.0040
     16  C         15.7210  -22.6970   -3.9390 C.2     1  UNL1        0.0120
     17  C         16.8980  -22.2180   -4.5290 C.2     1  UNL1       -0.0230
     18  C         17.7720  -21.3900   -3.8050 C.2     1  UNL1        0.0120
     19  C         17.2080  -22.5750   -5.8640 C.2     1  UNL1        0.0070
     20  C         18.9470  -20.9100   -4.3810 C.2     1  UNL1        0.0010
     21  C         19.2630  -21.2510   -5.6900 C.2     1  UNL1        0.0010
     22  C         18.4050  -22.0720   -6.4230 C.2     1  UNL1        0.0150
     23  S         23.9450  -22.1920  -12.1360 S.O2    1  UNL1        0.2760
     24  O         24.6630  -21.3190  -11.2270 O.2     1  UNL1       -0.2000
     25  O         24.5140  -23.4690  -12.5130 O.2     1  UNL1       -0.2000
     26  N         23.6330  -21.2820  -13.4880 N.pl3   1  UNL1       -0.1090
     27  H         23.4210  -20.3110  -13.2890 H       1  UNL1        0.1980
     28  C         24.4670  -21.4510  -14.5840 C.cat   1  UNL1        0.7350
     29  N         25.6100  -20.7660  -14.4880 N.2     1  UNL1       -0.0740
     30  C         26.3880  -20.7820  -15.5860 C.2     1  UNL1        0.1380
     31  C         26.0360  -21.4170  -16.7560 C.2     1  UNL1        0.0400
     32  C         24.8100  -22.0410  -16.7460 C.2     1  UNL1        0.1380
     33  N         23.9950  -22.0550  -15.6760 N.2     1  UNL1       -0.0740
@<TRIPOS>BOND
     1    31    32    1
     2    31    30    2
     3    32    33    2
     4    33    28    1
     5    30    29    1
     6    28    29    2
     7    28    26    1
     8    26    27    1
     9    26    23    1
    10    25    23    2
    11    23     4    1
    12    23    24    2
    13     5     4    2
    14     5     6    1
    15     4     3    1
    16     6     1    2
    17     9     8    2
    18     3     2    2
    19     1     2    1
    20     1     7    1
    21     8     7   am
    22     8    11    1
    23     7    10    1
    24    11    12    1
    25    12    13    1
    26    13    14    2
    27    13    19    1
    28    22    19    1
    29    22    21    2
    30    14    15    1
    31    19    17    2
    32    21    20    1
    33    15    16    2
    34    17    16    1
    35    17    18    1
    36    20    18    2
