@<TRIPOS>MOLECULE
70742_out_ligand_01.pdbqt
 35 38 0 0 0
SMALL
GASTEIGER

@<TRIPOS>ATOM
      1  C         19.1490  -22.7890  -10.0840 C.2     1  UNL1        0.0290
      2  C         18.5690  -21.9430  -11.0370 C.2     1  UNL1        0.0250
      3  C         19.3540  -21.0700  -11.7830 C.2     1  UNL1        0.0030
      4  C         20.7280  -21.0390  -11.5780 C.2     1  UNL1        0.0170
      5  C         21.3190  -21.8670  -10.6070 C.2     1  UNL1        0.0390
      6  C         20.5330  -22.7460   -9.8280 C.2     1  UNL1       -0.0240
      7  C         21.1760  -23.6230   -8.7850 C.3     1  UNL1        0.0510
      8  C         22.8000  -21.8120  -10.4550 C.2     1  UNL1        0.2520
      9  O         23.3100  -21.2600   -9.4900 O.2     1  UNL1       -0.2680
     10  N         23.5170  -22.4080  -11.4700 N.am    1  UNL1       -0.3530
     11  H         23.0260  -22.7660  -12.2800 H       1  UNL1        0.1630
     12  C         24.9600  -22.4710  -11.4430 C.3     1  UNL1        0.1630
     13  C         25.6050  -21.2180  -12.0000 C.2     1  UNL1       -0.0130
     14  C         26.1640  -20.3320  -11.0520 C.2     1  UNL1        0.0110
     15  C         26.8810  -19.2000  -11.4390 C.2     1  UNL1        0.0010
     16  C         27.0710  -18.9290  -12.7860 C.2     1  UNL1        0.0020
     17  C         26.5320  -19.7830  -13.7470 C.2     1  UNL1        0.0300
     18  C         25.7820  -20.9150  -13.3700 C.2     1  UNL1        0.0470
     19  N         25.2510  -21.7180  -14.4170 N.pl3   1  UNL1       -0.3150
     20  C         25.8770  -22.7830  -15.0320 C.2     1  UNL1        0.1170
     21  C         24.9680  -23.2920  -15.9280 C.2     1  UNL1        0.1350
     22  N         23.8240  -22.5490  -15.9310 N.2     1  UNL1       -0.2540
     23  C         24.0440  -21.5840  -15.0650 C.2     1  UNL1        0.2140
     24  N         18.2710  -23.6610   -9.3580 N.pl3   1  UNL1       -0.1810
     25  H         18.7280  -24.1910   -8.6170 H       1  UNL1        0.1460
     26  S         16.8430  -22.9300   -8.7840 S.O2    1  UNL1        0.2450
     27  O         16.6470  -21.7020   -9.5250 O.2     1  UNL1       -0.2060
     28  O         15.8020  -23.9290   -8.6710 O.2     1  UNL1       -0.2060
     29  C         17.3540  -22.4930   -7.1380 C.2     1  UNL1        0.0740
     30  C         16.5380  -22.8390   -6.0590 C.2     1  UNL1        0.0250
     31  C         16.9310  -22.4990   -4.7630 C.2     1  UNL1        0.0080
     32  C         18.1380  -21.8210   -4.5440 C.2     1  UNL1       -0.0620
     33  C         18.5440  -21.4250   -3.1530 C.3     1  UNL1        0.0480
     34  C         18.9330  -21.4580   -5.6400 C.2     1  UNL1        0.0080
     35  C         18.5460  -21.7940   -6.9380 C.2     1  UNL1        0.0250
@<TRIPOS>BOND
     1    22    21    1
     2    22    23    2
     3    21    20    2
     4    23    19    1
     5    20    19    1
     6    19    18    1
     7    17    18    1
     8    17    16    2
     9    18    13    2
    10    16    15    1
    11    11    10    1
    12    13    12    1
    13    13    14    1
    14     3     4    2
    15     3     2    1
    16     4     5    1
    17    10    12    1
    18    10     8   am
    19    15    14    2
    20     2     1    2
    21     5     8    1
    22     5     6    2
    23     8     9    2
    24     1     6    1
    25     1    24    1
    26     6     7    1
    27    27    26    2
    28    24    26    1
    29    24    25    1
    30    26    28    2
    31    26    29    1
    32    29    35    2
    33    29    30    1
    34    35    34    1
    35    30    31    2
    36    34    32    2
    37    31    32    1
    38    32    33    1
