@<TRIPOS>MOLECULE
7074_out_ligand_01.pdbqt
 36 40 0 0 0
SMALL
GASTEIGER

@<TRIPOS>ATOM
      1  C         16.6170  -21.6940  -10.0840 C.3     1  UNL1        0.1210
      2  C         17.9830  -21.6090  -10.7250 C.2     1  UNL1       -0.0480
      3  C         18.4710  -20.3850  -11.2030 C.2     1  UNL1        0.0090
      4  C         19.7250  -20.3090  -11.8110 C.2     1  UNL1        0.0170
      5  C         20.5140  -21.4560  -11.9420 C.2     1  UNL1        0.0320
      6  C         20.0280  -22.6870  -11.4860 C.2     1  UNL1        0.0170
      7  C         18.7700  -22.7610  -10.8810 C.2     1  UNL1        0.0090
      8  C         21.8490  -21.3320  -12.5910 C.2     1  UNL1        0.2510
      9  O         21.9670  -20.7090  -13.6410 O.2     1  UNL1       -0.2680
     10  N         22.9030  -21.9150  -11.9220 N.am    1  UNL1       -0.3530
     11  H         22.7720  -22.1770  -10.9560 H       1  UNL1        0.1630
     12  C         24.2690  -21.7230  -12.3570 C.3     1  UNL1        0.1610
     13  C         24.6150  -22.6770  -13.4710 C.2     1  UNL1       -0.0410
     14  C         24.6030  -22.2370  -14.8040 C.2     1  UNL1        0.0090
     15  C         24.9430  -23.1080  -15.8400 C.2     1  UNL1        0.0010
     16  C         25.3030  -24.4230  -15.5540 C.2     1  UNL1        0.0000
     17  C         25.3260  -24.8700  -14.2340 C.2     1  UNL1        0.0010
     18  C         24.9870  -24.0000  -13.1960 C.2     1  UNL1        0.0090
     19  S         16.2140  -23.3820   -9.5510 S.3     1  UNL1       -0.0870
     20  C         16.2620  -23.2150   -7.8260 C.ar    1  UNL1        0.1700
     21  N         15.3610  -22.5690   -7.1220 N.ar    1  UNL1       -0.2220
     22  C         15.7630  -22.6930   -5.8170 C.ar    1  UNL1        0.0890
     23  C         15.1620  -22.2030   -4.6590 C.2     1  UNL1        0.0530
     24  C         16.9380  -23.4300   -5.7260 C.ar    1  UNL1        0.0830
     25  C         15.8050  -22.5100   -3.4720 C.2     1  UNL1        0.1180
     26  N         16.9440  -23.2340   -3.3750 N.2     1  UNL1       -0.2710
     27  C         17.5290  -23.7040   -4.5010 C.2     1  UNL1        0.1480
     28  N         17.2560  -23.7410   -7.0350 N.ar    1  UNL1       -0.3180
     29  C         18.3810  -24.5690   -7.4520 C.3     1  UNL1        0.1730
     30  C         19.6260  -23.7720   -7.7460 C.2     1  UNL1       -0.0010
     31  C         19.7740  -22.4640   -7.2580 C.2     1  UNL1        0.0120
     32  C         20.9320  -21.7300   -7.5310 C.2     1  UNL1        0.0010
     33  C         21.9610  -22.2970   -8.2850 C.2     1  UNL1        0.0030
     34  C         21.8330  -23.6010   -8.7590 C.2     1  UNL1        0.0430
     35  C         20.6760  -24.3250   -8.4850 C.2     1  UNL1        0.1240
     36  F         20.5890  -25.5840   -8.9360 F       1  UNL1       -0.2050
@<TRIPOS>BOND
     1    15    16    2
     2    15    14    1
     3    16    17    1
     4    14    13    2
     5    17    18    2
     6     9     8    2
     7    13    18    1
     8    13    12    1
     9     8     5    1
    10     8    10   am
    11    12    10    1
    12     5     4    2
    13     5     6    1
    14    10    11    1
    15     4     3    1
    16     6     7    2
    17     3     2    2
    18     7     2    1
    19     2     1    1
    20     1    19    1
    21    19    20    1
    22    36    35    1
    23    34    35    1
    24    34    33    2
    25    35    30    2
    26    33    32    1
    27    20    21   ar
    28    20    28   ar
    29    30    29    1
    30    30    31    1
    31    32    31    2
    32    29    28    1
    33    21    22   ar
    34    28    24   ar
    35    22    24   ar
    36    22    23    1
    37    24    27    1
    38    23    25    2
    39    27    26    2
    40    25    26    1
