@<TRIPOS>MOLECULE
70745_out_ligand_01.pdbqt
 35 38 0 0 0
SMALL
GASTEIGER

@<TRIPOS>ATOM
      1  C         20.7130  -22.4370  -10.9150 C.2     1  UNL1        0.0340
      2  C         20.5280  -23.4670   -9.9840 C.2     1  UNL1        0.0310
      3  C         19.2780  -23.6870   -9.4010 C.2     1  UNL1        0.0270
      4  C         18.2050  -22.8660   -9.7460 C.2     1  UNL1        0.0800
      5  C         18.3610  -21.8660  -10.7050 C.2     1  UNL1        0.0270
      6  C         19.6170  -21.6510  -11.2810 C.2     1  UNL1        0.0310
      7  S         16.6210  -23.1050   -8.9760 S.O2    1  UNL1        0.2630
      8  O         15.8020  -23.8850   -9.8790 O.2     1  UNL1       -0.2000
      9  O         16.1740  -21.8200   -8.4840 O.2     1  UNL1       -0.2000
     10  N         16.9860  -24.0250   -7.6090 N.pl3   1  UNL1       -0.2800
     11  H         16.8540  -25.0220   -7.7620 H       1  UNL1        0.1790
     12  C         16.6890  -23.5000   -6.3140 C.2     1  UNL1        0.0530
     13  C         15.5650  -23.9990   -5.6490 C.2     1  UNL1        0.0310
     14  C         15.2500  -23.5540   -4.3700 C.2     1  UNL1        0.0030
     15  C         16.0650  -22.6120   -3.7470 C.2     1  UNL1        0.0120
     16  C         17.2020  -22.0980   -4.3910 C.2     1  UNL1       -0.0240
     17  C         18.0070  -21.1460   -3.7440 C.2     1  UNL1        0.0120
     18  C         17.5370  -22.5430   -5.6950 C.2     1  UNL1        0.0010
     19  C         19.1460  -20.6310   -4.3610 C.2     1  UNL1        0.0010
     20  C         19.4960  -21.0620   -5.6320 C.2     1  UNL1        0.0010
     21  C         18.7050  -22.0050   -6.2920 C.2     1  UNL1        0.0140
     22  N         22.0180  -22.2530  -11.4160 N.am    1  UNL1       -0.3250
     23  C         23.0970  -21.6680  -10.7610 C.2     1  UNL1        0.2510
     24  O         23.0630  -21.1500   -9.6470 O.2     1  UNL1       -0.2700
     25  H         22.2000  -22.6680  -12.3230 H       1  UNL1        0.1690
     26  C         24.4020  -21.7400  -11.5910 C.3     1  UNL1        0.2170
     27  C         25.5290  -21.1260  -10.7680 C.3     1  UNL1        0.0500
     28  O         24.7990  -23.0690  -11.9350 O.2     1  UNL1       -0.3370
     29  C         24.9670  -23.2010  -13.2880 C.2     1  UNL1        0.0710
     30  C         25.2340  -24.4580  -13.8330 C.2     1  UNL1        0.0370
     31  C         25.3800  -24.5930  -15.2160 C.2     1  UNL1        0.0040
     32  C         25.2480  -23.4750  -16.0440 C.2     1  UNL1        0.0240
     33  C         24.9510  -22.2310  -15.4860 C.2     1  UNL1        0.0360
     34 CL         24.7730  -20.8610  -16.5150 Cl      1  UNL1       -0.0840
     35  C         24.7960  -22.0900  -14.1090 C.2     1  UNL1        0.0600
@<TRIPOS>BOND
     1    34    33    1
     2    32    33    2
     3    32    31    1
     4    33    35    1
     5    31    30    2
     6    35    29    2
     7    30    29    1
     8    29    28    1
     9    25    22    1
    10    28    26    1
    11    26    27    1
    12    26    23    1
    13    22     1    1
    14    22    23   am
    15     6     1    2
    16     6     5    1
    17     1     2    1
    18    23    24    2
    19     5     4    2
    20     2     3    2
    21     8     7    2
    22     4     3    1
    23     4     7    1
    24     7     9    2
    25     7    10    1
    26    11    10    1
    27    10    12    1
    28    12    18    2
    29    12    13    1
    30    21    18    1
    31    21    20    2
    32    18    16    1
    33    13    14    2
    34    20    19    1
    35    16    15    2
    36    16    17    1
    37    14    15    1
    38    19    17    2
