@<TRIPOS>MOLECULE
70752_out_ligand_01.pdbqt
 35 37 0 0 0
SMALL
GASTEIGER

@<TRIPOS>ATOM
      1  C         19.9380  -23.3550   -9.4560 C.2     1  UNL1        0.0330
      2  C         19.4380  -22.5220  -10.4580 C.2     1  UNL1        0.0190
      3  C         18.0700  -22.2360  -10.5010 C.2     1  UNL1        0.0260
      4  C         17.1820  -22.7830   -9.5600 C.2     1  UNL1        0.0570
      5 CL         15.5270  -22.3450   -9.7690 Cl      1  UNL1       -0.0830
      6  C         17.6800  -23.6300   -8.5690 C.2     1  UNL1        0.1020
      7  C         19.0610  -23.9030   -8.5150 C.2     1  UNL1        0.0440
      8  C         21.3750  -23.7270   -9.3830 C.2     1  UNL1        0.2510
      9  N         22.2610  -22.8610   -9.9820 N.am    1  UNL1       -0.3530
     10  H         21.9430  -21.9340  -10.2330 H       1  UNL1        0.1630
     11  O         21.7020  -24.7500   -8.7920 O.2     1  UNL1       -0.2680
     12  C         23.6900  -23.0380   -9.8470 C.3     1  UNL1        0.1610
     13  C         24.4170  -22.3860  -10.9950 C.2     1  UNL1       -0.0380
     14  C         25.2730  -21.3030  -10.7610 C.2     1  UNL1        0.0120
     15  C         25.9270  -20.6700  -11.8220 C.2     1  UNL1        0.0400
     16  C         25.7340  -21.1100  -13.1350 C.2     1  UNL1        0.1010
     17  C         24.8770  -22.2010  -13.3820 C.2     1  UNL1        0.1020
     18  C         24.2200  -22.8240  -12.3130 C.2     1  UNL1        0.0480
     19  O         26.3340  -20.5510  -14.2360 O.2     1  UNL1       -0.3530
     20  C         26.1170  -19.1670  -14.4720 C.3     1  UNL1        0.2100
     21  O         24.7340  -22.5690  -14.6980 O.2     1  UNL1       -0.3530
     22  C         25.2720  -23.8200  -15.0960 C.3     1  UNL1        0.2100
     23  S         16.6850  -24.3970   -7.3120 S.O2    1  UNL1        0.2650
     24  O         17.4830  -25.2640   -6.4780 O.2     1  UNL1       -0.2000
     25  O         15.5110  -24.9240   -7.9800 O.2     1  UNL1       -0.2000
     26  N         16.1320  -23.0890   -6.4030 N.pl3   1  UNL1       -0.2800
     27  H         15.4560  -22.5190   -6.9070 H       1  UNL1        0.1790
     28  C         16.9790  -22.4600   -5.4450 C.2     1  UNL1        0.0490
     29  C         18.0610  -21.6870   -5.8750 C.2     1  UNL1        0.0370
     30  C         18.8830  -21.0220   -4.9560 C.2     1  UNL1       -0.0600
     31  C         20.0500  -20.2110   -5.4360 C.3     1  UNL1        0.0480
     32  C         18.6300  -21.1730   -3.5910 C.2     1  UNL1        0.0070
     33  C         17.5650  -21.9640   -3.1530 C.2     1  UNL1        0.0090
     34  C         16.7300  -22.6180   -4.0700 C.2     1  UNL1       -0.0350
     35  C         15.6040  -23.4690   -3.5510 C.3     1  UNL1        0.0500
@<TRIPOS>BOND
     1    22    21    1
     2    21    17    1
     3    20    19    1
     4    19    16    1
     5    17    16    2
     6    17    18    1
     7    16    15    1
     8    18    13    2
     9    15    14    2
    10    13    14    1
    11    13    12    1
    12     3     2    1
    13     3     4    2
    14     2     1    2
    15    10     9    1
    16     9    12    1
    17     9     8   am
    18     5     4    1
    19     4     6    1
    20     1     8    1
    21     1     7    1
    22     8    11    2
    23     6     7    2
    24     6    23    1
    25    25    23    2
    26    23    24    2
    27    23    26    1
    28    27    26    1
    29    26    28    1
    30    29    28    2
    31    29    30    1
    32    28    34    1
    33    31    30    1
    34    30    32    2
    35    34    35    1
    36    34    33    2
    37    32    33    1
