@<TRIPOS>MOLECULE
70753_out_ligand_01.pdbqt
 31 33 0 0 0
SMALL
GASTEIGER

@<TRIPOS>ATOM
      1  C         18.9030  -22.9130  -10.0380 C.2     1  UNL1        0.0290
      2  C         18.2920  -22.0930  -10.9950 C.2     1  UNL1        0.0250
      3  C         19.0470  -21.2240  -11.7780 C.2     1  UNL1        0.0030
      4  C         20.4220  -21.1550  -11.5920 C.2     1  UNL1        0.0170
      5  C         21.0420  -21.9600  -10.6250 C.2     1  UNL1        0.0390
      6  C         20.3000  -22.8870   -9.8560 C.2     1  UNL1       -0.0240
      7  C         20.9870  -23.7950   -8.8740 C.3     1  UNL1        0.0510
      8  N         18.0530  -23.7880   -9.2760 N.pl3   1  UNL1       -0.1810
      9  H         17.8030  -24.6400   -9.7760 H       1  UNL1        0.1460
     10  S         16.6180  -23.0660   -8.6900 S.O2    1  UNL1        0.2450
     11  O         15.6410  -24.1240   -8.5510 O.2     1  UNL1       -0.2060
     12  O         16.3400  -21.8500   -9.4210 O.2     1  UNL1       -0.2060
     13  C         17.1490  -22.5930   -7.0620 C.2     1  UNL1        0.0740
     14  C         16.2890  -22.7420   -5.9720 C.2     1  UNL1        0.0250
     15  C         16.7260  -22.3640   -4.7000 C.2     1  UNL1        0.0080
     16  C         18.0160  -21.8470   -4.5150 C.2     1  UNL1       -0.0620
     17  C         18.4740  -21.4100   -3.1530 C.3     1  UNL1        0.0480
     18  C         18.8590  -21.6850   -5.6240 C.2     1  UNL1        0.0080
     19  C         18.4280  -22.0580   -6.8970 C.2     1  UNL1        0.0250
     20  C         22.5060  -21.7690  -10.4690 C.2     1  UNL1        0.2520
     21  O         22.9380  -21.0220   -9.6020 O.2     1  UNL1       -0.2680
     22  N         23.2870  -22.5350  -11.3060 N.am    1  UNL1       -0.3530
     23  H         22.8450  -23.2730  -11.8370 H       1  UNL1        0.1630
     24  C         24.7220  -22.5920  -11.1510 C.3     1  UNL1        0.1610
     25  C         25.3800  -21.4280  -11.8510 C.2     1  UNL1       -0.0400
     26  C         26.2910  -20.6050  -11.1720 C.2     1  UNL1        0.0120
     27  C         26.8770  -19.5190  -11.8240 C.2     1  UNL1        0.0430
     28  C         26.5460  -19.2500  -13.1470 C.2     1  UNL1        0.1160
     29  F         27.1100  -18.2050  -13.7670 F       1  UNL1       -0.2060
     30  C         25.6430  -20.0490  -13.8340 C.2     1  UNL1        0.0430
     31  C         25.0580  -21.1380  -13.1870 C.2     1  UNL1        0.0120
@<TRIPOS>BOND
     1    30    31    1
     2    30    28    2
     3    29    28    1
     4    31    25    2
     5    28    27    1
     6    25    26    1
     7    25    24    1
     8    23    22    1
     9    27    26    2
    10     3     4    2
    11     3     2    1
    12     4     5    1
    13    22    24    1
    14    22    20   am
    15     2     1    2
    16     5    20    1
    17     5     6    2
    18    20    21    2
    19     1     6    1
    20     1     8    1
    21     6     7    1
    22     9     8    1
    23    12    10    2
    24     8    10    1
    25    10    11    2
    26    10    13    1
    27    13    19    2
    28    13    14    1
    29    19    18    1
    30    14    15    2
    31    18    16    2
    32    15    16    1
    33    16    17    1
