@<TRIPOS>MOLECULE
70757_out_ligand_01.pdbqt
 37 40 0 0 0
SMALL
GASTEIGER

@<TRIPOS>ATOM
      1  C         22.8790  -22.8340   -9.2350 C.2     1  UNL1        0.0750
      2  C         22.0340  -23.9440   -9.2740 C.2     1  UNL1        0.0270
      3  C         20.8650  -23.9500   -8.5060 C.2     1  UNL1        0.0310
      4  C         20.5390  -22.8550   -7.7030 C.2     1  UNL1        0.0350
      5  C         21.4220  -21.7650   -7.6390 C.2     1  UNL1        0.0310
      6  C         22.5930  -21.7530   -8.3980 C.2     1  UNL1        0.0270
      7  N         19.3360  -22.7450   -6.9800 N.am    1  UNL1       -0.3230
      8  C         18.4000  -23.7340   -6.7700 C.2     1  UNL1        0.2560
      9  O         18.4840  -24.9290   -7.0070 O.2     1  UNL1       -0.2670
     10  H         19.0920  -21.8180   -6.6580 H       1  UNL1        0.1690
     11  C         17.1380  -23.2120   -6.2050 C.2     1  UNL1        0.0380
     12  C         17.1380  -22.8080   -4.8660 C.2     1  UNL1        0.0170
     13  C         15.9740  -22.2840   -4.3050 C.2     1  UNL1        0.0010
     14  C         14.8200  -22.1660   -5.0780 C.2     1  UNL1        0.0010
     15  C         14.8210  -22.5750   -6.4150 C.2     1  UNL1        0.0080
     16  C         15.9790  -23.1140   -6.9990 C.2     1  UNL1       -0.0420
     17  C         15.9520  -23.5530   -8.4470 C.3     1  UNL1        0.0440
     18  C         15.6900  -22.3800   -9.4000 C.3     1  UNL1        0.0430
     19  C         16.9000  -22.0490  -10.2380 C.2     1  UNL1       -0.0580
     20  C         17.9730  -22.9440  -10.3270 C.2     1  UNL1        0.0070
     21  C         19.0930  -22.6250  -11.0960 C.2     1  UNL1        0.0010
     22  C         19.1520  -21.4110  -11.7770 C.2     1  UNL1        0.0000
     23  C         18.0950  -20.5100  -11.6860 C.2     1  UNL1        0.0010
     24  C         16.9730  -20.8270  -10.9220 C.2     1  UNL1        0.0070
     25  S         24.3300  -22.8060  -10.2580 S.O2    1  UNL1        0.2480
     26  O         25.2530  -23.7670   -9.6890 O.2     1  UNL1       -0.2050
     27  O         24.7470  -21.4360  -10.4640 O.2     1  UNL1       -0.2050
     28  N         23.8200  -23.4630  -11.6940 N.pl3   1  UNL1       -0.1480
     29  H         23.5590  -24.4370  -11.6140 H       1  UNL1        0.1490
     30  C         24.6020  -23.2140  -12.8150 C.cat   1  UNL1        0.2160
     31  N         25.4510  -24.2040  -13.0980 N.2     1  UNL1       -0.2230
     32  C         26.1250  -24.0850  -14.2580 C.2     1  UNL1        0.0360
     33  C         25.9160  -23.0350  -15.1320 C.2     1  UNL1        0.0530
     34  C         27.1120  -25.1620  -14.5940 C.3     1  UNL1        0.0700
     35  C         24.9710  -22.0990  -14.7590 C.2     1  UNL1        0.0360
     36  C         24.6740  -20.9310  -15.6500 C.3     1  UNL1        0.0700
     37  N         24.2880  -22.1870  -13.6010 N.2     1  UNL1       -0.2230
@<TRIPOS>BOND
     1    36    35    1
     2    33    35    1
     3    33    32    2
     4    35    37    2
     5    34    32    1
     6    32    31    1
     7    37    30    1
     8    31    30    2
     9    30    28    1
    10    22    23    2
    11    22    21    1
    12    28    29    1
    13    28    25    1
    14    23    24    1
    15    21    20    2
    16    24    19    2
    17    27    25    2
    18    20    19    1
    19    25    26    2
    20    25     1    1
    21    19    18    1
    22    18    17    1
    23     2     1    2
    24     2     3    1
    25     1     6    1
    26     3     4    2
    27    17    16    1
    28     6     5    2
    29     4     5    1
    30     4     7    1
    31     9     8    2
    32    16    15    1
    33    16    11    2
    34     7     8   am
    35     7    10    1
    36     8    11    1
    37    15    14    2
    38    11    12    1
    39    14    13    1
    40    12    13    2
