@<TRIPOS>MOLECULE
70767_out_ligand_01.pdbqt
 34 36 0 0 0
SMALL
GASTEIGER

@<TRIPOS>ATOM
      1  C         22.3930  -22.2470  -11.7190 C.2     1  UNL1        0.0750
      2  C         21.2090  -21.6070  -12.0860 C.2     1  UNL1        0.0270
      3  C         20.0590  -21.7900  -11.3130 C.2     1  UNL1        0.0310
      4  C         20.0860  -22.6060  -10.1730 C.2     1  UNL1        0.0340
      5  C         21.2840  -23.2260   -9.8070 C.2     1  UNL1        0.0310
      6  C         22.4400  -23.0430  -10.5740 C.2     1  UNL1        0.0270
      7  N         18.8870  -22.7340   -9.4490 N.am    1  UNL1       -0.3250
      8  C         17.6240  -22.2930   -9.8050 C.2     1  UNL1        0.2510
      9  O         17.3210  -21.6720  -10.8200 O.2     1  UNL1       -0.2700
     10  H         18.9560  -23.1140   -8.5090 H       1  UNL1        0.1690
     11  C         16.5470  -22.7020   -8.7820 C.3     1  UNL1        0.2170
     12  C         15.5420  -23.6080   -9.4870 C.3     1  UNL1        0.0500
     13  O         17.0790  -23.4500   -7.6880 O.2     1  UNL1       -0.3360
     14  C         16.7060  -23.1150   -6.4100 C.2     1  UNL1        0.0760
     15  C         15.4630  -23.4120   -5.8460 C.2     1  UNL1        0.0370
     16  C         15.1770  -23.0310   -4.5350 C.2     1  UNL1        0.0030
     17  C         16.1310  -22.3610   -3.7770 C.2     1  UNL1        0.0070
     18  C         17.3860  -22.0490   -4.3210 C.2     1  UNL1       -0.0530
     19  C         18.3860  -21.3270   -3.4580 C.3     1  UNL1        0.0490
     20  C         17.6700  -22.4020   -5.6610 C.2     1  UNL1       -0.0230
     21  C         19.0140  -22.0880   -6.2710 C.3     1  UNL1        0.0520
     22  S         23.8600  -21.9880  -12.6860 S.O2    1  UNL1        0.2480
     23  O         24.7500  -21.1860  -11.8670 O.2     1  UNL1       -0.2050
     24  O         24.3160  -23.2540  -13.2190 O.2     1  UNL1       -0.2050
     25  N         23.3580  -20.9940  -13.9180 N.pl3   1  UNL1       -0.1480
     26  H         22.6950  -20.2870  -13.6240 H       1  UNL1        0.1490
     27  C         24.3380  -20.4990  -14.7700 C.cat   1  UNL1        0.2160
     28  N         24.4770  -21.2150  -15.8890 N.2     1  UNL1       -0.2230
     29  C         25.5020  -20.8580  -16.6890 C.2     1  UNL1        0.0360
     30  C         26.3850  -19.8460  -16.3560 C.2     1  UNL1        0.0530
     31  C         25.6650  -21.6070  -17.9770 C.3     1  UNL1        0.0700
     32  C         26.1750  -19.2150  -15.1440 C.2     1  UNL1        0.0360
     33  C         27.0910  -18.1180  -14.6900 C.3     1  UNL1        0.0700
     34  N         25.1590  -19.5490  -14.3270 N.2     1  UNL1       -0.2230
@<TRIPOS>BOND
     1    31    29    1
     2    29    30    2
     3    29    28    1
     4    30    32    1
     5    28    27    2
     6    32    33    1
     7    32    34    2
     8    27    34    1
     9    27    25    1
    10    25    26    1
    11    25    22    1
    12    24    22    2
    13    22    23    2
    14    22     1    1
    15     2     1    2
    16     2     3    1
    17     1     6    1
    18     3     4    2
    19     9     8    2
    20     6     5    2
    21     4     5    1
    22     4     7    1
    23     8     7   am
    24     8    11    1
    25    12    11    1
    26     7    10    1
    27    11    13    1
    28    13    14    1
    29    14    15    2
    30    14    20    1
    31    21    20    1
    32    15    16    1
    33    20    18    2
    34    16    17    2
    35    18    17    1
    36    18    19    1
