@<TRIPOS>MOLECULE
70765_out_ligand_01.pdbqt
 36 39 0 0 0
SMALL
GASTEIGER

@<TRIPOS>ATOM
      1  C         18.4300  -23.0590   -6.4400 C.2     1  UNL1        0.0860
      2  C         19.5590  -23.1750   -7.2740 C.2     1  UNL1        0.0420
      3  C         20.5400  -22.1800   -7.2710 C.2     1  UNL1        0.0330
      4  C         20.3760  -21.0600   -6.4480 C.2     1  UNL1        0.0170
      5  C         19.2550  -20.9450   -5.6200 C.2     1  UNL1        0.0090
      6  C         18.2620  -21.9380   -5.6030 C.2     1  UNL1       -0.0390
      7  C         17.1000  -21.7660   -4.6650 C.3     1  UNL1        0.0500
      8  C         21.7590  -22.2530   -8.1280 C.2     1  UNL1        0.2510
      9  O         22.6650  -21.4410   -7.9690 O.2     1  UNL1       -0.2680
     10  N         21.8140  -23.2770   -9.0450 N.am    1  UNL1       -0.3530
     11  H         21.1190  -24.0100   -9.0340 H       1  UNL1        0.1630
     12  C         22.9710  -23.4970   -9.8900 C.3     1  UNL1        0.1630
     13  C         22.8260  -22.7780  -11.2150 C.2     1  UNL1       -0.0130
     14  C         21.5730  -22.2060  -11.5170 C.2     1  UNL1        0.0110
     15  C         21.3880  -21.4040  -12.6430 C.2     1  UNL1        0.0010
     16  C         22.4560  -21.1490  -13.4970 C.2     1  UNL1        0.0020
     17  C         23.7000  -21.7230  -13.2420 C.2     1  UNL1        0.0300
     18  C         23.8800  -22.5660  -12.1290 C.2     1  UNL1        0.0480
     19  N         25.1480  -23.1810  -11.9850 N.pl3   1  UNL1       -0.3090
     20  C         26.0610  -22.8870  -10.9960 C.2     1  UNL1        0.1180
     21  C         27.1210  -23.7330  -11.1990 C.2     1  UNL1        0.1360
     22  N         26.9290  -24.4840  -12.3230 N.2     1  UNL1       -0.2460
     23  C         25.7670  -24.1030  -12.8210 C.2     1  UNL1        0.1060
     24  C         25.2560  -24.5190  -14.1540 C.3     1  UNL1        0.0910
     25  S         17.2510  -24.4020   -6.4780 S.O2    1  UNL1        0.2630
     26  O         17.9390  -25.6070   -6.8920 O.2     1  UNL1       -0.2000
     27  O         16.5120  -24.3760   -5.2330 O.2     1  UNL1       -0.2000
     28  N         16.1720  -23.9310   -7.6900 N.pl3   1  UNL1       -0.2810
     29  H         15.5380  -24.6940   -7.9200 H       1  UNL1        0.1790
     30  C         16.6810  -23.1670   -8.7750 C.2     1  UNL1        0.0420
     31  C         17.6670  -23.7040   -9.6000 C.2     1  UNL1        0.0300
     32  C         18.1440  -22.9680  -10.6870 C.2     1  UNL1        0.0090
     33  C         17.6350  -21.6910  -10.9550 C.2     1  UNL1       -0.0620
     34  C         18.1400  -20.8880  -12.1200 C.3     1  UNL1        0.0480
     35  C         16.6330  -21.1680  -10.1290 C.2     1  UNL1        0.0090
     36  C         16.1540  -21.9060   -9.0430 C.2     1  UNL1        0.0300
@<TRIPOS>BOND
     1    24    23    1
     2    16    17    2
     3    16    15    1
     4    17    18    1
     5    23    22    2
     6    23    19    1
     7    15    14    2
     8    22    21    1
     9    18    19    1
    10    18    13    2
    11    34    33    1
    12    19    20    1
    13    14    13    1
    14    13    12    1
    15    21    20    2
    16    33    32    2
    17    33    35    1
    18    32    31    1
    19    35    36    2
    20    12    10    1
    21    31    30    2
    22    10    11    1
    23    10     8   am
    24    36    30    1
    25    30    28    1
    26     8     9    2
    27     8     3    1
    28    29    28    1
    29    28    25    1
    30     2     3    1
    31     2     1    2
    32     3     4    2
    33    26    25    2
    34    25     1    1
    35    25    27    2
    36     4     5    1
    37     1     6    1
    38     5     6    2
    39     6     7    1
