@<TRIPOS>MOLECULE
70764_out_ligand_01.pdbqt
 41 46 0 0 0
SMALL
GASTEIGER

@<TRIPOS>ATOM
      1  C         20.2160  -22.6730  -10.0510 C.2     1  UNL1        0.0350
      2  C         19.0330  -22.1820  -10.6220 C.2     1  UNL1        0.0310
      3  C         17.7860  -22.5530  -10.1140 C.2     1  UNL1        0.0270
      4  C         17.7200  -23.4280   -9.0300 C.2     1  UNL1        0.0800
      5  C         18.8870  -23.9090   -8.4350 C.2     1  UNL1        0.0270
      6  C         20.1320  -23.5330   -8.9520 C.2     1  UNL1        0.0310
      7  N         21.4280  -22.2730  -10.6490 N.am    1  UNL1       -0.3230
      8  C         22.6070  -21.9260  -10.0140 C.2     1  UNL1        0.2560
      9  O         22.7900  -21.8130   -8.8090 O.2     1  UNL1       -0.2670
     10  H         21.4120  -22.1870  -11.6580 H       1  UNL1        0.1690
     11  C         23.7440  -21.6350  -10.9330 C.2     1  UNL1        0.0320
     12  C         23.5020  -21.5930  -12.3110 C.2     1  UNL1        0.0170
     13  C         24.5450  -21.3200  -13.1990 C.2     1  UNL1        0.0090
     14  C         25.8390  -21.0760  -12.7200 C.2     1  UNL1       -0.0450
     15  C         26.0710  -21.1020  -11.3360 C.2     1  UNL1        0.0090
     16  C         25.0310  -21.3740  -10.4450 C.2     1  UNL1        0.0170
     17  C         26.9760  -20.7670  -13.6740 C.3     1  UNL1        0.1340
     18  N         27.0810  -21.7960  -14.7080 N.pl3   1  UNL1       -0.2780
     19  C         26.8460  -23.2020  -14.3110 C.3     1  UNL1        0.1010
     20  C         26.4350  -23.9780  -15.5720 C.3     1  UNL1        0.0550
     21  C         25.8620  -22.8710  -16.3870 C.2     1  UNL1       -0.0360
     22  C         25.0810  -22.9600  -17.5290 C.2     1  UNL1        0.0090
     23  C         26.2660  -21.6420  -15.8510 C.2     1  UNL1        0.0170
     24  C         24.6910  -21.7740  -18.1500 C.2     1  UNL1        0.0010
     25  C         25.0950  -20.5360  -17.6330 C.2     1  UNL1        0.0020
     26  C         25.8900  -20.4670  -16.4830 C.2     1  UNL1        0.0240
     27  S         16.1420  -23.9290   -8.3930 S.O2    1  UNL1        0.2630
     28  O         16.3230  -25.1080   -7.5770 O.2     1  UNL1       -0.2000
     29  O         15.2090  -23.9270   -9.5000 O.2     1  UNL1       -0.2000
     30  N         15.7060  -22.6210   -7.4160 N.pl3   1  UNL1       -0.2800
     31  H         14.8740  -22.1500   -7.7670 H       1  UNL1        0.1790
     32  C         15.8390  -22.7600   -6.0000 C.2     1  UNL1        0.0530
     33  C         14.8410  -23.4740   -5.3300 C.2     1  UNL1        0.0310
     34  C         14.9030  -23.6340   -3.9500 C.2     1  UNL1        0.0030
     35  C         15.9640  -23.0820   -3.2360 C.2     1  UNL1        0.0120
     36  C         16.9770  -22.3610   -3.8880 C.2     1  UNL1       -0.0240
     37  C         18.0420  -21.8150   -3.1530 C.2     1  UNL1        0.0120
     38  C         16.9250  -22.1830   -5.2940 C.2     1  UNL1        0.0010
     39  C         19.0540  -21.0920   -3.7850 C.2     1  UNL1        0.0010
     40  C         19.0120  -20.9010   -5.1600 C.2     1  UNL1        0.0010
     41  C         17.9600  -21.4390   -5.9060 C.2     1  UNL1        0.0140
@<TRIPOS>BOND
     1    24    25    2
     2    24    22    1
     3    25    26    1
     4    22    21    2
     5    26    23    2
     6    21    23    1
     7    21    20    1
     8    23    18    1
     9    20    19    1
    10    18    19    1
    11    18    17    1
    12    17    14    1
    13    13    14    2
    14    13    12    1
    15    14    15    1
    16    12    11    2
    17    10     7    1
    18    15    16    2
    19    11    16    1
    20    11     8    1
    21     7     1    1
    22     7     8   am
    23     2     3    1
    24     2     1    2
    25     3     4    2
    26     1     6    1
    27     8     9    2
    28    29    27    2
    29     4     5    1
    30     4    27    1
    31     6     5    2
    32    27    28    2
    33    27    30    1
    34    31    30    1
    35    30    32    1
    36    32    33    2
    37    32    38    1
    38    41    38    1
    39    41    40    2
    40    33    34    1
    41    38    36    2
    42    40    39    1
    43    34    35    2
    44    36    35    1
    45    36    37    1
    46    39    37    2
