@<TRIPOS>MOLECULE
70766_out_ligand_01.pdbqt
 36 39 0 0 0
SMALL
GASTEIGER

@<TRIPOS>ATOM
      1  C         19.1580  -22.6060  -10.2690 C.2     1  UNL1        0.0290
      2  C         18.6500  -21.7820  -11.2820 C.2     1  UNL1        0.0250
      3  C         19.4840  -20.9340  -12.0040 C.2     1  UNL1        0.0030
      4  C         20.8400  -20.9120  -11.7260 C.2     1  UNL1        0.0170
      5  C         21.3650  -21.7400  -10.7180 C.2     1  UNL1        0.0390
      6  C         20.5300  -22.6010   -9.9650 C.2     1  UNL1       -0.0240
      7  C         21.1280  -23.4620   -8.8840 C.3     1  UNL1        0.0510
      8  C         22.8360  -21.7010  -10.4870 C.2     1  UNL1        0.2520
      9  O         23.3040  -21.1760   -9.4870 O.2     1  UNL1       -0.2680
     10  N         23.5830  -22.3150  -11.4710 N.am    1  UNL1       -0.3530
     11  H         23.1060  -22.7820  -12.2320 H       1  UNL1        0.1630
     12  C         25.0190  -22.4360  -11.3830 C.3     1  UNL1        0.1630
     13  C         25.7520  -21.2160  -11.9030 C.2     1  UNL1       -0.0130
     14  C         26.3350  -20.3560  -10.9430 C.2     1  UNL1        0.0110
     15  C         26.9860  -19.1790  -11.3170 C.2     1  UNL1        0.0010
     16  C         27.0670  -18.8270  -12.6600 C.2     1  UNL1        0.0020
     17  C         26.5010  -19.6550  -13.6330 C.2     1  UNL1        0.0300
     18  C         25.8600  -20.8540  -13.2630 C.2     1  UNL1        0.0480
     19  N         25.3790  -21.6880  -14.3040 N.pl3   1  UNL1       -0.3090
     20  C         26.0840  -22.7030  -14.9160 C.2     1  UNL1        0.1180
     21  C         25.2620  -23.1940  -15.8970 C.2     1  UNL1        0.1360
     22  N         24.0640  -22.5400  -15.8960 N.2     1  UNL1       -0.2460
     23  C         24.1460  -21.6320  -14.9410 C.2     1  UNL1        0.1060
     24  C         23.0230  -20.7400  -14.5340 C.3     1  UNL1        0.0910
     25  N         18.2220  -23.5170   -9.6640 N.pl3   1  UNL1       -0.1810
     26  H         17.9930  -24.2930  -10.2860 H       1  UNL1        0.1460
     27  S         16.7480  -22.7750   -9.2060 S.O2    1  UNL1        0.2450
     28  O         16.6260  -21.4780   -9.8330 O.2     1  UNL1       -0.2060
     29  O         15.7130  -23.7820   -9.3310 O.2     1  UNL1       -0.2060
     30  C         17.0410  -22.5050   -7.4730 C.2     1  UNL1        0.0740
     31  C         18.3100  -22.1240   -7.0300 C.2     1  UNL1        0.0250
     32  C         18.5380  -21.9560   -5.6620 C.2     1  UNL1        0.0080
     33  C         17.5080  -22.1690   -4.7370 C.2     1  UNL1       -0.0620
     34  C         17.7720  -22.0380   -3.2660 C.3     1  UNL1        0.0480
     35  C         16.2440  -22.5720   -5.1940 C.2     1  UNL1        0.0080
     36  C         16.0070  -22.7390   -6.5610 C.2     1  UNL1        0.0250
@<TRIPOS>BOND
     1    21    22    1
     2    21    20    2
     3    22    23    2
     4    23    24    1
     5    23    19    1
     6    20    19    1
     7    19    18    1
     8    17    18    1
     9    17    16    2
    10    18    13    2
    11    16    15    1
    12    11    10    1
    13     3     4    2
    14     3     2    1
    15    13    12    1
    16    13    14    1
    17     4     5    1
    18    10    12    1
    19    10     8   am
    20    15    14    2
    21     2     1    2
    22     5     8    1
    23     5     6    2
    24     8     9    2
    25    26    25    1
    26     1     6    1
    27     1    25    1
    28     6     7    1
    29    28    27    2
    30    25    27    1
    31    29    27    2
    32    27    30    1
    33    30    31    2
    34    30    36    1
    35    31    32    1
    36    36    35    2
    37    32    33    2
    38    35    33    1
    39    33    34    1
