@<TRIPOS>MOLECULE
70769_out_ligand_01.pdbqt
 34 36 0 0 0
SMALL
GASTEIGER

@<TRIPOS>ATOM
      1  C         22.5040  -23.3370   -8.8410 C.2     1  UNL1        0.0340
      2  C         22.0340  -22.2450   -8.1060 C.2     1  UNL1        0.0310
      3  C         20.7330  -22.2410   -7.5920 C.2     1  UNL1        0.0270
      4  C         19.8960  -23.3340   -7.8200 C.2     1  UNL1        0.0750
      5  C         20.3540  -24.4410   -8.5350 C.2     1  UNL1        0.0270
      6  C         21.6560  -24.4360   -9.0450 C.2     1  UNL1        0.0310
      7  S         18.2440  -23.3120   -7.1700 S.O2    1  UNL1        0.2450
      8  O         18.0570  -24.5090   -6.3760 O.2     1  UNL1       -0.2060
      9  O         17.9980  -21.9900   -6.6420 O.2     1  UNL1       -0.2060
     10  N         17.3480  -23.5550   -8.6060 N.pl3   1  UNL1       -0.1810
     11  H         16.3620  -23.5260   -8.3350 H       1  UNL1        0.1460
     12  C         17.6190  -22.5870   -9.6270 C.2     1  UNL1        0.0230
     13  C         16.5710  -21.8220  -10.1320 C.2     1  UNL1        0.0240
     14  C         16.8100  -20.9030  -11.1540 C.2     1  UNL1        0.0030
     15  C         18.0960  -20.7650  -11.6790 C.2     1  UNL1        0.0160
     16  C         19.1560  -21.5490  -11.1920 C.2     1  UNL1        0.0490
     17  C         18.9030  -22.4700  -10.1630 C.2     1  UNL1        0.0400
     18  C         20.5360  -21.4010  -11.7820 C.3     1  UNL1        0.4170
     19  F         20.5120  -20.9130  -13.0520 F       1  UNL1       -0.1660
     20  F         21.2320  -22.5720  -11.8420 F       1  UNL1       -0.1660
     21  F         21.3170  -20.5450  -11.0670 F       1  UNL1       -0.1660
     22  N         23.7920  -23.4100   -9.4090 N.am    1  UNL1       -0.3270
     23  C         24.4370  -22.4560  -10.1770 C.2     1  UNL1        0.2260
     24  O         24.0130  -21.3330  -10.4400 O.2     1  UNL1       -0.2730
     25  H         24.2730  -24.2960   -9.2990 H       1  UNL1        0.1690
     26  C         25.8210  -22.8800  -10.6580 C.3     1  UNL1        0.1420
     27  C         26.0150  -22.8420  -12.1630 C.2     1  UNL1       -0.0430
     28  C         26.6160  -21.7470  -12.8160 C.2     1  UNL1       -0.0550
     29  C         26.7210  -21.7610  -14.2140 C.2     1  UNL1        0.0080
     30  C         27.1160  -20.5380  -12.0670 C.3     1  UNL1        0.0490
     31  C         26.2600  -22.8480  -14.9590 C.2     1  UNL1        0.0070
     32  C         25.6710  -23.9420  -14.3220 C.2     1  UNL1       -0.0610
     33  C         25.2080  -25.1290  -15.1150 C.3     1  UNL1        0.0480
     34  C         25.5650  -23.9360  -12.9270 C.2     1  UNL1        0.0140
@<TRIPOS>BOND
     1    33    32    1
     2    31    32    2
     3    31    29    1
     4    32    34    1
     5    29    28    2
     6    19    18    1
     7    34    27    2
     8    28    27    1
     9    28    30    1
    10    27    26    1
    11    20    18    1
    12    18    16    1
    13    18    21    1
    14    15    16    2
    15    15    14    1
    16    16    17    1
    17    14    13    2
    18    26    23    1
    19    24    23    2
    20    23    22   am
    21    17    12    2
    22    13    12    1
    23    12    10    1
    24    22    25    1
    25    22     1    1
    26     6     1    2
    27     6     5    1
    28     1     2    1
    29    10    11    1
    30    10     7    1
    31     5     4    2
    32     2     3    2
    33     4     3    1
    34     4     7    1
    35     7     9    2
    36     7     8    2
