@<TRIPOS>MOLECULE
70772_out_ligand_01.pdbqt
 37 40 0 0 0
SMALL
GASTEIGER

@<TRIPOS>ATOM
      1  C         18.4580  -23.2160   -8.9760 C.2     1  UNL1        0.0800
      2  C         19.3610  -24.0800   -8.3520 C.2     1  UNL1        0.0270
      3  C         20.6780  -24.1450   -8.8110 C.2     1  UNL1        0.0310
      4  C         21.1070  -23.3380   -9.8750 C.2     1  UNL1        0.0340
      5  C         20.1980  -22.4590  -10.4710 C.2     1  UNL1        0.0310
      6  C         18.8740  -22.3920  -10.0220 C.2     1  UNL1        0.0270
      7  N         22.4500  -23.4710  -10.2740 N.am    1  UNL1       -0.3250
      8  C         23.0960  -22.8310  -11.3170 C.2     1  UNL1        0.2530
      9  O         22.5820  -22.0490  -12.1100 O.2     1  UNL1       -0.2700
     10  H         23.0330  -24.0690   -9.7000 H       1  UNL1        0.1690
     11  C         24.5850  -23.2180  -11.4550 C.3     1  UNL1        0.2400
     12  C         24.9090  -23.6640  -12.8770 C.3     1  UNL1        0.1840
     13  N         25.0070  -22.4850  -13.7890 N.pl3   1  UNL1       -0.2700
     14  C         25.6470  -21.3160  -13.2110 C.2     1  UNL1        0.0780
     15  C         25.9190  -20.1490  -13.9350 C.2     1  UNL1        0.0330
     16  C         25.8950  -21.2900  -11.8260 C.2     1  UNL1        0.0970
     17  C         26.5240  -19.0420  -13.3270 C.2     1  UNL1        0.0020
     18  C         26.8440  -19.0700  -11.9750 C.2     1  UNL1        0.0030
     19  C         26.5210  -20.1940  -11.2220 C.2     1  UNL1        0.0390
     20  O         25.5390  -22.2850  -10.9490 O.2     1  UNL1       -0.3320
     21  S         25.2590  -22.8960  -15.4280 S.O2    1  UNL1        0.2290
     22  C         25.1360  -24.6740  -15.3930 C.3     1  UNL1        0.1860
     23  O         26.6040  -22.5510  -15.8320 O.2     1  UNL1       -0.2060
     24  O         24.1280  -22.4160  -16.1900 O.2     1  UNL1       -0.2060
     25  S         16.7790  -23.1380   -8.3980 S.O2    1  UNL1        0.2630
     26  O         15.9290  -23.7720   -9.3810 O.2     1  UNL1       -0.2000
     27  O         16.5320  -21.7790   -7.9610 O.2     1  UNL1       -0.2000
     28  N         16.8130  -24.0740   -6.9950 N.pl3   1  UNL1       -0.2800
     29  H         16.4630  -25.0180   -7.1470 H       1  UNL1        0.1790
     30  C         16.6450  -23.4700   -5.7140 C.2     1  UNL1        0.0500
     31  C         17.7120  -22.7880   -5.1230 C.2     1  UNL1        0.0540
     32  C         17.5490  -22.1860   -3.8780 C.2     1  UNL1        0.0360
     33  C         16.3320  -22.2630   -3.2100 C.2     1  UNL1        0.0240
     34 CL         18.8650  -21.3480   -3.1540 Cl      1  UNL1       -0.0840
     35  C         15.2690  -22.9560   -3.7900 C.2     1  UNL1        0.0110
     36  C         15.4120  -23.5690   -5.0450 C.2     1  UNL1       -0.0350
     37  C         14.2430  -24.3180   -5.6230 C.3     1  UNL1        0.0500
@<TRIPOS>BOND
     1    24    21    2
     2    23    21    2
     3    21    22    1
     4    21    13    1
     5    15    17    1
     6    15    14    2
     7    13    14    1
     8    13    12    1
     9    17    18    2
    10    14    16    1
    11    12    11    1
    12     9     8    2
    13    18    19    1
    14    16    19    2
    15    16    20    1
    16    11     8    1
    17    11    20    1
    18     8     7   am
    19     5     6    1
    20     5     4    2
    21     7     4    1
    22     7    10    1
    23     6     1    2
    24     4     3    1
    25    26    25    2
    26     1    25    1
    27     1     2    1
    28     3     2    2
    29    25    27    2
    30    25    28    1
    31    29    28    1
    32    28    30    1
    33    30    31    2
    34    30    36    1
    35    37    36    1
    36    31    32    1
    37    36    35    2
    38    32    33    2
    39    32    34    1
    40    35    33    1
