@<TRIPOS>MOLECULE
70774_out_ligand_01.pdbqt
 32 34 0 0 0
SMALL
GASTEIGER

@<TRIPOS>ATOM
      1  C         21.0390  -23.0170  -10.1070 C.2     1  UNL1        0.0340
      2  C         20.8410  -23.9070   -9.0490 C.2     1  UNL1        0.0310
      3  C         19.5740  -24.0620   -8.4770 C.2     1  UNL1        0.0270
      4  C         18.4960  -23.3310   -8.9790 C.2     1  UNL1        0.0800
      5  C         18.6830  -22.4160  -10.0160 C.2     1  UNL1        0.0270
      6  C         19.9530  -22.2650  -10.5780 C.2     1  UNL1        0.0310
      7  N         22.2780  -22.8150  -10.7400 N.am    1  UNL1       -0.3250
      8  C         23.2680  -21.9060  -10.4050 C.2     1  UNL1        0.2510
      9  O         23.2330  -21.0880   -9.4910 O.2     1  UNL1       -0.2700
     10  H         22.5270  -23.4650  -11.4790 H       1  UNL1        0.1690
     11  C         24.4840  -21.9800  -11.3480 C.3     1  UNL1        0.2170
     12  C         25.5660  -21.0470  -10.8100 C.3     1  UNL1        0.0500
     13  O         24.1860  -21.5410  -12.6770 O.2     1  UNL1       -0.3370
     14  C         24.4940  -22.3700  -13.7210 C.2     1  UNL1        0.0710
     15  C         25.0330  -23.6020  -13.3360 C.2     1  UNL1        0.0370
     16  C         25.4110  -24.5470  -14.2920 C.2     1  UNL1        0.0040
     17  C         25.2550  -24.2600  -15.6460 C.2     1  UNL1        0.0240
     18  C         24.7230  -23.0310  -16.0310 C.2     1  UNL1        0.0360
     19 CL         24.5390  -22.6760  -17.7060 Cl      1  UNL1       -0.0840
     20  C         24.3410  -22.0830  -15.0780 C.2     1  UNL1        0.0600
     21  S         16.8820  -23.5430   -8.2620 S.O2    1  UNL1        0.2630
     22  O         15.9170  -23.5040   -9.3410 O.2     1  UNL1       -0.2000
     23  O         16.9420  -24.6680   -7.3530 O.2     1  UNL1       -0.2000
     24  N         16.6630  -22.1190   -7.3740 N.pl3   1  UNL1       -0.2790
     25  H         17.2340  -21.3630   -7.7590 H       1  UNL1        0.1790
     26  C         16.6300  -22.2000   -5.9430 C.2     1  UNL1        0.0640
     27  C         15.4440  -22.5470   -5.2920 C.2     1  UNL1        0.0320
     28  C         15.4170  -22.6630   -3.9010 C.2     1  UNL1        0.0020
     29  C         16.5720  -22.4310   -3.1540 C.2     1  UNL1        0.0020
     30  C         17.7590  -22.0750   -3.7960 C.2     1  UNL1        0.0260
     31  C         17.7870  -21.9570   -5.1870 C.2     1  UNL1        0.0610
     32 CL         19.2700  -21.5060   -5.9490 Cl      1  UNL1       -0.0820
@<TRIPOS>BOND
     1    19    18    1
     2    18    17    2
     3    18    20    1
     4    17    16    1
     5    20    14    2
     6    16    15    2
     7    14    15    1
     8    14    13    1
     9    13    11    1
    10    10     7    1
    11    11    12    1
    12    11     8    1
    13     7     8   am
    14     7     1    1
    15     6     1    2
    16     6     5    1
    17     8     9    2
    18     1     2    1
    19     5     4    2
    20    22    21    2
    21     2     3    2
    22     4     3    1
    23     4    21    1
    24    21    24    1
    25    21    23    2
    26    25    24    1
    27    24    26    1
    28    32    31    1
    29    26    27    2
    30    26    31    1
    31    27    28    1
    32    31    30    2
    33    28    29    2
    34    30    29    1
