@<TRIPOS>MOLECULE
70770_out_ligand_01.pdbqt
 33 35 0 0 0
SMALL
GASTEIGER

@<TRIPOS>ATOM
      1  C         16.6230  -20.9490  -11.0290 C.3     1  UNL1        0.0500
      2  C         18.0090  -21.5100  -10.8920 C.2     1  UNL1       -0.0390
      3  C         19.0090  -20.9980  -11.7390 C.2     1  UNL1        0.0090
      4  C         20.3320  -21.4390  -11.6540 C.2     1  UNL1        0.0170
      5  C         20.6910  -22.3910  -10.7000 C.2     1  UNL1        0.0330
      6  C         19.7130  -22.9250   -9.8570 C.2     1  UNL1        0.0420
      7  C         18.3740  -22.5000   -9.9610 C.2     1  UNL1        0.0860
      8  C         22.1090  -22.8340  -10.6320 C.2     1  UNL1        0.2520
      9  O         22.4370  -23.7080   -9.8390 O.2     1  UNL1       -0.2680
     10  N         22.9770  -22.2210  -11.5110 N.am    1  UNL1       -0.3490
     11  H         22.5810  -21.7300  -12.3010 H       1  UNL1        0.1630
     12  C         24.3440  -22.6940  -11.6740 C.3     1  UNL1        0.1140
     13  C         25.3160  -21.7080  -11.0230 C.3     1  UNL1        0.0370
     14  C         24.6160  -22.9520  -13.1480 C.2     1  UNL1       -0.0360
     15  C         24.2650  -21.9650  -14.0880 C.2     1  UNL1        0.0120
     16  C         24.5180  -22.1480  -15.4490 C.2     1  UNL1        0.0430
     17  C         25.1340  -23.3150  -15.8760 C.2     1  UNL1        0.1160
     18  F         25.3820  -23.4930  -17.1810 F       1  UNL1       -0.2060
     19  C         25.5060  -24.3000  -14.9700 C.2     1  UNL1        0.0430
     20  C         25.2540  -24.1170  -13.6070 C.2     1  UNL1        0.0120
     21  S         17.2280  -23.2650   -8.8140 S.O2    1  UNL1        0.2630
     22  O         17.9200  -24.2320   -7.9920 O.2     1  UNL1       -0.2000
     23  O         16.0720  -23.6620   -9.5940 O.2     1  UNL1       -0.2000
     24  N         16.7140  -21.9760   -7.8620 N.pl3   1  UNL1       -0.2800
     25  H         16.9490  -21.0600   -8.2340 H       1  UNL1        0.1790
     26  C         16.5420  -22.1340   -6.4600 C.2     1  UNL1        0.0490
     27  C         15.2950  -22.5590   -5.9950 C.2     1  UNL1        0.0310
     28  C         15.0770  -22.7550   -4.6360 C.2     1  UNL1        0.0030
     29  C         16.1110  -22.5330   -3.7320 C.2     1  UNL1        0.0070
     30  C         17.3720  -22.1030   -4.1750 C.2     1  UNL1       -0.0540
     31  C         18.4570  -21.8780   -3.1530 C.3     1  UNL1        0.0490
     32  C         17.5960  -21.8840   -5.5570 C.2     1  UNL1       -0.0290
     33  C         18.9550  -21.4220   -6.0160 C.3     1  UNL1        0.0510
@<TRIPOS>BOND
     1    18    17    1
     2    17    16    2
     3    17    19    1
     4    16    15    1
     5    19    20    2
     6    15    14    2
     7    20    14    1
     8    14    12    1
     9    11    10    1
    10     3     4    1
    11     3     2    2
    12    12    10    1
    13    12    13    1
    14     4     5    2
    15    10     8   am
    16     1     2    1
    17     2     7    1
    18     5     8    1
    19     5     6    1
    20     8     9    2
    21     7     6    2
    22     7    21    1
    23    23    21    2
    24    21    22    2
    25    21    24    1
    26    25    24    1
    27    24    26    1
    28    26    27    2
    29    26    32    1
    30    33    32    1
    31    27    28    1
    32    32    30    2
    33    28    29    2
    34    30    29    1
    35    30    31    1
