@<TRIPOS>MOLECULE
70776_out_ligand_01.pdbqt
 36 39 0 0 0
SMALL
GASTEIGER

@<TRIPOS>ATOM
      1  C         21.0410  -22.5930  -10.5320 C.2     1  UNL1        0.0340
      2  C         20.7380  -23.5700   -9.5710 C.2     1  UNL1        0.0310
      3  C         19.4390  -23.7000   -9.0730 C.2     1  UNL1        0.0270
      4  C         18.4290  -22.8670   -9.5580 C.2     1  UNL1        0.0800
      5  C         18.7230  -21.8660  -10.4870 C.2     1  UNL1        0.0270
      6  C         20.0280  -21.7370  -10.9740 C.2     1  UNL1        0.0310
      7  N         22.3590  -22.5720  -11.0290 N.am    1  UNL1       -0.3250
      8  C         23.4260  -21.8110  -10.5620 C.2     1  UNL1        0.2510
      9  O         23.4360  -21.1760   -9.5080 O.2     1  UNL1       -0.2700
     10  H         22.5350  -23.1710  -11.8260 H       1  UNL1        0.1690
     11  C         24.6480  -21.8640  -11.5300 C.3     1  UNL1        0.2170
     12  C         25.7730  -21.0510  -10.8890 C.3     1  UNL1        0.0500
     13  O         24.5180  -21.3780  -12.8650 O.2     1  UNL1       -0.3360
     14  C         24.7870  -22.3230  -13.8160 C.2     1  UNL1        0.0760
     15  C         24.9740  -23.6200  -13.3300 C.2     1  UNL1        0.0370
     16  C         25.2490  -24.6650  -14.2010 C.2     1  UNL1        0.0030
     17  C         25.3360  -24.4140  -15.5680 C.2     1  UNL1        0.0070
     18  C         25.1180  -23.1210  -16.0820 C.2     1  UNL1       -0.0530
     19  C         25.2310  -22.9100  -17.5680 C.3     1  UNL1        0.0490
     20  C         24.7920  -22.0610  -15.1980 C.2     1  UNL1       -0.0230
     21  C         24.4670  -20.6920  -15.7420 C.3     1  UNL1        0.0520
     22  S         16.7540  -23.0910   -8.9930 S.O2    1  UNL1        0.2630
     23  O         16.2680  -21.8120   -8.5180 O.2     1  UNL1       -0.2000
     24  O         16.0430  -23.8310  -10.0140 O.2     1  UNL1       -0.2000
     25  N         16.9200  -24.1540   -7.6830 N.pl3   1  UNL1       -0.2800
     26  H         17.7380  -24.7530   -7.7750 H       1  UNL1        0.1790
     27  C         16.5740  -23.6850   -6.3760 C.2     1  UNL1        0.0530
     28  C         15.3690  -24.1280   -5.8270 C.2     1  UNL1        0.0310
     29  C         14.9340  -23.6390   -4.6030 C.2     1  UNL1        0.0030
     30  C         15.6960  -22.6900   -3.9260 C.2     1  UNL1        0.0120
     31  C         16.9140  -22.2290   -4.4530 C.2     1  UNL1       -0.0240
     32  C         17.6690  -21.2640   -3.7600 C.2     1  UNL1        0.0120
     33  C         17.3810  -22.7350   -5.6900 C.2     1  UNL1        0.0010
     34  C         18.8820  -20.7950   -4.2700 C.2     1  UNL1        0.0010
     35  C         19.3570  -21.2910   -5.4770 C.2     1  UNL1        0.0010
     36  C         18.6220  -22.2520   -6.1730 C.2     1  UNL1        0.0140
@<TRIPOS>BOND
     1    19    18    1
     2    18    17    2
     3    18    20    1
     4    21    20    1
     5    17    16    1
     6    20    14    2
     7    16    15    2
     8    14    15    1
     9    14    13    1
    10    13    11    1
    11    10     7    1
    12    11    12    1
    13    11     8    1
    14     7     8   am
    15     7     1    1
    16     6     1    2
    17     6     5    1
    18     8     9    2
    19     1     2    1
    20     5     4    2
    21    24    22    2
    22     2     3    2
    23     4     3    1
    24     4    22    1
    25    22    23    2
    26    22    25    1
    27    26    25    1
    28    25    27    1
    29    27    28    2
    30    27    33    1
    31    36    33    1
    32    36    35    2
    33    28    29    1
    34    33    31    2
    35    35    34    1
    36    29    30    2
    37    31    30    1
    38    31    32    1
    39    34    32    2
