@<TRIPOS>MOLECULE
70773_out_ligand_01.pdbqt
 39 43 0 0 0
SMALL
GASTEIGER

@<TRIPOS>ATOM
      1  N         21.4750  -22.6500  -10.4310 N.am    1  UNL1       -0.3230
      2  C         22.5570  -21.9680   -9.9040 C.2     1  UNL1        0.2560
      3  O         22.6920  -21.5730   -8.7530 O.2     1  UNL1       -0.2670
      4  H         21.5820  -23.0190  -11.3670 H       1  UNL1        0.1690
      5  C         20.2680  -22.9730   -9.7780 C.2     1  UNL1        0.0350
      6  C         19.0250  -22.4380  -10.1260 C.2     1  UNL1        0.0310
      7  C         17.8670  -22.8170   -9.4390 C.2     1  UNL1        0.0270
      8  C         17.9530  -23.7500   -8.4050 C.2     1  UNL1        0.0800
      9  C         19.1890  -24.2750   -8.0280 C.2     1  UNL1        0.0270
     10  C         20.3400  -23.8930   -8.7220 C.2     1  UNL1        0.0310
     11  S         16.4830  -24.2290   -7.5220 S.O2    1  UNL1        0.2630
     12  O         16.8760  -25.1810   -6.5040 O.2     1  UNL1       -0.2000
     13  O         15.4670  -24.5600   -8.4980 O.2     1  UNL1       -0.2000
     14  N         16.0480  -22.8230   -6.6950 N.pl3   1  UNL1       -0.2800
     15  H         15.0400  -22.7390   -6.5860 H       1  UNL1        0.1790
     16  C         16.8860  -22.3190   -5.6570 C.2     1  UNL1        0.0490
     17  C         16.5880  -22.5840   -4.3110 C.2     1  UNL1       -0.0350
     18  C         17.4470  -22.0830   -3.3200 C.2     1  UNL1        0.0090
     19  C         15.3680  -23.3570   -3.8940 C.3     1  UNL1        0.0500
     20  C         18.5830  -21.3470   -3.6610 C.2     1  UNL1        0.0070
     21  C         18.8850  -21.0920   -5.0010 C.2     1  UNL1       -0.0600
     22  C         20.0790  -20.2670   -5.3760 C.3     1  UNL1        0.0480
     23  C         18.0180  -21.5690   -5.9920 C.2     1  UNL1        0.0370
     24  C         23.6760  -21.7430  -10.8610 C.2     1  UNL1        0.0320
     25  C         23.3790  -21.6530  -12.2260 C.2     1  UNL1        0.0170
     26  C         24.4020  -21.4510  -13.1560 C.2     1  UNL1        0.0090
     27  C         25.7340  -21.3490  -12.7320 C.2     1  UNL1       -0.0450
     28  C         26.0250  -21.4540  -11.3610 C.2     1  UNL1        0.0090
     29  C         25.0040  -21.6540  -10.4290 C.2     1  UNL1        0.0170
     30  C         26.8540  -21.1430  -13.7330 C.3     1  UNL1        0.1340
     31  N         26.8510  -22.1990  -14.7440 N.pl3   1  UNL1       -0.2780
     32  C         26.5020  -23.5720  -14.3130 C.3     1  UNL1        0.1010
     33  C         26.0210  -24.3370  -15.5560 C.3     1  UNL1        0.0550
     34  C         25.5250  -23.2030  -16.3840 C.2     1  UNL1       -0.0360
     35  C         24.7250  -23.2520  -17.5150 C.2     1  UNL1        0.0090
     36  C         26.0300  -22.0010  -15.8770 C.2     1  UNL1        0.0170
     37  C         24.4160  -22.0510  -18.1520 C.2     1  UNL1        0.0010
     38  C         24.9180  -20.8380  -17.6600 C.2     1  UNL1        0.0020
     39  C         25.7350  -20.8110  -16.5230 C.2     1  UNL1        0.0240
@<TRIPOS>BOND
     1    37    38    2
     2    37    35    1
     3    38    39    1
     4    35    34    2
     5    39    36    2
     6    34    36    1
     7    34    33    1
     8    36    31    1
     9    33    32    1
    10    31    32    1
    11    31    30    1
    12    30    27    1
    13    26    27    2
    14    26    25    1
    15    27    28    1
    16    25    24    2
    17     4     1    1
    18    28    29    2
    19    24    29    1
    20    24     2    1
    21     1     2   am
    22     1     5    1
    23     6     5    2
    24     6     7    1
    25     2     3    2
    26     5    10    1
    27     7     8    2
    28    10     9    2
    29    13    11    2
    30     8     9    1
    31     8    11    1
    32    11    14    1
    33    11    12    2
    34    14    15    1
    35    14    16    1
    36    23    16    2
    37    23    21    1
    38    16    17    1
    39    22    21    1
    40    21    20    2
    41    17    19    1
    42    17    18    2
    43    20    18    1
