@<TRIPOS>MOLECULE
70781_out_ligand_01.pdbqt
 38 42 0 0 0
SMALL
GASTEIGER

@<TRIPOS>ATOM
      1  O         20.3540  -22.0600  -10.7310 O.2     1  UNL1       -0.2670
      2  C         21.4060  -22.1910  -10.1180 C.2     1  UNL1        0.2560
      3  N         21.5600  -22.3390   -8.7510 N.am    1  UNL1       -0.3230
      4  H         22.5050  -22.3040   -8.3940 H       1  UNL1        0.1690
      5  C         20.5410  -22.4420   -7.7820 C.2     1  UNL1        0.0350
      6  C         19.7790  -23.6210   -7.7800 C.2     1  UNL1        0.0310
      7  C         18.7420  -23.8000   -6.8620 C.2     1  UNL1        0.0270
      8  C         18.4510  -22.7860   -5.9470 C.2     1  UNL1        0.0800
      9  C         19.2110  -21.6150   -5.9240 C.2     1  UNL1        0.0270
     10  C         20.2500  -21.4450   -6.8460 C.2     1  UNL1        0.0310
     11  S         17.1210  -22.9920   -4.7850 S.O2    1  UNL1        0.2630
     12  O         17.2390  -21.9430   -3.7950 O.2     1  UNL1       -0.2000
     13  O         17.0730  -24.3870   -4.4000 O.2     1  UNL1       -0.2000
     14  N         15.7560  -22.6150   -5.7100 N.pl3   1  UNL1       -0.2810
     15  H         15.3700  -21.7070   -5.4570 H       1  UNL1        0.1790
     16  C         15.7230  -22.9980   -7.0810 C.2     1  UNL1        0.0440
     17  C         15.3130  -24.2810   -7.4470 C.2     1  UNL1        0.0300
     18  C         15.3260  -24.6640   -8.7880 C.2     1  UNL1        0.0040
     19  C         15.7540  -23.7630   -9.7640 C.2     1  UNL1        0.0240
     20  C         16.1650  -22.4840   -9.3900 C.2     1  UNL1        0.0360
     21 CL         16.7070  -21.3800  -10.5940 Cl      1  UNL1       -0.0840
     22  C         16.1500  -22.0930   -8.0520 C.2     1  UNL1        0.0540
     23  C         22.6830  -22.1550  -10.8850 C.2     1  UNL1        0.0320
     24  C         22.6370  -21.8260  -12.2440 C.2     1  UNL1        0.0170
     25  C         23.8160  -21.7780  -12.9890 C.2     1  UNL1        0.0090
     26  C         25.0510  -22.0700  -12.3930 C.2     1  UNL1       -0.0450
     27  C         25.0860  -22.4190  -11.0350 C.2     1  UNL1        0.0090
     28  C         23.9090  -22.4650  -10.2840 C.2     1  UNL1        0.0170
     29  C         26.3230  -22.0250  -13.2170 C.3     1  UNL1        0.1340
     30  N         26.2740  -22.9970  -14.3070 N.pl3   1  UNL1       -0.2780
     31  C         25.5950  -24.2880  -14.0640 C.3     1  UNL1        0.1010
     32  C         25.1840  -24.8600  -15.4300 C.3     1  UNL1        0.0550
     33  C         25.0700  -23.6000  -16.2160 C.2     1  UNL1       -0.0360
     34  C         24.4750  -23.4100  -17.4530 C.2     1  UNL1        0.0090
     35  C         25.7150  -22.5650  -15.5300 C.2     1  UNL1        0.0170
     36  C         24.5250  -22.1360  -18.0170 C.2     1  UNL1        0.0010
     37  C         25.1750  -21.0910  -17.3470 C.2     1  UNL1        0.0020
     38  C         25.7800  -21.3050  -16.1030 C.2     1  UNL1        0.0240
@<TRIPOS>BOND
     1    36    34    1
     2    36    37    2
     3    34    33    2
     4    37    38    1
     5    33    35    1
     6    33    32    1
     7    38    35    2
     8    35    30    1
     9    32    31    1
    10    30    31    1
    11    30    29    1
    12    29    26    1
    13    25    26    2
    14    25    24    1
    15    26    27    1
    16    24    23    2
    17    27    28    2
    18    23    28    1
    19    23     2    1
    20     1     2    2
    21    21    20    1
    22     2     3   am
    23    19    20    2
    24    19    18    1
    25    20    22    1
    26    18    17    2
    27     3     4    1
    28     3     5    1
    29    22    16    2
    30     5     6    2
    31     5    10    1
    32     6     7    1
    33    17    16    1
    34    16    14    1
    35     7     8    2
    36    10     9    2
    37     8     9    1
    38     8    11    1
    39    14    15    1
    40    14    11    1
    41    11    13    2
    42    11    12    2
