@<TRIPOS>MOLECULE
70802_out_ligand_01.pdbqt
 36 40 0 0 0
SMALL
GASTEIGER

@<TRIPOS>ATOM
      1  C         23.9900  -22.2030  -14.0690 C.2     1  UNL1        0.0800
      2  C         24.3700  -23.1190  -13.0880 C.2     1  UNL1        0.0270
      3  C         23.6460  -23.1990  -11.8940 C.2     1  UNL1        0.0310
      4  C         22.5490  -22.3610  -11.6720 C.2     1  UNL1        0.0350
      5  C         22.1880  -21.4350  -12.6630 C.2     1  UNL1        0.0310
      6  C         22.9060  -21.3500  -13.8590 C.2     1  UNL1        0.0270
      7  N         21.7690  -22.3790  -10.5020 N.am    1  UNL1       -0.3210
      8  C         21.9400  -23.1480   -9.3640 C.2     1  UNL1        0.2800
      9  O         22.8270  -23.9760   -9.1870 O.2     1  UNL1       -0.2650
     10  H         20.9730  -21.7510  -10.4690 H       1  UNL1        0.1690
     11  C         20.9290  -22.8800   -8.3560 C.2     1  UNL1        0.1440
     12  C         19.7460  -23.5320   -8.0610 C.2     1  UNL1        0.0580
     13  C         19.1450  -22.8410   -6.9730 C.2     1  UNL1        0.0120
     14  C         20.0130  -21.7980   -6.6740 C.2     1  UNL1        0.0870
     15  C         17.9590  -22.9730   -6.2000 C.2     1  UNL1       -0.0130
     16  C         19.8050  -20.8670   -5.6620 C.2     1  UNL1        0.0390
     17  O         21.0910  -21.8170   -7.5060 O.2     1  UNL1       -0.3040
     18  C         18.6350  -21.0080   -4.9080 C.2     1  UNL1        0.0150
     19  C         17.7140  -22.0390   -5.1580 C.2     1  UNL1       -0.0250
     20  C         16.5430  -22.1740   -4.3980 C.2     1  UNL1        0.0120
     21  C         15.6350  -23.2040   -4.6560 C.2     1  UNL1        0.0010
     22  C         15.8800  -24.1180   -5.6790 C.2     1  UNL1        0.0010
     23  C         17.0360  -24.0080   -6.4520 C.2     1  UNL1        0.0130
     24  S         24.9330  -22.0910  -15.5700 S.O2    1  UNL1        0.2760
     25  O         24.8400  -23.3450  -16.2880 O.2     1  UNL1       -0.2000
     26  O         24.5290  -20.8570  -16.2140 O.2     1  UNL1       -0.2000
     27  N         26.4880  -21.8450  -15.0470 N.pl3   1  UNL1       -0.1090
     28  H         26.8510  -22.5930  -14.4680 H       1  UNL1        0.1980
     29  C         26.8170  -20.5790  -14.5820 C.cat   1  UNL1        0.7360
     30  N         26.8320  -20.3540  -13.2680 N.2     1  UNL1       -0.0670
     31  C         27.0030  -19.0730  -12.8890 C.2     1  UNL1        0.0510
     32  C         27.1140  -18.0420  -13.8020 C.2     1  UNL1        0.0540
     33  C         27.0600  -18.7930  -11.4180 C.3     1  UNL1        0.0710
     34  C         27.0310  -18.3850  -15.1390 C.2     1  UNL1        0.0510
     35  C         27.1200  -17.3270  -16.1970 C.3     1  UNL1        0.0710
     36  N         26.8590  -19.6580  -15.5470 N.2     1  UNL1       -0.0670
@<TRIPOS>BOND
     1    25    24    2
     2    26    24    2
     3    35    34    1
     4    24    27    1
     5    24     1    1
     6    36    34    2
     7    36    29    1
     8    34    32    1
     9    27    29    1
    10    27    28    1
    11    29    30    2
    12     1     6    2
    13     1     2    1
    14     6     5    1
    15    32    31    2
    16    30    31    1
    17     2     3    2
    18    31    33    1
    19     5     4    2
    20     3     4    1
    21     4     7    1
    22     7    10    1
    23     7     8   am
    24     8     9    2
    25     8    11    1
    26    11    12    2
    27    11    17    1
    28    12    13    1
    29    17    14    1
    30    13    14    2
    31    13    15    1
    32    14    16    1
    33    23    15    2
    34    23    22    1
    35    15    19    1
    36    22    21    2
    37    16    18    2
    38    19    18    1
    39    19    20    2
    40    21    20    1
