@<TRIPOS>MOLECULE
70809_out_ligand_01.pdbqt
 35 39 0 0 0
SMALL
GASTEIGER

@<TRIPOS>ATOM
      1  N         20.0810  -22.8370   -8.2140 N.am    1  UNL1       -0.3440
      2  C         20.8730  -23.7700   -8.8500 C.2     1  UNL1        0.2520
      3  O         20.7100  -24.9810   -8.7550 O.2     1  UNL1       -0.2680
      4  H         20.0780  -21.8960   -8.5790 H       1  UNL1        0.1630
      5  C         21.9520  -23.2270   -9.7220 C.2     1  UNL1        0.0320
      6  C         21.5980  -22.7000  -10.9700 C.2     1  UNL1        0.0170
      7  C         22.5770  -22.1800  -11.8180 C.2     1  UNL1        0.0100
      8  C         23.9260  -22.1840  -11.4350 C.2     1  UNL1       -0.0300
      9  C         24.2780  -22.7280  -10.1910 C.2     1  UNL1        0.0100
     10  C         23.3000  -23.2520   -9.3410 C.2     1  UNL1        0.0170
     11  C         24.9890  -21.6200  -12.3560 C.3     1  UNL1        0.3110
     12  N         26.0970  -22.5550  -12.6010 N.3     1  UNL1        0.0970
     13  C         25.6140  -23.8860  -13.0060 C.3     1  UNL1        0.2770
     14  C         24.8800  -23.9160  -14.3560 C.3     1  UNL1        0.0690
     15  C         25.5390  -23.0580  -15.4070 C.2     1  UNL1       -0.0490
     16  C         25.1120  -23.1310  -16.7390 C.2     1  UNL1        0.0070
     17  C         26.5390  -22.1360  -15.0450 C.2     1  UNL1       -0.0240
     18  C         25.6860  -22.3100  -17.7090 C.2     1  UNL1        0.0010
     19  C         26.6880  -21.4090  -17.3560 C.2     1  UNL1        0.0010
     20  C         27.1160  -21.3250  -16.0310 C.2     1  UNL1        0.0090
     21  C         27.0460  -22.0630  -13.6180 C.3     1  UNL1        0.3110
     22  C         18.8860  -23.2260   -7.4750 C.3     1  UNL1        0.1520
     23  C         18.7410  -22.4720   -6.1440 C.2     1  UNL1       -0.0250
     24  C         19.2770  -21.1760   -5.9800 C.2     1  UNL1        0.0100
     25  C         19.1350  -20.4750   -4.7820 C.2     1  UNL1        0.0010
     26  C         18.4510  -21.0490   -3.7190 C.2     1  UNL1        0.0010
     27  C         17.9110  -22.3250   -3.8520 C.2     1  UNL1        0.0070
     28  C         18.0480  -23.0490   -5.0500 C.2     1  UNL1       -0.0530
     29  C         17.4390  -24.4260   -5.1220 C.3     1  UNL1        0.0490
     30  C         17.6880  -23.0890   -8.4120 C.2     1  UNL1       -0.0310
     31  C         16.5310  -23.8770   -8.2780 C.2     1  UNL1        0.0090
     32  C         15.4410  -23.6920   -9.1310 C.2     1  UNL1        0.0010
     33  C         15.4850  -22.7120  -10.1200 C.2     1  UNL1        0.0000
     34  C         16.6170  -21.9120  -10.2570 C.2     1  UNL1        0.0010
     35  C         17.7080  -22.0960   -9.4060 C.2     1  UNL1        0.0090
@<TRIPOS>BOND
     1    18    19    2
     2    18    16    1
     3    19    20    1
     4    16    15    2
     5    20    17    2
     6    15    17    1
     7    15    14    1
     8    17    21    1
     9    14    13    1
    10    21    12    1
    11    13    12    1
    12    12    11    1
    13    11     8    1
    14     7     8    2
    15     7     6    1
    16     8     9    1
    17     6     5    2
    18    34    33    2
    19    34    35    1
    20     9    10    2
    21    33    32    1
    22     5    10    1
    23     5     2    1
    24    35    30    2
    25    32    31    2
    26     2     3    2
    27     2     1   am
    28     4     1    1
    29    30    31    1
    30    30    22    1
    31     1    22    1
    32    22    23    1
    33    23    24    2
    34    23    28    1
    35    24    25    1
    36    29    28    1
    37    28    27    2
    38    25    26    2
    39    27    26    1
