@<TRIPOS>MOLECULE
70804_out_ligand_01.pdbqt
 32 35 0 0 0
SMALL
GASTEIGER

@<TRIPOS>ATOM
      1  C         22.5220  -22.3040   -9.9320 C.2     1  UNL1        0.0320
      2  C         22.3450  -22.3430   -8.5440 C.2     1  UNL1        0.0170
      3  C         21.0570  -22.3690   -8.0000 C.2     1  UNL1        0.0100
      4  C         19.9320  -22.3650   -8.8390 C.2     1  UNL1       -0.0300
      5  C         20.1180  -22.3580  -10.2310 C.2     1  UNL1        0.0100
      6  C         21.4040  -22.3320  -10.7760 C.2     1  UNL1        0.0170
      7  C         23.9090  -22.2240  -10.4670 C.2     1  UNL1        0.2510
      8  N         24.3390  -23.3250  -11.1760 N.am    1  UNL1       -0.3530
      9  H         23.6550  -24.0130  -11.4540 H       1  UNL1        0.1630
     10  O         24.5770  -21.2120  -10.3090 O.2     1  UNL1       -0.2680
     11  C         25.5720  -23.2980  -11.9270 C.3     1  UNL1        0.1610
     12  C         25.2890  -23.3870  -13.4040 C.2     1  UNL1       -0.0380
     13  C         25.4400  -24.6020  -14.0850 C.2     1  UNL1        0.0120
     14  C         25.1850  -24.6920  -15.4590 C.2     1  UNL1        0.0400
     15  C         24.7980  -23.5620  -16.1820 C.2     1  UNL1        0.1010
     16  C         24.7070  -22.3330  -15.5060 C.2     1  UNL1        0.1020
     17  C         24.9230  -22.2480  -14.1310 C.2     1  UNL1        0.0480
     18  O         24.5210  -23.5480  -17.5240 O.2     1  UNL1       -0.3530
     19  C         23.1860  -23.8570  -17.9040 C.3     1  UNL1        0.2100
     20  O         24.3270  -21.1820  -16.1540 O.2     1  UNL1       -0.3530
     21  C         25.4570  -20.3280  -16.3340 C.3     1  UNL1        0.2100
     22  C         18.5350  -22.3420   -8.2520 C.3     1  UNL1        0.3110
     23  N         17.9520  -23.6850   -8.1020 N.3     1  UNL1        0.0970
     24  C         16.5380  -23.7190   -8.5080 C.3     1  UNL1        0.2770
     25  C         15.6100  -22.8590   -7.6390 C.3     1  UNL1        0.0690
     26  C         15.8970  -23.0000   -6.1650 C.2     1  UNL1       -0.0490
     27  C         14.9990  -22.4790   -5.2250 C.2     1  UNL1        0.0070
     28  C         17.0970  -23.5950   -5.7310 C.2     1  UNL1       -0.0240
     29  C         15.2760  -22.5670   -3.8620 C.2     1  UNL1        0.0010
     30  C         16.4540  -23.1700   -3.4280 C.2     1  UNL1        0.0010
     31  C         17.3580  -23.6860   -4.3570 C.2     1  UNL1        0.0090
     32  C         18.0720  -24.1960   -6.7230 C.3     1  UNL1        0.3110
@<TRIPOS>BOND
     1    19    18    1
     2    18    15    1
     3    21    20    1
     4    15    16    2
     5    15    14    1
     6    20    16    1
     7    16    17    1
     8    14    13    2
     9    17    12    2
    10    13    12    1
    11    12    11    1
    12    11     8    1
    13     9     8    1
    14     8     7   am
    15     6     5    1
    16     6     1    2
    17     7    10    2
    18     7     1    1
    19     5     4    2
    20     1     2    1
    21     4    22    1
    22     4     3    1
    23     2     3    2
    24    24    23    1
    25    24    25    1
    26    22    23    1
    27    23    32    1
    28    25    26    1
    29    32    28    1
    30    26    28    2
    31    26    27    1
    32    28    31    1
    33    27    29    2
    34    31    30    2
    35    29    30    1
