@<TRIPOS>MOLECULE
70801_out_ligand_01.pdbqt
 39 43 0 0 0
SMALL
GASTEIGER

@<TRIPOS>ATOM
      1  N         21.4310  -22.6000  -10.5270 N.am    1  UNL1       -0.3230
      2  C         22.5590  -22.0120   -9.9830 C.2     1  UNL1        0.2560
      3  O         22.7670  -21.7710   -8.8010 O.2     1  UNL1       -0.2670
      4  H         21.4900  -22.8820  -11.4970 H       1  UNL1        0.1690
      5  C         20.2490  -22.9620   -9.8490 C.2     1  UNL1        0.0350
      6  C         18.9790  -22.5000  -10.2050 C.2     1  UNL1        0.0310
      7  C         17.8490  -22.9010   -9.4850 C.2     1  UNL1        0.0270
      8  C         17.9940  -23.7600   -8.3940 C.2     1  UNL1        0.0800
      9  C         19.2520  -24.2570   -8.0470 C.2     1  UNL1        0.0270
     10  C         20.3750  -23.8530   -8.7740 C.2     1  UNL1        0.0310
     11  S         16.5580  -24.2590   -7.4730 S.O2    1  UNL1        0.2630
     12  O         15.4940  -24.5080   -8.4230 O.2     1  UNL1       -0.2000
     13  O         16.9630  -25.2730   -6.5230 O.2     1  UNL1       -0.2000
     14  N         16.1230  -22.8530   -6.6430 N.pl3   1  UNL1       -0.2800
     15  H         15.6300  -22.1960   -7.2440 H       1  UNL1        0.1790
     16  C         16.9660  -22.3370   -5.6130 C.2     1  UNL1        0.0500
     17  C         18.0960  -21.5870   -5.9520 C.2     1  UNL1        0.0540
     18  C         18.9060  -21.0560   -4.9500 C.2     1  UNL1        0.0360
     19  C         18.6070  -21.2760   -3.6090 C.2     1  UNL1        0.0240
     20 CL         20.2850  -20.1190   -5.3700 Cl      1  UNL1       -0.0840
     21  C         17.4900  -22.0400   -3.2680 C.2     1  UNL1        0.0110
     22  C         16.6580  -22.5790   -4.2620 C.2     1  UNL1       -0.0350
     23  C         15.4760  -23.4090   -3.8460 C.3     1  UNL1        0.0500
     24  C         23.6330  -21.7090  -10.9680 C.2     1  UNL1        0.0320
     25  C         23.3780  -21.6950  -12.3460 C.2     1  UNL1        0.0170
     26  C         24.4110  -21.4120  -13.2440 C.2     1  UNL1        0.0090
     27  C         25.7050  -21.1350  -12.7760 C.2     1  UNL1       -0.0450
     28  C         25.9450  -21.1410  -11.3930 C.2     1  UNL1        0.0090
     29  C         24.9140  -21.4150  -10.4930 C.2     1  UNL1        0.0170
     30  C         26.8350  -20.8410  -13.7410 C.3     1  UNL1        0.1340
     31  N         26.9290  -21.8830  -14.7620 N.pl3   1  UNL1       -0.2780
     32  C         26.7510  -23.2880  -14.3460 C.3     1  UNL1        0.1010
     33  C         26.3250  -24.0900  -15.5860 C.3     1  UNL1        0.0550
     34  C         25.7020  -23.0080  -16.3980 C.2     1  UNL1       -0.0360
     35  C         24.9020  -23.1320  -17.5230 C.2     1  UNL1        0.0090
     36  C         26.0800  -21.7640  -15.8850 C.2     1  UNL1        0.0170
     37  C         24.4650  -21.9690  -18.1510 C.2     1  UNL1        0.0010
     38  C         24.8400  -20.7130  -17.6520 C.2     1  UNL1        0.0020
     39  C         25.6550  -20.6080  -16.5190 C.2     1  UNL1        0.0240
@<TRIPOS>BOND
     1    37    38    2
     2    37    35    1
     3    38    39    1
     4    35    34    2
     5    39    36    2
     6    34    36    1
     7    34    33    1
     8    36    31    1
     9    33    32    1
    10    31    32    1
    11    31    30    1
    12    30    27    1
    13    26    27    2
    14    26    25    1
    15    27    28    1
    16    25    24    2
    17     4     1    1
    18    28    29    2
    19    24    29    1
    20    24     2    1
    21     1     2   am
    22     1     5    1
    23     6     5    2
    24     6     7    1
    25     2     3    2
    26     5    10    1
    27     7     8    2
    28    10     9    2
    29    12    11    2
    30     8     9    1
    31     8    11    1
    32    11    14    1
    33    11    13    2
    34    15    14    1
    35    14    16    1
    36    17    16    2
    37    17    18    1
    38    16    22    1
    39    20    18    1
    40    18    19    2
    41    22    23    1
    42    22    21    2
    43    19    21    1
