@<TRIPOS>MOLECULE
70803_out_ligand_01.pdbqt
 34 37 0 0 0
SMALL
GASTEIGER

@<TRIPOS>ATOM
      1  C         20.6390  -22.1200  -10.7810 C.2     1  UNL1        0.0340
      2  C         20.6800  -21.4070  -11.9820 C.2     1  UNL1        0.0310
      3  C         21.8260  -21.4270  -12.7820 C.2     1  UNL1        0.0270
      4  C         22.9460  -22.1530  -12.3680 C.2     1  UNL1        0.0800
      5  C         22.9150  -22.8830  -11.1800 C.2     1  UNL1        0.0270
      6  C         21.7640  -22.8600  -10.3890 C.2     1  UNL1        0.0310
      7  N         19.5250  -22.1530   -9.9220 N.am    1  UNL1       -0.3250
      8  C         18.2240  -22.5420  -10.2140 C.2     1  UNL1        0.2510
      9  O         17.8090  -22.8950  -11.3150 O.2     1  UNL1       -0.2700
     10  H         19.7010  -21.9180   -8.9520 H       1  UNL1        0.1690
     11  C         17.2950  -22.4080   -8.9890 C.3     1  UNL1        0.2170
     12  C         15.8870  -22.8930   -9.3090 C.3     1  UNL1        0.0500
     13  O         17.8170  -23.2140   -7.9230 O.2     1  UNL1       -0.3360
     14  C         18.0350  -22.5660   -6.7310 C.2     1  UNL1        0.0810
     15  C         19.0710  -21.6420   -6.5730 C.2     1  UNL1        0.0380
     16  C         19.2640  -21.0160   -5.3450 C.2     1  UNL1        0.0040
     17  C         18.4140  -21.3010   -4.2760 C.2     1  UNL1        0.0120
     18  C         17.3470  -22.2000   -4.4240 C.2     1  UNL1       -0.0230
     19  C         16.4840  -22.4740   -3.3500 C.2     1  UNL1        0.0120
     20  C         17.1350  -22.8340   -5.6720 C.2     1  UNL1        0.0070
     21  C         15.4150  -23.3580   -3.4950 C.2     1  UNL1        0.0010
     22  C         15.1890  -23.9760   -4.7200 C.2     1  UNL1        0.0010
     23  C         16.0370  -23.7140   -5.7970 C.2     1  UNL1        0.0150
     24  S         24.4040  -22.1900  -13.3840 S.O2    1  UNL1        0.2630
     25  O         25.2420  -21.0800  -12.9790 O.2     1  UNL1       -0.2000
     26  O         24.9110  -23.5450  -13.4020 O.2     1  UNL1       -0.2000
     27  N         23.8150  -21.7910  -14.9150 N.pl3   1  UNL1       -0.2790
     28  H         22.8620  -22.1230  -15.0560 H       1  UNL1        0.1790
     29  C         24.7030  -21.7930  -16.0280 C.2     1  UNL1        0.0600
     30  C         25.5040  -20.6950  -16.3200 C.2     1  UNL1        0.0330
     31  C         26.3820  -20.7560  -17.4000 C.2     1  UNL1        0.0210
     32  C         26.4230  -21.9200  -18.1530 C.2     1  UNL1        0.1160
     33  N         25.6560  -23.0040  -17.9000 N.2     1  UNL1       -0.2710
     34  C         24.8160  -22.9150  -16.8430 C.2     1  UNL1        0.1460
@<TRIPOS>BOND
     1    32    33    2
     2    32    31    1
     3    33    34    1
     4    31    30    2
     5    34    29    2
     6    30    29    1
     7    29    27    1
     8    28    27    1
     9    27    24    1
    10    26    24    2
    11    24    25    2
    12    24     4    1
    13     3     4    2
    14     3     2    1
    15     4     5    1
    16     2     1    2
    17     9     8    2
    18     5     6    2
    19     1     6    1
    20     1     7    1
    21     8     7   am
    22     8    11    1
    23     7    10    1
    24    12    11    1
    25    11    13    1
    26    13    14    1
    27    14    15    2
    28    14    20    1
    29    15    16    1
    30    23    20    1
    31    23    22    2
    32    20    18    2
    33    16    17    2
    34    22    21    1
    35    18    17    1
    36    18    19    1
    37    21    19    2
