@<TRIPOS>MOLECULE
7081_out_ligand_01.pdbqt
 31 34 0 0 0
SMALL
GASTEIGER

@<TRIPOS>ATOM
      1  C         22.3590  -22.3100  -11.6030 C.2     1  UNL1        0.0330
      2  C         22.3970  -23.0650  -10.4320 C.2     1  UNL1        0.0190
      3  C         21.2370  -23.2240   -9.6630 C.2     1  UNL1        0.0310
      4  C         20.0140  -22.6420  -10.0370 C.2     1  UNL1        0.0430
      5  C         19.9920  -21.8620  -11.2140 C.2     1  UNL1       -0.0300
      6  C         21.1640  -21.6930  -11.9770 C.2     1  UNL1        0.0260
      7  C         18.7470  -21.1550  -11.6780 C.3     1  UNL1        0.0420
      8  C         17.5070  -21.8070  -11.1030 C.3     1  UNL1        0.0250
      9  C         17.6710  -21.9490   -9.6010 C.3     1  UNL1        0.1330
     10  N         18.8250  -22.7840   -9.2350 N.am    1  UNL1       -0.3130
     11  C         18.7340  -23.7100   -8.1780 C.2     1  UNL1        0.2580
     12  O         19.4370  -24.7060   -8.0260 O.2     1  UNL1       -0.2670
     13  C         23.5670  -22.1090  -12.4510 C.2     1  UNL1        0.2560
     14  O         24.6400  -22.5390  -12.0460 O.2     1  UNL1       -0.2670
     15  N         23.3470  -21.4020  -13.6210 N.am    1  UNL1       -0.3230
     16  H         22.4270  -20.9970  -13.7420 H       1  UNL1        0.1690
     17  C         24.2900  -21.0990  -14.6260 C.2     1  UNL1        0.0360
     18  C         25.0650  -19.9440  -14.4410 C.2     1  UNL1        0.0320
     19  C         26.0190  -19.5680  -15.3890 C.2     1  UNL1        0.0460
     20  C         26.1990  -20.3440  -16.5280 C.2     1  UNL1        0.1380
     21  F         27.1200  -19.9650  -17.4270 F       1  UNL1       -0.2040
     22  C         25.4340  -21.4890  -16.7270 C.2     1  UNL1        0.0740
     23 CL         25.6520  -22.4480  -18.1430 Cl      1  UNL1       -0.0810
     24  C         24.4780  -21.8680  -15.7790 C.2     1  UNL1        0.0560
     25  C         17.6930  -23.4950   -7.1430 C.2     1  UNL1        0.0320
     26  C         16.4870  -24.2020   -7.2370 C.2     1  UNL1        0.0200
     27  C         15.5080  -24.0300   -6.2580 C.2     1  UNL1        0.0430
     28  C         15.7490  -23.1720   -5.1890 C.2     1  UNL1        0.1160
     29  F         14.8080  -23.0110   -4.2500 F       1  UNL1       -0.2060
     30  C         16.9540  -22.4840   -5.0740 C.2     1  UNL1        0.0430
     31  C         17.9370  -22.6510   -6.0500 C.2     1  UNL1        0.0200
@<TRIPOS>BOND
     1    23    22    1
     2    21    20    1
     3    22    20    2
     4    22    24    1
     5    20    19    1
     6    24    17    2
     7    19    18    2
     8    17    18    1
     9    17    15    1
    10    16    15    1
    11    15    13   am
    12    13    14    2
    13    13     1    1
    14     6     1    2
    15     6     5    1
    16     7     5    1
    17     7     8    1
    18     1     2    1
    19     5     4    2
    20     8     9    1
    21     2     3    2
    22     4     3    1
    23     4    10    1
    24     9    10    1
    25    10    11   am
    26    11    12    2
    27    11    25    1
    28    26    25    2
    29    26    27    1
    30    25    31    1
    31    27    28    2
    32    31    30    2
    33    28    30    1
    34    28    29    1
