@<TRIPOS>MOLECULE
70817_out_ligand_01.pdbqt
 31 34 0 0 0
SMALL
GASTEIGER

@<TRIPOS>ATOM
      1  C         20.9390  -21.8190  -11.7880 C.2     1  UNL1        0.0320
      2  C         19.7630  -21.0760  -11.9530 C.2     1  UNL1        0.0170
      3  C         18.6920  -21.2540  -11.0710 C.2     1  UNL1        0.0100
      4  C         18.7810  -22.1740  -10.0160 C.2     1  UNL1       -0.0400
      5  C         19.9730  -22.8930   -9.8430 C.2     1  UNL1        0.0100
      6  C         21.0450  -22.7170  -10.7210 C.2     1  UNL1        0.0170
      7  C         22.1050  -21.6610  -12.7040 C.2     1  UNL1        0.2560
      8  O         22.0140  -20.8570  -13.6230 O.2     1  UNL1       -0.2670
      9  N         23.2070  -22.4360  -12.3810 N.am    1  UNL1       -0.3220
     10  H         23.1450  -22.9420  -11.5020 H       1  UNL1        0.1690
     11  C         24.4390  -22.5360  -13.0750 C.2     1  UNL1        0.0500
     12  C         24.4930  -22.6750  -14.4700 C.2     1  UNL1        0.0300
     13  C         25.7130  -22.7740  -15.1460 C.2     1  UNL1        0.0020
     14  C         26.9070  -22.7400  -14.4390 C.2     1  UNL1        0.0010
     15  C         26.8770  -22.6090  -13.0550 C.2     1  UNL1        0.0180
     16  C         25.6530  -22.5080  -12.3560 C.2     1  UNL1        0.0740
     17  C         25.7380  -22.3800  -10.8560 C.3     1  UNL1        0.4190
     18  F         25.2970  -21.1700  -10.4090 F       1  UNL1       -0.1660
     19  F         27.0020  -22.5140  -10.3510 F       1  UNL1       -0.1660
     20  F         24.9860  -23.3120  -10.2060 F       1  UNL1       -0.1660
     21  C         17.6280  -22.3420   -9.0430 C.3     1  UNL1        0.1610
     22  N         18.0150  -23.1900   -7.9010 N.pl3   1  UNL1       -0.3760
     23  C         17.3060  -24.4710   -7.7760 C.3     1  UNL1        0.1230
     24  C         16.0770  -24.3350   -6.8920 C.3     1  UNL1        0.0240
     25  C         16.5160  -23.9440   -5.4900 C.3     1  UNL1        0.0420
     26  C         17.5190  -22.8190   -5.5140 C.2     1  UNL1       -0.0320
     27  C         17.7690  -22.1160   -4.3230 C.2     1  UNL1        0.0090
     28  C         18.2200  -22.4940   -6.6930 C.2     1  UNL1        0.0360
     29  C         18.7030  -21.0840   -4.2920 C.2     1  UNL1        0.0010
     30  C         19.4060  -20.7570   -5.4440 C.2     1  UNL1        0.0020
     31  C         19.1700  -21.4600   -6.6280 C.2     1  UNL1        0.0300
@<TRIPOS>BOND
     1    13    12    1
     2    13    14    2
     3    12    11    2
     4    14    15    1
     5     8     7    2
     6    11     9    1
     7    11    16    1
     8    15    16    2
     9     7     9   am
    10     7     1    1
    11     9    10    1
    12    16    17    1
    13     2     1    2
    14     2     3    1
    15     1     6    1
    16     3     4    2
    17    17    18    1
    18    17    19    1
    19    17    20    1
    20     6     5    2
    21     4     5    1
    22     4    21    1
    23    21    22    1
    24    22    23    1
    25    22    28    1
    26    23    24    1
    27    24    25    1
    28    28    31    1
    29    28    26    2
    30    31    30    2
    31    26    25    1
    32    26    27    1
    33    30    29    1
    34    27    29    2
