@<TRIPOS>MOLECULE
70814_out_ligand_01.pdbqt
 32 34 0 0 0
SMALL
GASTEIGER

@<TRIPOS>ATOM
      1  C         21.2720  -21.8580  -10.6660 C.2     1  UNL1        0.0390
      2  C         20.6300  -21.0500  -11.6200 C.2     1  UNL1        0.0170
      3  C         19.2580  -21.1520  -11.8180 C.2     1  UNL1        0.0030
      4  C         18.5220  -22.0580  -11.0590 C.2     1  UNL1        0.0250
      5  C         19.1540  -22.8730  -10.1110 C.2     1  UNL1        0.0290
      6  C         20.5430  -22.7920   -9.8950 C.2     1  UNL1       -0.0240
      7  C         21.2370  -23.6220   -8.8460 C.3     1  UNL1        0.0510
      8  C         22.7360  -21.6690  -10.4770 C.2     1  UNL1        0.2520
      9  N         23.5280  -22.2910  -11.4160 N.am    1  UNL1       -0.3490
     10  H         23.1050  -22.9030  -12.1000 H       1  UNL1        0.1630
     11  O         23.1700  -21.0160   -9.5380 O.2     1  UNL1       -0.2680
     12  C         24.9780  -22.2370  -11.3560 C.3     1  UNL1        0.1140
     13  C         25.5940  -23.6130  -11.6300 C.3     1  UNL1        0.0370
     14  C         25.4730  -21.1580  -12.3040 C.2     1  UNL1       -0.0360
     15  C         26.3620  -20.1810  -11.8300 C.2     1  UNL1        0.0100
     16  C         26.8150  -19.1570  -12.6670 C.2     1  UNL1        0.0070
     17  C         26.3890  -19.0880  -13.9970 C.2     1  UNL1       -0.0620
     18  C         26.8500  -17.9720  -14.8850 C.3     1  UNL1        0.0480
     19  C         25.4810  -20.0410  -14.4670 C.2     1  UNL1        0.0070
     20  C         25.0280  -21.0650  -13.6310 C.2     1  UNL1        0.0100
     21  N         18.2970  -23.7260   -9.3390 N.pl3   1  UNL1       -0.1810
     22  H         18.7650  -24.1130   -8.5180 H       1  UNL1        0.1460
     23  S         16.8610  -22.9910   -8.7810 S.O2    1  UNL1        0.2450
     24  O         15.7990  -23.9640   -8.6590 O.2     1  UNL1       -0.2060
     25  O         16.7100  -21.7760   -9.5540 O.2     1  UNL1       -0.2060
     26  C         17.3580  -22.5340   -7.1370 C.2     1  UNL1        0.0740
     27  C         16.5350  -22.8720   -6.0580 C.2     1  UNL1        0.0250
     28  C         16.9130  -22.5050   -4.7660 C.2     1  UNL1        0.0080
     29  C         18.0970  -21.7870   -4.5480 C.2     1  UNL1       -0.0620
     30  C         18.5140  -21.4210   -3.1530 C.3     1  UNL1        0.0480
     31  C         18.9120  -21.4570   -5.6390 C.2     1  UNL1        0.0080
     32  C         18.5410  -21.8200   -6.9360 C.2     1  UNL1        0.0250
@<TRIPOS>BOND
     1    18    17    1
     2    19    17    2
     3    19    20    1
     4    17    16    1
     5    20    14    2
     6    16    15    2
     7    14    15    1
     8    14    12    1
     9    10     9    1
    10     3     2    1
    11     3     4    2
    12    13    12    1
    13     2     1    2
    14     9    12    1
    15     9     8   am
    16     4     5    1
    17     1     8    1
    18     1     6    1
    19     8    11    2
    20     5     6    2
    21     5    21    1
    22     6     7    1
    23    25    23    2
    24    21    23    1
    25    21    22    1
    26    23    24    2
    27    23    26    1
    28    26    32    2
    29    26    27    1
    30    32    31    1
    31    27    28    2
    32    31    29    2
    33    28    29    1
    34    29    30    1
