@<TRIPOS>MOLECULE
70810_out_ligand_01.pdbqt
 33 35 0 0 0
SMALL
GASTEIGER

@<TRIPOS>ATOM
      1  C         18.5820  -23.2880   -9.0180 C.2     1  UNL1        0.0800
      2  C         19.6890  -24.0390   -8.6200 C.2     1  UNL1        0.0270
      3  C         20.9190  -23.8400   -9.2510 C.2     1  UNL1        0.0310
      4  C         21.0500  -22.8970  -10.2820 C.2     1  UNL1        0.0340
      5  C         19.9270  -22.1700  -10.6850 C.2     1  UNL1        0.0310
      6  C         18.6910  -22.3660  -10.0610 C.2     1  UNL1        0.0270
      7  N         22.3260  -22.7520  -10.8550 N.am    1  UNL1       -0.3250
      8  C         23.3350  -21.8820  -10.4790 C.2     1  UNL1        0.2510
      9  O         23.2950  -21.0640   -9.5650 O.2     1  UNL1       -0.2700
     10  H         22.5800  -23.4170  -11.5800 H       1  UNL1        0.1690
     11  C         24.5840  -22.0010  -11.3740 C.3     1  UNL1        0.2170
     12  C         25.6690  -21.0910  -10.8060 C.3     1  UNL1        0.0500
     13  O         24.3480  -21.5740  -12.7170 O.2     1  UNL1       -0.3370
     14  C         24.5860  -22.4580  -13.7340 C.2     1  UNL1        0.0710
     15  C         25.1120  -23.6860  -13.3170 C.2     1  UNL1        0.0370
     16  C         25.4190  -24.6840  -14.2440 C.2     1  UNL1        0.0040
     17  C         25.2030  -24.4570  -15.6010 C.2     1  UNL1        0.0240
     18  C         24.6820  -23.2330  -16.0180 C.2     1  UNL1        0.0360
     19 CL         24.4210  -22.9540  -17.6970 Cl      1  UNL1       -0.0840
     20  C         24.3710  -22.2330  -15.0940 C.2     1  UNL1        0.0600
     21  S         17.0100  -23.5540   -8.2390 S.O2    1  UNL1        0.2630
     22  O         17.1360  -24.6850   -7.3460 O.2     1  UNL1       -0.2000
     23  O         16.0060  -23.5460   -9.2810 O.2     1  UNL1       -0.2000
     24  N         16.7740  -22.1350   -7.3630 N.pl3   1  UNL1       -0.2800
     25  H         16.0800  -21.5190   -7.7840 H       1  UNL1        0.1790
     26  C         16.8790  -22.1490   -5.9420 C.2     1  UNL1        0.0540
     27  C         15.7560  -22.4410   -5.1430 C.2     1  UNL1       -0.0340
     28  C         15.9080  -22.4900   -3.7480 C.2     1  UNL1        0.0090
     29  C         14.3950  -22.7440   -5.7080 C.3     1  UNL1        0.0500
     30  C         17.1360  -22.2110   -3.1540 C.2     1  UNL1        0.0010
     31  C         18.2270  -21.8660   -3.9480 C.2     1  UNL1        0.0090
     32  C         18.1080  -21.8080   -5.3450 C.2     1  UNL1       -0.0340
     33  C         19.3200  -21.3930   -6.1330 C.3     1  UNL1        0.0500
@<TRIPOS>BOND
     1    19    18    1
     2    18    17    2
     3    18    20    1
     4    17    16    1
     5    20    14    2
     6    16    15    2
     7    14    15    1
     8    14    13    1
     9    13    11    1
    10    10     7    1
    11    11    12    1
    12    11     8    1
    13     7     8   am
    14     7     4    1
    15     5     4    2
    16     5     6    1
    17     8     9    2
    18     4     3    1
    19     6     1    2
    20    23    21    2
    21     3     2    2
    22     1     2    1
    23     1    21    1
    24    21    24    1
    25    21    22    2
    26    25    24    1
    27    24    26    1
    28    33    32    1
    29    26    32    2
    30    26    27    1
    31    29    27    1
    32    32    31    1
    33    27    28    2
    34    31    30    2
    35    28    30    1
