@<TRIPOS>MOLECULE
70827_out_ligand_01.pdbqt
 38 42 0 0 0
SMALL
GASTEIGER

@<TRIPOS>ATOM
      1  N         21.5540  -22.6570  -10.3970 N.am    1  UNL1       -0.3230
      2  C         22.6670  -22.0290   -9.8670 C.2     1  UNL1        0.2560
      3  O         22.8420  -21.7060   -8.6980 O.2     1  UNL1       -0.2670
      4  H         21.6290  -22.9870  -11.3500 H       1  UNL1        0.1690
      5  C         20.3540  -22.9720   -9.7290 C.2     1  UNL1        0.0350
      6  C         19.1110  -22.4200  -10.0540 C.2     1  UNL1        0.0310
      7  C         17.9610  -22.7900   -9.3480 C.2     1  UNL1        0.0270
      8  C         18.0570  -23.7070   -8.3020 C.2     1  UNL1        0.0800
      9  C         19.2860  -24.2890   -7.9850 C.2     1  UNL1        0.0270
     10  C         20.4300  -23.9150   -8.6930 C.2     1  UNL1        0.0310
     11  S         16.5960  -24.1840   -7.4040 S.O2    1  UNL1        0.2630
     12  O         15.5820  -24.5580   -8.3670 O.2     1  UNL1       -0.2000
     13  O         17.0110  -25.1060   -6.3630 O.2     1  UNL1       -0.2000
     14  N         16.1490  -22.7620   -6.6110 N.pl3   1  UNL1       -0.2800
     15  H         15.1390  -22.6400   -6.5790 H       1  UNL1        0.1790
     16  C         16.9260  -22.2800   -5.5210 C.2     1  UNL1        0.0480
     17  C         18.0740  -21.5280   -5.7900 C.2     1  UNL1        0.0300
     18  C         18.8690  -21.0470   -4.7490 C.2     1  UNL1        0.0020
     19  C         18.5110  -21.3070   -3.4300 C.2     1  UNL1        0.0010
     20  C         17.3630  -22.0540   -3.1540 C.2     1  UNL1        0.0090
     21  C         16.5540  -22.5480   -4.1920 C.2     1  UNL1       -0.0350
     22  C         15.3460  -23.3680   -3.8430 C.3     1  UNL1        0.0500
     23  C         23.7660  -21.7840  -10.8410 C.2     1  UNL1        0.0320
     24  C         23.4370  -21.6260  -12.1930 C.2     1  UNL1        0.0170
     25  C         24.4380  -21.4020  -13.1400 C.2     1  UNL1        0.0090
     26  C         25.7840  -21.3390  -12.7460 C.2     1  UNL1       -0.0450
     27  C         26.1070  -21.5110  -11.3900 C.2     1  UNL1        0.0090
     28  C         25.1080  -21.7390  -10.4410 C.2     1  UNL1        0.0170
     29  C         26.8810  -21.1090  -13.7660 C.3     1  UNL1        0.1340
     30  N         26.8970  -22.1740  -14.7670 N.pl3   1  UNL1       -0.2780
     31  C         26.5910  -23.5540  -14.3260 C.3     1  UNL1        0.1010
     32  C         26.1180  -24.3400  -15.5590 C.3     1  UNL1        0.0550
     33  C         25.5810  -23.2250  -16.3870 C.2     1  UNL1       -0.0360
     34  C         24.7730  -23.3050  -17.5090 C.2     1  UNL1        0.0090
     35  C         26.0580  -22.0040  -15.8900 C.2     1  UNL1        0.0170
     36  C         24.4270  -22.1180  -18.1520 C.2     1  UNL1        0.0010
     37  C         24.8980  -20.8870  -17.6720 C.2     1  UNL1        0.0020
     38  C         25.7240  -20.8270  -16.5430 C.2     1  UNL1        0.0240
@<TRIPOS>BOND
     1    36    37    2
     2    36    34    1
     3    37    38    1
     4    34    33    2
     5    38    35    2
     6    33    35    1
     7    33    32    1
     8    35    30    1
     9    32    31    1
    10    30    31    1
    11    30    29    1
    12    29    26    1
    13    25    26    2
    14    25    24    1
    15    26    27    1
    16    24    23    2
    17    27    28    2
    18     4     1    1
    19    23    28    1
    20    23     2    1
    21     1     2   am
    22     1     5    1
    23     6     5    2
    24     6     7    1
    25     2     3    2
    26     5    10    1
    27     7     8    2
    28    10     9    2
    29    12    11    2
    30     8     9    1
    31     8    11    1
    32    11    14    1
    33    11    13    2
    34    14    15    1
    35    14    16    1
    36    17    16    2
    37    17    18    1
    38    16    21    1
    39    18    19    2
    40    21    22    1
    41    21    20    2
    42    19    20    1
