@<TRIPOS>MOLECULE
70824_out_ligand_01.pdbqt
 39 41 0 0 0
SMALL
GASTEIGER

@<TRIPOS>ATOM
      1  N         21.7330  -22.4030  -10.9770 N.am    1  UNL1       -0.3200
      2  C         20.7940  -21.6630  -11.6650 C.2     1  UNL1        0.2560
      3  O         21.0130  -20.8740  -12.5760 O.2     1  UNL1       -0.2670
      4  H         21.4460  -22.8860  -10.1320 H       1  UNL1        0.1690
      5  C         19.3890  -21.8370  -11.1970 C.2     1  UNL1        0.0330
      6  C         18.3020  -21.3480  -11.9270 C.2     1  UNL1        0.0170
      7  C         17.0010  -21.5220  -11.4490 C.2     1  UNL1        0.0090
      8  C         16.7550  -22.1690  -10.2230 C.2     1  UNL1       -0.0390
      9  C         15.3250  -22.3270   -9.7850 C.3     1  UNL1        0.0500
     10  C         17.8570  -22.6460   -9.4870 C.2     1  UNL1        0.0860
     11  C         19.1650  -22.4810   -9.9760 C.2     1  UNL1        0.0420
     12  S         17.6770  -23.5080   -7.9260 S.O2    1  UNL1        0.2630
     13  O         19.0010  -23.8170   -7.4300 O.2     1  UNL1       -0.2000
     14  O         16.7040  -24.5660   -8.0980 O.2     1  UNL1       -0.2000
     15  N         16.9550  -22.3560   -6.9290 N.pl3   1  UNL1       -0.2800
     16  H         16.4960  -21.6130   -7.4500 H       1  UNL1        0.1790
     17  C         17.5120  -22.0600   -5.6500 C.2     1  UNL1        0.0480
     18  C         18.5770  -21.1600   -5.5550 C.2     1  UNL1        0.0300
     19  C         19.1040  -20.8160   -4.3110 C.2     1  UNL1        0.0020
     20  C         18.5760  -21.3790   -3.1540 C.2     1  UNL1        0.0010
     21  C         17.5270  -22.2950   -3.2440 C.2     1  UNL1        0.0090
     22  C         16.9890  -22.6570   -4.4900 C.2     1  UNL1       -0.0350
     23  C         15.8490  -23.6340   -4.5260 C.3     1  UNL1        0.0500
     24  C         23.1230  -22.4800  -11.2170 C.2     1  UNL1        0.0700
     25  C         23.6830  -23.2570  -12.2290 C.2     1  UNL1        0.0570
     26  C         25.0690  -23.2610  -12.4080 C.2     1  UNL1        0.0810
     27  C         25.9040  -22.5120  -11.5790 C.2     1  UNL1        0.0280
     28  C         25.3480  -21.7480  -10.5510 C.2     1  UNL1        0.0400
     29  C         23.9620  -21.7260  -10.3630 C.2     1  UNL1        0.0950
     30  S         25.7590  -24.2260  -13.7270 S.O2    1  UNL1        0.2590
     31  O         24.7610  -25.1930  -14.1260 O.2     1  UNL1       -0.2010
     32  O         27.0990  -24.6220  -13.3490 O.2     1  UNL1       -0.2010
     33  N         25.8840  -23.1140  -14.9620 N.3     1  UNL1       -0.3110
     34  H         26.8090  -22.7240  -15.1350 H       1  UNL1        0.1720
     35  C         24.7080  -22.6280  -15.6780 C.3     1  UNL1        0.0850
     36  C         24.7870  -21.1100  -15.7850 C.3     1  UNL1        0.0320
     37  C         24.6770  -23.2740  -17.0580 C.3     1  UNL1        0.0320
     38  O         23.3110  -21.0080   -9.3840 O.2     1  UNL1       -0.3540
     39  C         22.6890  -21.7520   -8.3430 C.3     1  UNL1        0.2100
@<TRIPOS>BOND
     1    37    35    1
     2    36    35    1
     3    35    33    1
     4    34    33    1
     5    33    30    1
     6    31    30    2
     7    30    32    2
     8    30    26    1
     9     3     2    2
    10    26    25    1
    11    26    27    2
    12    25    24    2
    13     6     7    1
    14     6     5    2
    15     2     5    1
    16     2     1   am
    17    27    28    1
    18     7     8    2
    19    24     1    1
    20    24    29    1
    21     5    11    1
    22     1     4    1
    23    28    29    2
    24    29    38    1
    25     8     9    1
    26     8    10    1
    27    11    10    2
    28    10    12    1
    29    38    39    1
    30    14    12    2
    31    12    13    2
    32    12    15    1
    33    16    15    1
    34    15    17    1
    35    17    18    2
    36    17    22    1
    37    18    19    1
    38    23    22    1
    39    22    21    2
    40    19    20    2
    41    21    20    1
