@<TRIPOS>MOLECULE
70833_out_ligand_01.pdbqt
 31 34 0 0 0
SMALL
GASTEIGER

@<TRIPOS>ATOM
      1  C         22.2400  -22.6090  -10.0270 C.2     1  UNL1        0.0320
      2  C         21.8530  -23.6150   -9.1340 C.2     1  UNL1        0.0170
      3  C         20.4970  -23.8950   -8.9380 C.2     1  UNL1        0.0100
      4  C         19.5130  -23.1750   -9.6310 C.2     1  UNL1       -0.0300
      5  C         19.9090  -22.1660  -10.5220 C.2     1  UNL1        0.0100
      6  C         21.2630  -21.8790  -10.7130 C.2     1  UNL1        0.0170
      7  C         23.6700  -22.2610  -10.2520 C.2     1  UNL1        0.2520
      8  N         24.4890  -23.2950  -10.6530 N.am    1  UNL1       -0.3490
      9  H         24.0770  -24.1690  -10.9470 H       1  UNL1        0.1630
     10  O         24.0540  -21.1060  -10.1090 O.2     1  UNL1       -0.2680
     11  C         25.8850  -23.0670  -11.0000 C.3     1  UNL1        0.1140
     12  C         26.7900  -24.1560  -10.4020 C.3     1  UNL1        0.0370
     13  C         26.0030  -22.9260  -12.5170 C.2     1  UNL1       -0.0300
     14  C         25.6120  -23.9800  -13.3660 C.2     1  UNL1        0.0100
     15  C         25.6990  -23.8670  -14.7590 C.2     1  UNL1        0.0070
     16  C         26.1820  -22.6940  -15.3400 C.2     1  UNL1       -0.0610
     17  C         26.2650  -22.5570  -16.8330 C.3     1  UNL1        0.0480
     18  C         26.5320  -21.6220  -14.5110 C.2     1  UNL1        0.0140
     19  C         26.4400  -21.7170  -13.1080 C.2     1  UNL1       -0.0530
     20  C         26.8380  -20.5170  -12.2810 C.3     1  UNL1        0.0490
     21  C         18.0420  -23.4570   -9.4010 C.3     1  UNL1        0.3110
     22  N         17.6590  -23.4790   -7.9830 N.3     1  UNL1        0.0970
     23  C         16.2730  -23.9540   -7.8290 C.3     1  UNL1        0.2770
     24  C         15.5000  -23.5120   -6.5560 C.3     1  UNL1        0.0690
     25  C         16.3770  -22.9500   -5.4730 C.2     1  UNL1       -0.0490
     26  C         16.0110  -23.0130   -4.1270 C.2     1  UNL1        0.0070
     27  C         17.5540  -22.2850   -5.8470 C.2     1  UNL1       -0.0240
     28  C         16.8200  -22.4240   -3.1530 C.2     1  UNL1        0.0010
     29  C         17.9940  -21.7680   -3.5200 C.2     1  UNL1        0.0010
     30  C         18.3600  -21.6940   -4.8640 C.2     1  UNL1        0.0090
     31  C         17.8880  -22.1910   -7.3200 C.3     1  UNL1        0.3110
@<TRIPOS>BOND
     1    17    16    1
     2    16    15    2
     3    16    18    1
     4    15    14    1
     5    18    19    2
     6    14    13    2
     7    19    13    1
     8    19    20    1
     9    13    11    1
    10    11     8    1
    11    11    12    1
    12     9     8    1
    13     6     5    1
    14     6     1    2
    15     8     7   am
    16     5     4    2
    17     7    10    2
    18     7     1    1
    19     1     2    1
    20     4    21    1
    21     4     3    1
    22    21    22    1
    23     2     3    2
    24    22    23    1
    25    22    31    1
    26    23    24    1
    27    31    27    1
    28    24    25    1
    29    27    25    2
    30    27    30    1
    31    25    26    1
    32    30    29    2
    33    26    28    2
    34    29    28    1
