@<TRIPOS>MOLECULE
70835_out_ligand_01.pdbqt
 41 44 0 0 0
SMALL
GASTEIGER

@<TRIPOS>ATOM
      1  C         19.9500  -22.7950   -7.5090 C.2     1  UNL1        0.2560
      2  O         19.4010  -23.7020   -8.1200 O.2     1  UNL1       -0.2670
      3  N         21.1370  -22.1620   -7.8320 N.am    1  UNL1       -0.3230
      4  H         21.5350  -21.5490   -7.1310 H       1  UNL1        0.1690
      5  C         21.8930  -22.3150   -9.0120 C.2     1  UNL1        0.0350
      6  C         21.3980  -22.0590  -10.2940 C.2     1  UNL1        0.0310
      7  C         22.2240  -22.1870  -11.4150 C.2     1  UNL1        0.0270
      8  C         23.5530  -22.5860  -11.2540 C.2     1  UNL1        0.0750
      9  C         24.0610  -22.8490   -9.9820 C.2     1  UNL1        0.0270
     10  C         23.2290  -22.7130   -8.8680 C.2     1  UNL1        0.0310
     11  S         24.6190  -22.6680  -12.6730 S.O2    1  UNL1        0.2480
     12  O         24.5550  -23.9990  -13.2360 O.2     1  UNL1       -0.2050
     13  O         25.8920  -22.1150  -12.2570 O.2     1  UNL1       -0.2050
     14  N         23.9630  -21.5640  -13.7270 N.pl3   1  UNL1       -0.1480
     15  H         23.8890  -20.6350  -13.3280 H       1  UNL1        0.1490
     16  C         24.4950  -21.5500  -15.0090 C.cat   1  UNL1        0.2160
     17  N         24.0820  -22.4570  -15.8950 N.2     1  UNL1       -0.2230
     18  C         24.5800  -22.3280  -17.1400 C.2     1  UNL1        0.0360
     19  C         24.1830  -23.3610  -18.1530 C.3     1  UNL1        0.0700
     20  C         25.4450  -21.3090  -17.4890 C.2     1  UNL1        0.0530
     21  C         25.7630  -20.3960  -16.4980 C.2     1  UNL1        0.0360
     22  C         26.6830  -19.2500  -16.7920 C.3     1  UNL1        0.0700
     23  N         25.2760  -20.4940  -15.2470 N.2     1  UNL1       -0.2230
     24  C         19.3230  -22.3080   -6.2530 C.2     1  UNL1        0.0340
     25  C         19.6090  -21.0160   -5.8020 C.2     1  UNL1        0.0170
     26  C         18.9910  -20.5280   -4.6500 C.2     1  UNL1        0.0030
     27  C         18.0970  -21.3360   -3.9450 C.2     1  UNL1        0.0300
     28  C         17.8470  -22.6390   -4.3730 C.2     1  UNL1        0.0430
     29  C         18.4600  -23.1340   -5.5230 C.2     1  UNL1        0.0470
     30  N         16.8820  -23.4430   -3.7070 N.pl3   1  UNL1       -0.2810
     31  H         17.1650  -24.3710   -3.3920 H       1  UNL1        0.1790
     32  S         15.2930  -23.4400   -4.2950 S.O2    1  UNL1        0.2630
     33  O         14.6370  -22.2160   -3.8900 O.2     1  UNL1       -0.2000
     34  O         14.7430  -24.7380   -3.9680 O.2     1  UNL1       -0.2000
     35  C         15.5230  -23.3870   -6.0600 C.2     1  UNL1        0.0790
     36  C         15.6550  -24.5810   -6.7760 C.2     1  UNL1        0.0260
     37  C         15.8610  -24.5340   -8.1570 C.2     1  UNL1        0.0080
     38  C         15.9390  -23.3040   -8.8240 C.2     1  UNL1       -0.0620
     39  C         16.1040  -23.2510  -10.3140 C.3     1  UNL1        0.0480
     40  C         15.7760  -22.1160   -8.0990 C.2     1  UNL1        0.0080
     41  C         15.5650  -22.1550   -6.7170 C.2     1  UNL1        0.0260
@<TRIPOS>BOND
     1    19    18    1
     2    20    18    2
     3    20    21    1
     4    18    17    1
     5    22    21    1
     6    21    23    2
     7    17    16    2
     8    23    16    1
     9    16    14    1
    10    14    15    1
    11    14    11    1
    12    12    11    2
    13    11    13    2
    14    11     8    1
    15     7     8    2
    16     7     6    1
    17     8     9    1
    18    39    38    1
    19     6     5    2
    20     9    10    2
    21     5    10    1
    22     5     3    1
    23    38    37    2
    24    38    40    1
    25    37    36    1
    26     2     1    2
    27    40    41    2
    28     3     1   am
    29     3     4    1
    30     1    24    1
    31    36    35    2
    32    41    35    1
    33    24    25    2
    34    24    29    1
    35    35    32    1
    36    25    26    1
    37    29    28    2
    38    26    27    2
    39    28    27    1
    40    28    30    1
    41    32    34    2
    42    32    33    2
    43    32    30    1
    44    30    31    1
