@<TRIPOS>MOLECULE
70831_out_ligand_01.pdbqt
 35 38 0 0 0
SMALL
GASTEIGER

@<TRIPOS>ATOM
      1  O         19.0120  -21.1450   -5.9230 O.2     1  UNL1       -0.2670
      2  C         18.6150  -22.2490   -6.2670 C.2     1  UNL1        0.2560
      3  N         19.2980  -23.2090   -6.9860 N.am    1  UNL1       -0.3230
      4  H         18.8420  -24.1080   -7.0850 H       1  UNL1        0.1690
      5  C         20.5180  -23.0500   -7.6720 C.2     1  UNL1        0.0350
      6  C         20.9180  -24.0970   -8.5140 C.2     1  UNL1        0.0310
      7  C         22.0660  -23.9790   -9.3020 C.2     1  UNL1        0.0270
      8  C         22.8170  -22.8040   -9.2480 C.2     1  UNL1        0.0750
      9  C         22.4560  -21.7730   -8.3810 C.2     1  UNL1        0.0270
     10  C         21.3030  -21.8960   -7.6000 C.2     1  UNL1        0.0310
     11  S         24.2480  -22.6360  -10.2850 S.O2    1  UNL1        0.2480
     12  O         24.6350  -21.2430  -10.3550 O.2     1  UNL1       -0.2050
     13  O         25.2000  -23.6330   -9.8330 O.2     1  UNL1       -0.2050
     14  N         23.7200  -23.1550  -11.7740 N.pl3   1  UNL1       -0.1480
     15  H         23.9040  -24.1370  -11.9470 H       1  UNL1        0.1490
     16  C         24.0030  -22.3470  -12.8680 C.cat   1  UNL1        0.2150
     17  N         23.0790  -21.4830  -13.2920 N.2     1  UNL1       -0.2300
     18  C         23.3520  -20.8540  -14.4480 C.2     1  UNL1        0.1210
     19  C         24.4790  -21.1030  -15.1950 C.2     1  UNL1        0.0390
     20  C         25.3270  -22.0600  -14.6860 C.2     1  UNL1        0.1210
     21  N         25.1010  -22.7170  -13.5330 N.2     1  UNL1       -0.2300
     22  C         17.2400  -22.6500   -5.8760 C.2     1  UNL1        0.0380
     23  C         16.7830  -22.1830   -4.6360 C.2     1  UNL1        0.0170
     24  C         15.5050  -22.5100   -4.1920 C.2     1  UNL1        0.0010
     25  C         14.6760  -23.2940   -4.9900 C.2     1  UNL1        0.0010
     26  C         15.1180  -23.7450   -6.2360 C.2     1  UNL1        0.0080
     27  C         16.4060  -23.4270   -6.7070 C.2     1  UNL1       -0.0420
     28  C         16.8070  -23.9080   -8.0850 C.3     1  UNL1        0.0440
     29  C         16.0700  -23.1970   -9.2280 C.3     1  UNL1        0.0430
     30  C         17.0410  -22.4610  -10.1210 C.2     1  UNL1       -0.0580
     31  C         18.3140  -22.9850  -10.3770 C.2     1  UNL1        0.0070
     32  C         19.2210  -22.2800  -11.1710 C.2     1  UNL1        0.0010
     33  C         18.8660  -21.0440  -11.7090 C.2     1  UNL1        0.0000
     34  C         17.6030  -20.5120  -11.4570 C.2     1  UNL1        0.0010
     35  C         16.6920  -21.2190  -10.6710 C.2     1  UNL1        0.0070
@<TRIPOS>BOND
     1    19    20    1
     2    19    18    2
     3    20    21    2
     4    18    17    1
     5    21    16    1
     6    17    16    2
     7    16    14    1
     8    15    14    1
     9    14    11    1
    10    33    34    2
    11    33    32    1
    12    34    35    1
    13    32    31    2
    14    35    30    2
    15    31    30    1
    16    12    11    2
    17    11    13    2
    18    11     8    1
    19    30    29    1
    20     7     8    2
    21     7     6    1
    22     8     9    1
    23    29    28    1
    24     6     5    2
    25     9    10    2
    26    28    27    1
    27     5    10    1
    28     5     3    1
    29     4     3    1
    30     3     2   am
    31    27    26    1
    32    27    22    2
    33     2     1    2
    34     2    22    1
    35    26    25    2
    36    22    23    1
    37    25    24    1
    38    23    24    2
