@<TRIPOS>MOLECULE
70832_out_ligand_01.pdbqt
 33 35 0 0 0
SMALL
GASTEIGER

@<TRIPOS>ATOM
      1  C         17.5240  -23.4180   -8.8450 C.2     1  UNL1        0.0970
      2  C         18.9200  -23.5930   -8.8610 C.2     1  UNL1        0.0430
      3  C         19.6970  -22.9900   -9.8610 C.2     1  UNL1        0.0330
      4  C         19.0650  -22.2490  -10.8640 C.2     1  UNL1        0.0190
      5  C         17.6770  -22.0750  -10.8400 C.2     1  UNL1        0.0260
      6  C         16.9000  -22.6510   -9.8280 C.2     1  UNL1        0.0570
      7 CL         15.2050  -22.3300   -9.8910 Cl      1  UNL1       -0.0830
      8  C         21.1740  -23.1940   -9.8260 C.2     1  UNL1        0.2520
      9  O         21.6630  -23.9630   -9.0070 O.2     1  UNL1       -0.2680
     10  N         21.9150  -22.4780  -10.7390 N.am    1  UNL1       -0.3490
     11  H         21.4810  -21.8000  -11.3400 H       1  UNL1        0.1630
     12  C         23.3600  -22.6160  -10.8550 C.3     1  UNL1        0.1140
     13  C         24.0590  -21.7550   -9.7960 C.3     1  UNL1        0.0370
     14  C         23.7520  -22.3120  -12.2950 C.2     1  UNL1       -0.0300
     15  C         22.9160  -21.5360  -13.1160 C.2     1  UNL1        0.0100
     16  C         23.2230  -21.3090  -14.4630 C.2     1  UNL1        0.0070
     17  C         24.3740  -21.8630  -15.0270 C.2     1  UNL1       -0.0610
     18  C         24.6980  -21.6680  -16.4790 C.3     1  UNL1        0.0480
     19  C         25.2150  -22.6410  -14.2230 C.2     1  UNL1        0.0140
     20  C         24.9190  -22.8770  -12.8650 C.2     1  UNL1       -0.0530
     21  C         25.8550  -23.7480  -12.0670 C.3     1  UNL1        0.0490
     22  S         16.5970  -24.2230   -7.5630 S.O2    1  UNL1        0.2470
     23  O         15.5500  -24.9840   -8.2020 O.2     1  UNL1       -0.2050
     24  O         17.5430  -24.8460   -6.6620 O.2     1  UNL1       -0.2050
     25  N         15.9670  -22.8970   -6.6920 N.pl3   1  UNL1       -0.1810
     26  H         15.7830  -22.1580   -7.3740 H       1  UNL1        0.1460
     27  C         16.8470  -22.4100   -5.6630 C.2     1  UNL1        0.0230
     28  C         16.5620  -22.6610   -4.3210 C.2     1  UNL1        0.0240
     29  C         17.4070  -22.1620   -3.3280 C.2     1  UNL1        0.0020
     30  C         18.5260  -21.4010   -3.6750 C.2     1  UNL1        0.0070
     31  C         18.8060  -21.1290   -5.0200 C.2     1  UNL1       -0.0600
     32  C         20.0110  -20.3020   -5.3780 C.3     1  UNL1        0.0480
     33  C         17.9560  -21.6370   -6.0120 C.2     1  UNL1        0.0310
@<TRIPOS>BOND
     1    18    17    1
     2    17    16    2
     3    17    19    1
     4    16    15    1
     5    19    20    2
     6    15    14    2
     7    20    14    1
     8    20    21    1
     9    14    12    1
    10    11    10    1
    11     4     5    2
    12     4     3    1
    13    12    10    1
    14    12    13    1
    15     5     6    1
    16    10     8   am
    17     7     6    1
    18     3     8    1
    19     3     2    2
    20     6     1    2
    21     8     9    2
    22     2     1    1
    23     1    22    1
    24    23    22    2
    25    22    25    1
    26    22    24    2
    27    26    25    1
    28    25    27    1
    29    33    27    2
    30    33    31    1
    31    27    28    1
    32    32    31    1
    33    31    30    2
    34    28    29    2
    35    30    29    1
