@<TRIPOS>MOLECULE
70841_out_ligand_01.pdbqt
 31 34 0 0 0
SMALL
GASTEIGER

@<TRIPOS>ATOM
      1  C         22.5510  -22.5820  -10.2890 C.2     1  UNL1        0.0320
      2  C         21.4920  -21.7510  -10.6700 C.2     1  UNL1        0.0170
      3  C         20.1980  -21.9990  -10.2050 C.2     1  UNL1        0.0100
      4  C         19.9430  -23.0810   -9.3510 C.2     1  UNL1       -0.0400
      5  C         21.0160  -23.8940   -8.9510 C.2     1  UNL1        0.0100
      6  C         22.3110  -23.6490   -9.4170 C.2     1  UNL1        0.0170
      7  C         23.9130  -22.2740  -10.8070 C.2     1  UNL1        0.2520
      8  N         24.3950  -23.1050  -11.7940 N.am    1  UNL1       -0.3490
      9  H         23.7600  -23.7440  -12.2540 H       1  UNL1        0.1630
     10  O         24.5300  -21.3060  -10.3760 O.2     1  UNL1       -0.2680
     11  C         25.6810  -22.8740  -12.4330 C.3     1  UNL1        0.1140
     12  C         26.5260  -24.1530  -12.4640 C.3     1  UNL1        0.0370
     13  C         25.4540  -22.2820  -13.8200 C.2     1  UNL1       -0.0290
     14  C         25.7000  -20.9180  -14.0970 C.2     1  UNL1       -0.0540
     15  C         25.4520  -20.4220  -15.3870 C.2     1  UNL1        0.0080
     16  C         26.2280  -19.9700  -13.0530 C.3     1  UNL1        0.0490
     17  C         24.9560  -21.2490  -16.3950 C.2     1  UNL1        0.0070
     18  C         24.6980  -22.5940  -16.1370 C.2     1  UNL1       -0.0610
     19  C         24.1190  -23.4750  -17.2050 C.3     1  UNL1        0.0480
     20  C         24.9320  -23.0950  -14.8510 C.2     1  UNL1        0.0160
     21  C         18.5440  -23.3250   -8.8190 C.3     1  UNL1        0.1610
     22  N         18.5750  -23.7790   -7.4160 N.pl3   1  UNL1       -0.3760
     23  C         17.7100  -24.9230   -7.0900 C.3     1  UNL1        0.1230
     24  C         16.3400  -24.4610   -6.6180 C.3     1  UNL1        0.0240
     25  C         16.5020  -23.6590   -5.3360 C.3     1  UNL1        0.0420
     26  C         17.6090  -22.6430   -5.4510 C.2     1  UNL1       -0.0320
     27  C         17.6690  -21.6030   -4.5070 C.2     1  UNL1        0.0090
     28  C         18.5870  -22.7420   -6.4630 C.2     1  UNL1        0.0360
     29  C         18.6860  -20.6530   -4.5600 C.2     1  UNL1        0.0010
     30  C         19.6600  -20.7420   -5.5480 C.2     1  UNL1        0.0020
     31  C         19.6110  -21.7790   -6.4820 C.2     1  UNL1        0.0300
@<TRIPOS>BOND
     1    19    18    1
     2    17    18    2
     3    17    15    1
     4    18    20    1
     5    15    14    2
     6    20    13    2
     7    14    13    1
     8    14    16    1
     9    13    11    1
    10    12    11    1
    11    11     8    1
    12     9     8    1
    13     8     7   am
    14     7    10    2
    15     7     1    1
    16     2     1    2
    17     2     3    1
    18     1     6    1
    19     3     4    2
    20     6     5    2
    21     4     5    1
    22     4    21    1
    23    21    22    1
    24    22    23    1
    25    22    28    1
    26    23    24    1
    27    24    25    1
    28    31    28    1
    29    31    30    2
    30    28    26    2
    31    30    29    1
    32    26    25    1
    33    26    27    1
    34    29    27    2
