@<TRIPOS>MOLECULE
70842_out_ligand_01.pdbqt
 40 43 0 0 0
SMALL
GASTEIGER

@<TRIPOS>ATOM
      1  C         19.2890  -22.8420  -10.2910 C.2     1  UNL1        0.0330
      2  C         18.6540  -22.0570  -11.2550 C.2     1  UNL1        0.0170
      3  C         17.2790  -21.8200  -11.1610 C.2     1  UNL1        0.0090
      4  C         16.5140  -22.3380  -10.0980 C.2     1  UNL1       -0.0390
      5  C         15.0390  -22.0480  -10.0870 C.3     1  UNL1        0.0500
      6  C         17.1720  -23.1050   -9.1180 C.2     1  UNL1        0.0860
      7  C         18.5500  -23.3570   -9.2230 C.2     1  UNL1        0.0420
      8  C         20.7480  -23.1260  -10.3390 C.2     1  UNL1        0.2560
      9  N         21.4940  -22.2270  -11.0690 N.am    1  UNL1       -0.3200
     10  H         21.0240  -21.4420  -11.5070 H       1  UNL1        0.1690
     11  O         21.1600  -24.1190   -9.7480 O.2     1  UNL1       -0.2670
     12  C         22.8830  -22.2560  -11.3240 C.2     1  UNL1        0.0700
     13  C         23.4470  -22.8940  -12.4300 C.2     1  UNL1        0.0570
     14  C         24.8350  -22.9160  -12.5870 C.2     1  UNL1        0.0820
     15  C         25.6620  -22.2580  -11.6730 C.2     1  UNL1        0.0280
     16  C         25.1010  -21.5900  -10.5820 C.2     1  UNL1        0.0400
     17  C         23.7150  -21.5840  -10.4010 C.2     1  UNL1        0.0950
     18  S         25.5520  -23.7240  -14.0070 S.O2    1  UNL1        0.2600
     19  O         26.9770  -23.4730  -13.9800 O.2     1  UNL1       -0.2000
     20  O         25.0320  -25.0770  -14.0310 O.2     1  UNL1       -0.2000
     21  N         24.8840  -22.9100  -15.3220 N.3     1  UNL1       -0.3070
     22  C         24.4630  -23.6570  -16.5240 C.3     1  UNL1        0.1350
     23  C         25.0130  -22.8460  -17.6890 C.3     1  UNL1        0.0220
     24  C         24.9840  -21.4250  -17.1590 C.3     1  UNL1        0.0220
     25  C         25.4400  -21.6000  -15.7140 C.3     1  UNL1        0.1350
     26  O         23.0620  -20.9730   -9.3540 O.2     1  UNL1       -0.3540
     27  C         22.9200  -21.7270   -8.1580 C.3     1  UNL1        0.2100
     28  S         16.3480  -23.8350   -7.7050 S.O2    1  UNL1        0.2630
     29  O         15.9450  -25.1720   -8.0930 O.2     1  UNL1       -0.2000
     30  O         15.3700  -22.9090   -7.1770 O.2     1  UNL1       -0.2000
     31  N         17.6040  -24.0270   -6.6170 N.pl3   1  UNL1       -0.2800
     32  H         18.1890  -24.8560   -6.7100 H       1  UNL1        0.1790
     33  C         17.8280  -23.1020   -5.5680 C.2     1  UNL1        0.0490
     34  C         17.2130  -23.3430   -4.3370 C.2     1  UNL1        0.0310
     35  C         17.4070  -22.4690   -3.2720 C.2     1  UNL1        0.0030
     36  C         18.2220  -21.3510   -3.4370 C.2     1  UNL1        0.0070
     37  C         18.8660  -21.1030   -4.6610 C.2     1  UNL1       -0.0540
     38  C         19.7230  -19.8710   -4.7920 C.3     1  UNL1        0.0490
     39  C         18.6880  -22.0010   -5.7420 C.2     1  UNL1       -0.0290
     40  C         19.3870  -21.7400   -7.0500 C.3     1  UNL1        0.0510
@<TRIPOS>BOND
     1    23    24    1
     2    23    22    1
     3    24    25    1
     4    22    21    1
     5    25    21    1
     6    21    18    1
     7    20    18    2
     8    18    19    2
     9    18    14    1
    10    14    13    1
    11    14    15    2
    12    13    12    2
    13    15    16    1
    14    10     9    1
    15    12     9    1
    16    12    17    1
    17     2     3    1
    18     2     1    2
    19     3     4    2
    20     9     8   am
    21    16    17    2
    22    17    26    1
    23     8     1    1
    24     8    11    2
    25     1     7    1
    26     4     5    1
    27     4     6    1
    28    26    27    1
    29     7     6    2
    30     6    28    1
    31    29    28    2
    32    28    30    2
    33    28    31    1
    34    40    39    1
    35    32    31    1
    36    31    33    1
    37    39    33    2
    38    39    37    1
    39    33    34    1
    40    38    37    1
    41    37    36    2
    42    34    35    2
    43    36    35    1
