@<TRIPOS>MOLECULE
70864_out_ligand_01.pdbqt
 37 40 0 0 0
SMALL
GASTEIGER

@<TRIPOS>ATOM
      1  C         18.9070  -23.3560   -9.0310 C.2     1  UNL1        0.0800
      2  C         19.7760  -24.2950   -8.4730 C.2     1  UNL1        0.0270
      3  C         21.1050  -24.3430   -8.9010 C.2     1  UNL1        0.0310
      4  C         21.5730  -23.4580   -9.8840 C.2     1  UNL1        0.0340
      5  C         20.6840  -22.5400  -10.4510 C.2     1  UNL1        0.0310
      6  C         19.3490  -22.4910  -10.0340 C.2     1  UNL1        0.0270
      7  N         22.9310  -23.5580  -10.2370 N.am    1  UNL1       -0.3250
      8  C         23.5850  -22.9410  -11.2930 C.2     1  UNL1        0.2530
      9  O         23.0670  -22.2180  -12.1390 O.2     1  UNL1       -0.2700
     10  H         23.5300  -24.0690   -9.5980 H       1  UNL1        0.1690
     11  C         25.0830  -23.3060  -11.3460 C.3     1  UNL1        0.2400
     12  C         25.5260  -23.7520  -12.7350 C.3     1  UNL1        0.1840
     13  N         25.6640  -22.5950  -13.6620 N.pl3   1  UNL1       -0.2700
     14  C         25.9680  -21.3100  -13.0660 C.2     1  UNL1        0.0780
     15  C         26.2010  -20.1430  -13.7970 C.2     1  UNL1        0.0330
     16  C         26.1410  -21.2410  -11.6680 C.2     1  UNL1        0.0970
     17  C         26.5950  -18.9550  -13.1650 C.2     1  UNL1        0.0020
     18  C         26.7750  -18.9130  -11.7870 C.2     1  UNL1        0.0030
     19  C         26.5500  -20.0600  -11.0370 C.2     1  UNL1        0.0390
     20  O         25.9360  -22.2950  -10.8080 O.2     1  UNL1       -0.3320
     21  S         25.1730  -22.8450  -15.2620 S.O2    1  UNL1        0.2290
     22  C         25.0620  -24.6200  -15.3350 C.3     1  UNL1        0.1860
     23  O         26.2650  -22.4460  -16.1290 O.2     1  UNL1       -0.2060
     24  O         23.8480  -22.3120  -15.4910 O.2     1  UNL1       -0.2060
     25  S         17.2140  -23.2970   -8.5040 S.O2    1  UNL1        0.2630
     26  O         16.4110  -23.0150   -9.6760 O.2     1  UNL1       -0.2000
     27  O         16.9520  -24.4650   -7.6920 O.2     1  UNL1       -0.2000
     28  N         17.1580  -21.9010   -7.5620 N.pl3   1  UNL1       -0.2800
     29  H         16.5960  -21.1630   -7.9820 H       1  UNL1        0.1790
     30  C         17.1680  -22.0000   -6.1400 C.2     1  UNL1        0.0540
     31  C         15.9790  -22.2610   -5.4310 C.2     1  UNL1       -0.0340
     32  C         16.0350  -22.3880   -4.0330 C.2     1  UNL1        0.0090
     33  C         14.6450  -22.4530   -6.0980 C.3     1  UNL1        0.0500
     34  C         17.2350  -22.2150   -3.3470 C.2     1  UNL1        0.0010
     35  C         18.3940  -21.8980   -4.0500 C.2     1  UNL1        0.0090
     36  C         18.3730  -21.7640   -5.4480 C.2     1  UNL1       -0.0340
     37  C         19.6560  -21.3830   -6.1340 C.3     1  UNL1        0.0500
@<TRIPOS>BOND
     1    23    21    2
     2    24    21    2
     3    22    21    1
     4    21    13    1
     5    15    17    1
     6    15    14    2
     7    13    14    1
     8    13    12    1
     9    17    18    2
    10    14    16    1
    11    12    11    1
    12     9     8    2
    13    18    19    1
    14    16    19    2
    15    16    20    1
    16    11     8    1
    17    11    20    1
    18     8     7   am
    19     5     6    1
    20     5     4    2
    21     7     4    1
    22     7    10    1
    23     6     1    2
    24     4     3    1
    25    26    25    2
    26     1    25    1
    27     1     2    1
    28     3     2    2
    29    25    27    2
    30    25    28    1
    31    29    28    1
    32    28    30    1
    33    30    36    2
    34    30    31    1
    35    37    36    1
    36    33    31    1
    37    36    35    1
    38    31    32    2
    39    35    34    2
    40    32    34    1
