@<TRIPOS>MOLECULE
70865_out_ligand_01.pdbqt
 32 34 0 0 0
SMALL
GASTEIGER

@<TRIPOS>ATOM
      1  C         20.7690  -22.3720  -10.7970 C.2     1  UNL1        0.0530
      2  C         21.1260  -21.6870  -11.9740 C.2     1  UNL1        0.0200
      3  C         22.4220  -21.7740  -12.4880 C.2     1  UNL1        0.0250
      4  C         23.3780  -22.5300  -11.8160 C.2     1  UNL1        0.0240
      5  C         23.0400  -23.2180  -10.6520 C.2     1  UNL1        0.0490
      6  C         21.7430  -23.1320  -10.1310 C.2     1  UNL1        0.0510
      7 CL         21.4520  -23.9650   -8.6440 Cl      1  UNL1       -0.0830
      8  C         19.3580  -22.2110  -10.3490 C.2     1  UNL1        0.2530
      9  N         18.8400  -23.2100   -9.5590 N.am    1  UNL1       -0.3490
     10  H         19.4960  -23.8790   -9.1760 H       1  UNL1        0.1630
     11  O         18.7250  -21.2390  -10.7460 O.2     1  UNL1       -0.2680
     12  C         17.5570  -23.1440   -8.8690 C.3     1  UNL1        0.1140
     13  C         16.4650  -22.3890   -9.6350 C.3     1  UNL1        0.0370
     14  C         17.7440  -22.7070   -7.4210 C.2     1  UNL1       -0.0300
     15  C         18.8460  -21.9060   -7.0690 C.2     1  UNL1        0.0100
     16  C         19.0610  -21.4970   -5.7510 C.2     1  UNL1        0.0070
     17  C         18.1840  -21.8880   -4.7400 C.2     1  UNL1       -0.0610
     18  C         18.4090  -21.4270   -3.3310 C.3     1  UNL1        0.0480
     19  C         17.0890  -22.6920   -5.0700 C.2     1  UNL1        0.0140
     20  C         16.8630  -23.1210   -6.3930 C.2     1  UNL1       -0.0530
     21  C         15.6690  -23.9960   -6.6620 C.3     1  UNL1        0.0490
     22  N         24.6950  -22.6840  -12.3600 N.pl3   1  UNL1       -0.1810
     23  H         25.0670  -23.6150  -12.1550 H       1  UNL1        0.1460
     24  S         25.8240  -21.5620  -11.7340 S.O2    1  UNL1        0.2450
     25  O         25.2080  -20.7780  -10.6860 O.2     1  UNL1       -0.2060
     26  O         27.0510  -22.3020  -11.5230 O.2     1  UNL1       -0.2060
     27  C         26.0440  -20.5020  -13.1410 C.2     1  UNL1        0.0740
     28  C         26.7940  -19.3300  -12.9960 C.2     1  UNL1        0.0250
     29  C         26.9830  -18.4990  -14.1000 C.2     1  UNL1        0.0020
     30  C         26.4320  -18.8410  -15.3350 C.2     1  UNL1        0.0000
     31  C         25.6930  -20.0180  -15.4760 C.2     1  UNL1        0.0020
     32  C         25.4980  -20.8560  -14.3770 C.2     1  UNL1        0.0250
@<TRIPOS>BOND
     1    31    30    2
     2    31    32    1
     3    30    29    1
     4    32    27    2
     5    29    28    2
     6    27    28    1
     7    27    24    1
     8     3     2    1
     9     3     4    2
    10    22    23    1
    11    22     4    1
    12    22    24    1
    13     2     1    2
    14     4     5    1
    15    24    26    2
    16    24    25    2
    17     1     8    1
    18     1     6    1
    19    11     8    2
    20     5     6    2
    21     8     9   am
    22     6     7    1
    23    13    12    1
    24     9    10    1
    25     9    12    1
    26    12    14    1
    27    14    15    2
    28    14    20    1
    29    15    16    1
    30    21    20    1
    31    20    19    2
    32    16    17    2
    33    19    17    1
    34    17    18    1
