@<TRIPOS>MOLECULE
70860_out_ligand_01.pdbqt
 39 44 0 0 0
SMALL
GASTEIGER

@<TRIPOS>ATOM
      1  C         23.7380  -22.7570  -10.7950 C.2     1  UNL1        0.2570
      2  O         24.2860  -23.3380   -9.8640 O.2     1  UNL1       -0.2670
      3  N         22.4120  -22.3820  -10.8700 N.am    1  UNL1       -0.3230
      4  H         22.1070  -21.9350  -11.7270 H       1  UNL1        0.1690
      5  C         24.5610  -22.4800  -12.0040 C.2     1  UNL1        0.0540
      6  C         24.3020  -23.2810  -13.1300 C.2     1  UNL1        0.0200
      7  C         25.0340  -23.1150  -14.3060 C.2     1  UNL1        0.0250
      8  C         26.0280  -22.1420  -14.3720 C.2     1  UNL1        0.0240
      9  C         26.3230  -21.3660  -13.2510 C.2     1  UNL1        0.0490
     10  C         25.5850  -21.5250  -12.0690 C.2     1  UNL1        0.0510
     11 CL         26.0410  -20.5340  -10.7280 Cl      1  UNL1       -0.0830
     12  N         26.8040  -22.0700  -15.5710 N.pl3   1  UNL1       -0.1810
     13  H         27.5660  -21.3950  -15.4730 H       1  UNL1        0.1460
     14  S         25.9660  -21.6350  -16.9890 S.O2    1  UNL1        0.2450
     15  O         26.6210  -22.1940  -18.1520 O.2     1  UNL1       -0.2060
     16  O         24.5690  -21.8890  -16.7010 O.2     1  UNL1       -0.2060
     17  C         26.2260  -19.8820  -17.0000 C.2     1  UNL1        0.0740
     18  C         25.8570  -19.1460  -18.1290 C.2     1  UNL1        0.0250
     19  C         26.0350  -17.7610  -18.1360 C.2     1  UNL1        0.0080
     20  C         26.5720  -17.1080  -17.0170 C.2     1  UNL1       -0.0620
     21  C         26.7790  -15.6230  -17.0430 C.3     1  UNL1        0.0480
     22  C         26.9440  -17.8610  -15.8940 C.2     1  UNL1        0.0080
     23  C         26.7640  -19.2460  -15.8780 C.2     1  UNL1        0.0250
     24  C         21.4250  -22.5160   -9.8710 C.2     1  UNL1        0.0350
     25  C         21.6710  -22.3950   -8.5080 C.2     1  UNL1        0.0300
     26  C         20.6270  -22.5170   -7.5810 C.2     1  UNL1        0.0100
     27  C         19.3040  -22.7750   -7.9810 C.2     1  UNL1       -0.0490
     28  C         19.0730  -22.8980   -9.3580 C.2     1  UNL1        0.0100
     29  C         20.1170  -22.7680  -10.2880 C.2     1  UNL1        0.0300
     30  C         18.1820  -22.8760   -6.9340 C.3     1  UNL1       -0.0120
     31  C         17.9980  -24.3630   -6.5170 C.3     1  UNL1        0.0190
     32  C         16.8530  -24.5190   -5.5010 C.3     1  UNL1       -0.0130
     33  C         15.5440  -24.0060   -6.1280 C.3     1  UNL1        0.0090
     34  C         17.1690  -23.6950   -4.2440 C.3     1  UNL1        0.0090
     35  C         15.6840  -22.5220   -6.5020 C.3     1  UNL1       -0.0130
     36  C         16.0050  -21.7080   -5.2410 C.3     1  UNL1        0.0090
     37  C         16.8300  -22.3600   -7.5180 C.3     1  UNL1        0.0190
     38  C         17.3150  -22.2120   -4.6160 C.3     1  UNL1       -0.0130
     39  C         18.4580  -22.0590   -5.6350 C.3     1  UNL1        0.0190
@<TRIPOS>BOND
     1    15    14    2
     2    19    18    1
     3    19    20    2
     4    18    17    2
     5    21    20    1
     6    20    22    1
     7    17    14    1
     8    17    23    1
     9    14    16    2
    10    14    12    1
    11    22    23    2
    12    12    13    1
    13    12     8    1
    14     8     7    2
    15     8     9    1
    16     7     6    1
    17     9    10    2
    18     6     5    2
    19    10     5    1
    20    10    11    1
    21     5     1    1
    22     4     3    1
    23     3     1   am
    24     3    24    1
    25     1     2    2
    26    29    24    2
    27    29    28    1
    28    24    25    1
    29    28    27    2
    30    25    26    2
    31    27    26    1
    32    27    30    1
    33    37    30    1
    34    37    35    1
    35    30    31    1
    36    30    39    1
    37    31    32    1
    38    35    33    1
    39    35    36    1
    40    33    32    1
    41    39    38    1
    42    32    34    1
    43    36    38    1
    44    38    34    1
