@<TRIPOS>MOLECULE
70893_out_ligand_01.pdbqt
 33 36 0 0 0
SMALL
GASTEIGER

@<TRIPOS>ATOM
      1  C         20.2630  -22.3970  -10.1350 C.2     1  UNL1        0.0250
      2  C         20.3600  -21.6680  -11.3230 C.2     1  UNL1        0.0260
      3  C         21.5640  -21.6540  -12.0330 C.2     1  UNL1        0.0190
      4  C         22.6770  -22.3480  -11.5410 C.2     1  UNL1        0.0320
      5  C         22.5750  -23.0780  -10.3490 C.2     1  UNL1        0.0190
      6  C         21.3670  -23.0970   -9.6460 C.2     1  UNL1        0.0260
      7  C         23.9430  -22.3000  -12.3180 C.2     1  UNL1        0.2520
      8  O         24.8270  -23.1100  -12.0780 O.2     1  UNL1       -0.2680
      9  N         23.9990  -21.3360  -13.3030 N.am    1  UNL1       -0.3480
     10  H         23.1430  -20.8640  -13.5590 H       1  UNL1        0.1630
     11  C         25.1310  -21.1700  -14.2090 C.3     1  UNL1        0.1180
     12  C         25.6610  -19.7280  -14.2010 C.3     1  UNL1        0.0300
     13  C         26.7490  -19.5510  -15.2520 C.3     1  UNL1        0.0070
     14  C         26.1780  -19.8040  -16.6440 C.3     1  UNL1        0.0390
     15  C         25.4240  -21.1070  -16.7410 C.2     1  UNL1       -0.0500
     16  C         25.2100  -21.6700  -18.0100 C.2     1  UNL1        0.0070
     17  C         24.8870  -21.7370  -15.5990 C.2     1  UNL1       -0.0290
     18  C         24.5040  -22.8620  -18.1510 C.2     1  UNL1        0.0010
     19  C         23.9990  -23.5050  -17.0260 C.2     1  UNL1        0.0010
     20  C         24.1930  -22.9500  -15.7610 C.2     1  UNL1        0.0100
     21  N         19.0470  -22.4220   -9.3660 N.pl3   1  UNL1       -0.1720
     22  C         19.0590  -23.3620   -8.2060 C.3     1  UNL1        0.1520
     23  C         18.8270  -22.6800   -6.8720 C.2     1  UNL1       -0.0380
     24  C         19.5650  -21.5170   -6.5770 C.2     1  UNL1        0.0090
     25  C         19.4010  -20.8490   -5.3650 C.2     1  UNL1        0.0010
     26  C         18.5040  -21.3380   -4.4230 C.2     1  UNL1        0.0010
     27  C         17.7760  -22.4960   -4.6900 C.2     1  UNL1        0.0070
     28  C         17.9290  -23.1830   -5.9070 C.2     1  UNL1       -0.0540
     29  C         17.1180  -24.4300   -6.1400 C.3     1  UNL1        0.0490
     30  S         17.6360  -22.4330  -10.3340 S.O2    1  UNL1        0.2120
     31  C         16.3370  -22.5390   -9.1220 C.3     1  UNL1        0.1800
     32  O         17.6310  -23.6450  -11.1290 O.2     1  UNL1       -0.2110
     33  O         17.4960  -21.1350  -10.9630 O.2     1  UNL1       -0.2110
@<TRIPOS>BOND
     1    18    16    1
     2    18    19    2
     3    16    15    2
     4    19    20    1
     5    15    14    1
     6    15    17    1
     7    14    13    1
     8    20    17    2
     9    17    11    1
    10    13    12    1
    11    11    12    1
    12    11     9    1
    13    10     9    1
    14     9     7   am
    15     7     8    2
    16     7     4    1
    17     3     4    2
    18     3     2    1
    19     4     5    1
    20     2     1    2
    21    32    30    2
    22    33    30    2
    23     5     6    2
    24    30    21    1
    25    30    31    1
    26     1     6    1
    27     1    21    1
    28    21    22    1
    29    22    23    1
    30    23    24    2
    31    23    28    1
    32    24    25    1
    33    29    28    1
    34    28    27    2
    35    25    26    2
    36    27    26    1
