@<TRIPOS>MOLECULE
70899_out_ligand_01.pdbqt
 41 44 0 0 0
SMALL
GASTEIGER

@<TRIPOS>ATOM
      1  C         20.4880  -21.9660  -10.4670 C.2     1  UNL1        0.2560
      2  O         21.2240  -21.8930   -9.4920 O.2     1  UNL1       -0.2670
      3  N         20.8740  -21.9720  -11.7950 N.am    1  UNL1       -0.3230
      4  H         20.1610  -22.1780  -12.4820 H       1  UNL1        0.1690
      5  C         19.0220  -22.1170  -10.2340 C.2     1  UNL1        0.0330
      6  C         18.5920  -22.9330   -9.1820 C.2     1  UNL1        0.0420
      7  C         17.2210  -23.1200   -8.9340 C.2     1  UNL1        0.0860
      8  C         16.2590  -22.4700   -9.7330 C.2     1  UNL1       -0.0390
      9  C         16.7120  -21.6280  -10.7660 C.2     1  UNL1        0.0090
     10  C         14.7740  -22.5890   -9.5270 C.3     1  UNL1        0.0500
     11  C         18.0760  -21.4500  -11.0170 C.2     1  UNL1        0.0170
     12  S         16.8010  -24.1800   -7.5540 S.O2    1  UNL1        0.2630
     13  O         17.9960  -24.7820   -7.0090 O.2     1  UNL1       -0.2000
     14  O         15.6960  -25.0150   -7.9770 O.2     1  UNL1       -0.2000
     15  N         16.1480  -23.0900   -6.4610 N.pl3   1  UNL1       -0.2800
     16  H         15.1430  -23.1640   -6.3170 H       1  UNL1        0.1790
     17  C         16.9440  -22.4650   -5.4680 C.2     1  UNL1        0.0490
     18  C         16.7170  -22.7450   -4.1130 C.2     1  UNL1       -0.0350
     19  C         17.5370  -22.1310   -3.1550 C.2     1  UNL1        0.0090
     20  C         15.5890  -23.6250   -3.6570 C.3     1  UNL1        0.0500
     21  C         18.5920  -21.3000   -3.5410 C.2     1  UNL1        0.0070
     22  C         18.8560  -21.0760   -4.8940 C.2     1  UNL1       -0.0600
     23  C         19.9770  -20.1720   -5.3160 C.3     1  UNL1        0.0480
     24  C         18.0230  -21.6620   -5.8530 C.2     1  UNL1        0.0370
     25  C         22.1820  -21.8230  -12.3050 C.2     1  UNL1        0.0350
     26  C         23.1990  -22.5600  -11.6810 C.2     1  UNL1        0.0310
     27  C         24.5220  -22.4650  -12.1180 C.2     1  UNL1        0.0270
     28  C         24.8350  -21.6140  -13.1790 C.2     1  UNL1        0.0800
     29  C         23.8310  -20.8970  -13.8310 C.2     1  UNL1        0.0270
     30  C         22.5080  -21.0020  -13.3890 C.2     1  UNL1        0.0310
     31  S         26.5190  -21.4620  -13.7280 S.O2    1  UNL1        0.2630
     32  O         27.1210  -20.3470  -13.0280 O.2     1  UNL1       -0.2000
     33  O         27.1120  -22.7830  -13.6910 O.2     1  UNL1       -0.2000
     34  N         26.3470  -21.0710  -15.3660 N.pl3   1  UNL1       -0.2790
     35  H         27.2270  -20.7540  -15.7690 H       1  UNL1        0.1790
     36  C         25.5010  -21.8850  -16.1730 C.2     1  UNL1        0.0600
     37  C         25.3160  -23.2320  -15.8760 C.2     1  UNL1        0.0330
     38  C         24.5240  -24.0150  -16.7140 C.2     1  UNL1        0.0210
     39  C         23.9520  -23.4190  -17.8270 C.2     1  UNL1        0.1160
     40  N         24.1220  -22.1180  -18.1520 N.2     1  UNL1       -0.2710
     41  C         24.8930  -21.3810  -17.3170 C.2     1  UNL1        0.1460
@<TRIPOS>BOND
     1    40    39    2
     2    40    41    1
     3    39    38    1
     4    41    36    2
     5    38    37    2
     6    36    37    1
     7    36    34    1
     8    35    34    1
     9    34    31    1
    10    29    30    1
    11    29    28    2
    12    31    33    2
    13    31    28    1
    14    31    32    2
    15    30    25    2
    16    28    27    1
    17     4     3    1
    18    25     3    1
    19    25    26    1
    20    27    26    2
    21     3     1   am
    22    11     9    1
    23    11     5    2
    24     9     8    2
    25     1     5    1
    26     1     2    2
    27     5     6    1
    28     8    10    1
    29     8     7    1
    30     6     7    2
    31     7    12    1
    32    14    12    2
    33    12    13    2
    34    12    15    1
    35    15    16    1
    36    15    17    1
    37    24    17    2
    38    24    22    1
    39    17    18    1
    40    23    22    1
    41    22    21    2
    42    18    20    1
    43    18    19    2
    44    21    19    1
