@<TRIPOS>MOLECULE
70905_out_ligand_01.pdbqt
 36 39 0 0 0
SMALL
GASTEIGER

@<TRIPOS>ATOM
      1  C         16.6660  -21.0120  -11.0290 C.3     1  UNL1        0.0500
      2  C         18.0830  -21.4890  -10.8740 C.2     1  UNL1       -0.0390
      3  C         19.0650  -20.9190  -11.7050 C.2     1  UNL1        0.0090
      4  C         20.4040  -21.3130  -11.6250 C.2     1  UNL1        0.0170
      5  C         20.7890  -22.2850  -10.7000 C.2     1  UNL1        0.0330
      6  C         19.8300  -22.8690   -9.8680 C.2     1  UNL1        0.0420
      7  C         18.4840  -22.4740   -9.9490 C.2     1  UNL1        0.0860
      8  C         22.1950  -22.7520  -10.6010 C.2     1  UNL1        0.2510
      9  O         22.5570  -23.3820   -9.6160 O.2     1  UNL1       -0.2680
     10  N         23.0210  -22.4070  -11.6470 N.am    1  UNL1       -0.3530
     11  H         22.6930  -21.7650  -12.3550 H       1  UNL1        0.1630
     12  C         24.4190  -22.7930  -11.6730 C.3     1  UNL1        0.1630
     13  C         25.3570  -21.6590  -12.0420 C.2     1  UNL1       -0.0130
     14  C         25.9500  -20.9060  -11.0040 C.2     1  UNL1        0.0110
     15  C         26.7430  -19.7890  -11.2650 C.2     1  UNL1        0.0010
     16  C         26.9700  -19.3950  -12.5750 C.2     1  UNL1        0.0020
     17  C         26.4290  -20.1350  -13.6250 C.2     1  UNL1        0.0300
     18  C         25.6500  -21.2840  -13.3760 C.2     1  UNL1        0.0470
     19  N         25.2230  -22.0350  -14.5110 N.pl3   1  UNL1       -0.3150
     20  C         25.7400  -23.2170  -14.9920 C.2     1  UNL1        0.1170
     21  C         25.0380  -23.5070  -16.1390 C.2     1  UNL1        0.1350
     22  N         24.1150  -22.5370  -16.3990 N.2     1  UNL1       -0.2540
     23  C         24.2490  -21.6700  -15.4190 C.2     1  UNL1        0.2140
     24  S         17.3650  -23.2750   -8.8070 S.O2    1  UNL1        0.2630
     25  O         18.0830  -24.1920   -7.9520 O.2     1  UNL1       -0.2000
     26  O         16.2380  -23.7450   -9.5870 O.2     1  UNL1       -0.2000
     27  N         16.7890  -21.9800   -7.8950 N.pl3   1  UNL1       -0.2800
     28  H         16.1090  -21.4150   -8.4010 H       1  UNL1        0.1790
     29  C         16.6150  -22.1500   -6.4930 C.2     1  UNL1        0.0490
     30  C         15.3530  -22.5540   -6.0530 C.2     1  UNL1        0.0310
     31  C         15.1010  -22.7090   -4.6940 C.2     1  UNL1        0.0030
     32  C         16.1100  -22.4490   -3.7700 C.2     1  UNL1        0.0070
     33  C         17.3850  -22.0370   -4.1950 C.2     1  UNL1       -0.0540
     34  C         18.4380  -21.7610   -3.1540 C.3     1  UNL1        0.0490
     35  C         17.6560  -21.9040   -5.5780 C.2     1  UNL1       -0.0290
     36  C         19.0200  -21.4560   -6.0350 C.3     1  UNL1        0.0510
@<TRIPOS>BOND
     1    22    21    1
     2    22    23    2
     3    21    20    2
     4    23    19    1
     5    20    19    1
     6    19    18    1
     7    17    18    1
     8    17    16    2
     9    18    13    2
    10    16    15    1
    11    11    10    1
    12    13    12    1
    13    13    14    1
    14     3     4    1
    15     3     2    2
    16    12    10    1
    17    10     8   am
    18     4     5    2
    19    15    14    2
    20     1     2    1
    21     2     7    1
    22     5     8    1
    23     5     6    1
    24     8     9    2
    25     7     6    2
    26     7    24    1
    27    26    24    2
    28    24    25    2
    29    24    27    1
    30    28    27    1
    31    27    29    1
    32    29    30    2
    33    29    35    1
    34    30    31    1
    35    36    35    1
    36    35    33    2
    37    31    32    2
    38    33    32    1
    39    33    34    1
