@<TRIPOS>MOLECULE
70901_out_ligand_01.pdbqt
 32 34 0 0 0
SMALL
GASTEIGER

@<TRIPOS>ATOM
      1  C         21.3250  -22.4990  -10.6690 C.2     1  UNL1        0.0810
      2  C         19.9770  -22.5330  -10.2760 C.2     1  UNL1        0.0420
      3  C         19.0060  -21.8590  -11.0240 C.2     1  UNL1        0.0330
      4  C         19.3910  -21.1190  -12.1460 C.2     1  UNL1        0.0170
      5  C         20.7350  -21.0800  -12.5320 C.2     1  UNL1        0.0090
      6  C         21.7200  -21.7750  -11.8100 C.2     1  UNL1       -0.0390
      7  C         23.1470  -21.6700  -12.2730 C.3     1  UNL1        0.0500
      8  C         17.5870  -21.9310  -10.5730 C.2     1  UNL1        0.2520
      9  O         16.7780  -21.0940  -10.9580 O.2     1  UNL1       -0.2680
     10  N         17.2700  -22.9420   -9.6930 N.am    1  UNL1       -0.3490
     11  H         18.0120  -23.4680   -9.2520 H       1  UNL1        0.1630
     12  C         15.9350  -23.0720   -9.1300 C.3     1  UNL1        0.1140
     13  C         15.1570  -24.2160   -9.7910 C.3     1  UNL1        0.0370
     14  C         16.0380  -23.2380   -7.6230 C.2     1  UNL1       -0.0360
     15  C         15.3160  -22.4150   -6.7380 C.2     1  UNL1        0.0120
     16  C         15.4090  -22.6040   -5.3580 C.2     1  UNL1        0.0430
     17  C         16.2150  -23.6180   -4.8560 C.2     1  UNL1        0.1160
     18  F         16.3000  -23.8000   -3.5320 F       1  UNL1       -0.2060
     19  C         16.9300  -24.4490   -5.7090 C.2     1  UNL1        0.0430
     20  C         16.8400  -24.2630   -7.0900 C.2     1  UNL1        0.0120
     21  S         22.5060  -23.3840   -9.6560 S.O2    1  UNL1        0.2460
     22  O         23.6950  -23.6110  -10.4510 O.2     1  UNL1       -0.2060
     23  O         21.8090  -24.4690   -9.0040 O.2     1  UNL1       -0.2060
     24  N         22.9210  -22.1710   -8.5270 N.pl3   1  UNL1       -0.1810
     25  H         23.7000  -22.5340   -7.9760 H       1  UNL1        0.1460
     26  C         21.8370  -21.7940   -7.6630 C.2     1  UNL1        0.0220
     27  C         21.9790  -20.7130   -6.7930 C.2     1  UNL1        0.0250
     28  C         20.9360  -20.3780   -5.9250 C.2     1  UNL1        0.0080
     29  C         19.7500  -21.1240   -5.9190 C.2     1  UNL1       -0.0620
     30  C         18.6490  -20.7900   -4.9580 C.3     1  UNL1        0.0480
     31  C         19.6360  -22.2280   -6.7720 C.2     1  UNL1        0.0080
     32  C         20.6770  -22.5640   -7.6400 C.2     1  UNL1        0.0250
@<TRIPOS>BOND
     1     5     4    2
     2     5     6    1
     3     7     6    1
     4     4     3    1
     5     6     1    2
     6     3     8    1
     7     3     2    2
     8     9     8    2
     9     1     2    1
    10     1    21    1
    11     8    10   am
    12    22    21    2
    13    13    12    1
    14    10    11    1
    15    10    12    1
    16    21    23    2
    17    21    24    1
    18    12    14    1
    19    24    25    1
    20    24    26    1
    21    26    32    2
    22    26    27    1
    23    32    31    1
    24    14    20    2
    25    14    15    1
    26    20    19    1
    27    27    28    2
    28    31    29    2
    29    15    16    2
    30    28    29    1
    31    29    30    1
    32    19    17    2
    33    16    17    1
    34    17    18    1
