@<TRIPOS>MOLECULE
70906_out_ligand_01.pdbqt
 36 39 0 0 0
SMALL
GASTEIGER

@<TRIPOS>ATOM
      1  C         17.5090  -23.5570   -8.6730 C.2     1  UNL1        0.0860
      2  C         18.8890  -23.8310   -8.6830 C.2     1  UNL1        0.0420
      3  C         19.7210  -23.2440   -9.6390 C.2     1  UNL1        0.0330
      4  C         19.1790  -22.3730  -10.5830 C.2     1  UNL1        0.0170
      5  C         17.8040  -22.1220  -10.5920 C.2     1  UNL1        0.0090
      6  C         16.9430  -22.7140   -9.6470 C.2     1  UNL1       -0.0390
      7  C         15.4770  -22.3990   -9.7400 C.3     1  UNL1        0.0500
      8  C         21.1850  -23.4990   -9.6490 C.2     1  UNL1        0.2510
      9  O         21.6970  -24.1810   -8.7690 O.2     1  UNL1       -0.2680
     10  N         21.8840  -22.9120  -10.6830 N.am    1  UNL1       -0.3530
     11  H         21.4370  -22.1770  -11.2110 H       1  UNL1        0.1630
     12  C         23.3240  -22.9980  -10.7620 C.3     1  UNL1        0.1610
     13  C         23.8480  -22.6160  -12.1230 C.2     1  UNL1       -0.0400
     14  C         25.1230  -23.0110  -12.5490 C.2     1  UNL1        0.0110
     15  C         25.6120  -22.6290  -13.8050 C.2     1  UNL1        0.0300
     16  C         24.8400  -21.8320  -14.6560 C.2     1  UNL1        0.0400
     17  C         23.5560  -21.4500  -14.2370 C.2     1  UNL1        0.0300
     18  C         23.0710  -21.8380  -12.9830 C.2     1  UNL1        0.0110
     19  N         25.3190  -21.4220  -15.9390 N.pl3   1  UNL1       -0.3090
     20  C         26.1630  -20.3490  -16.1640 C.2     1  UNL1        0.1180
     21  C         26.3260  -20.2500  -17.5200 C.2     1  UNL1        0.1360
     22  N         25.6510  -21.2490  -18.1510 N.2     1  UNL1       -0.2460
     23  C         25.0810  -21.9700  -17.2010 C.2     1  UNL1        0.1060
     24  C         24.3820  -23.2520  -17.4820 C.3     1  UNL1        0.0910
     25  S         16.5740  -24.3570   -7.3680 S.O2    1  UNL1        0.2630
     26  O         17.5470  -25.0180   -6.5220 O.2     1  UNL1       -0.2000
     27  O         15.4620  -25.0900   -7.9220 O.2     1  UNL1       -0.2000
     28  N         15.9930  -23.0490   -6.4680 N.pl3   1  UNL1       -0.2810
     29  H         15.0110  -23.1560   -6.2290 H       1  UNL1        0.1790
     30  C         16.8470  -22.4470   -5.5030 C.2     1  UNL1        0.0430
     31  C         16.5960  -22.6530   -4.1470 C.2     1  UNL1        0.0300
     32  C         17.4480  -22.1030   -3.1920 C.2     1  UNL1        0.0030
     33  C         18.5520  -21.3490   -3.5940 C.2     1  UNL1        0.0070
     34  C         18.8170  -21.1460   -4.9550 C.2     1  UNL1       -0.0600
     35  C         19.9820  -20.3080   -5.3850 C.3     1  UNL1        0.0480
     36  C         17.9490  -21.6940   -5.9060 C.2     1  UNL1        0.0370
@<TRIPOS>BOND
     1    22    21    1
     2    22    23    2
     3    21    20    2
     4    24    23    1
     5    23    19    1
     6    20    19    1
     7    19    16    1
     8    16    17    2
     9    16    15    1
    10    17    18    1
    11    15    14    2
    12    18    13    2
    13    14    13    1
    14    13    12    1
    15    11    10    1
    16    12    10    1
    17    10     8   am
    18     5     4    2
    19     5     6    1
    20     4     3    1
    21     7     6    1
    22     8     3    1
    23     8     9    2
    24     6     1    2
    25     3     2    2
    26     2     1    1
    27     1    25    1
    28    27    25    2
    29    25    26    2
    30    25    28    1
    31    28    29    1
    32    28    30    1
    33    36    30    2
    34    36    34    1
    35    30    31    1
    36    35    34    1
    37    34    33    2
    38    31    32    2
    39    33    32    1
