@<TRIPOS>MOLECULE
7090_out_ligand_01.pdbqt
 33 36 0 0 0
SMALL
GASTEIGER

@<TRIPOS>ATOM
      1  C         21.7800  -21.8060  -11.5490 C.2     1  UNL1        0.0370
      2  C         20.7640  -21.0840  -12.1900 C.2     1  UNL1        0.0290
      3  C         19.4280  -21.2390  -11.8130 C.2     1  UNL1        0.0030
      4  C         19.0940  -22.1240  -10.7900 C.2     1  UNL1        0.0170
      5  C         20.1000  -22.8520  -10.1460 C.2     1  UNL1        0.0340
      6  C         21.4400  -22.7020  -10.5340 C.2     1  UNL1        0.0460
      7  N         23.0990  -21.6000  -12.0050 N.am    1  UNL1       -0.3090
      8  C         24.2420  -21.4680  -11.2430 C.2     1  UNL1        0.3270
      9  N         25.4320  -21.3880  -11.9830 N.am    1  UNL1       -0.2960
     10  O         24.2430  -21.3380  -10.0210 O.2     1  UNL1       -0.2460
     11  C         26.5460  -20.6510  -11.3860 C.3     1  UNL1        0.1440
     12  C         25.5770  -21.7030  -13.3690 C.2     1  UNL1        0.0800
     13  C         26.6020  -19.2430  -11.9510 C.3     1  UNL1        0.1010
     14  S         26.9750  -19.2620  -13.7320 S.3     1  UNL1       -0.1060
     15  C         26.2370  -20.8120  -14.2380 C.2     1  UNL1        0.1210
     16  N         26.3570  -21.0360  -15.5710 N.2     1  UNL1       -0.2440
     17  C         25.8480  -22.1740  -16.0820 C.2     1  UNL1        0.0320
     18  C         25.9970  -22.3930  -17.5570 C.3     1  UNL1        0.0700
     19  C         25.2310  -23.1330  -15.2890 C.2     1  UNL1        0.0350
     20  C         25.1160  -22.9220  -13.9080 C.2     1  UNL1       -0.0300
     21  C         24.5550  -24.0520  -13.0840 C.3     1  UNL1        0.0500
     22  H         23.2000  -21.3640  -12.9810 H       1  UNL1        0.1700
     23  C         19.7760  -23.8210   -9.0660 C.2     1  UNL1        0.2510
     24  O         20.5550  -24.7250   -8.7850 O.2     1  UNL1       -0.2680
     25  N         18.5830  -23.6090   -8.4050 N.am    1  UNL1       -0.3570
     26  H         18.1440  -22.7020   -8.5030 H       1  UNL1        0.1620
     27  C         18.2590  -24.3620   -7.2060 C.3     1  UNL1        0.1280
     28  C         16.7490  -24.5160   -6.9860 C.3     1  UNL1        0.0660
     29  C         16.2560  -23.6700   -5.8430 C.2     1  UNL1       -0.0160
     30  C         15.0550  -22.9970   -5.7360 C.2     1  UNL1        0.0150
     31  C         14.9340  -22.2950   -4.5020 C.2     1  UNL1        0.0080
     32  C         16.0450  -22.4580   -3.7060 C.2     1  UNL1        0.0500
     33  S         17.2230  -23.4520   -4.4440 S.3     1  UNL1       -0.1060
@<TRIPOS>BOND
     1    18    17    1
     2    17    16    2
     3    17    19    1
     4    16    15    1
     5    19    20    2
     6    15    14    1
     7    15    12    2
     8    20    12    1
     9    20    21    1
    10    14    13    1
    11    12     9    1
    12    22     7    1
    13     2     3    1
    14     2     1    2
    15     7     1    1
    16     7     8   am
    17     9    11    1
    18     9     8   am
    19    13    11    1
    20     3     4    2
    21     1     6    1
    22     8    10    2
    23     4     5    1
    24     6     5    2
    25     5    23    1
    26    23    24    2
    27    23    25   am
    28    26    25    1
    29    25    27    1
    30    27    28    1
    31    28    29    1
    32    29    30    2
    33    29    33    1
    34    30    31    1
    35    31    32    2
    36    33    32    1
