@<TRIPOS>MOLECULE
70907_out_ligand_01.pdbqt
 40 44 0 0 0
SMALL
GASTEIGER

@<TRIPOS>ATOM
      1  N         24.3770  -23.2870  -11.4910 N.am    1  UNL1       -0.3270
      2  C         24.5010  -22.4440  -10.4010 C.2     1  UNL1        0.2220
      3  O         24.8620  -21.2720  -10.4230 O.2     1  UNL1       -0.2730
      4  H         24.0490  -24.2260  -11.2990 H       1  UNL1        0.1690
      5  C         24.6020  -22.9810  -12.8480 C.2     1  UNL1        0.0340
      6  C         25.6290  -23.5370  -13.6160 C.2     1  UNL1        0.0310
      7  C         25.7860  -23.1810  -14.9590 C.2     1  UNL1        0.0270
      8  C         24.9020  -22.2700  -15.5420 C.2     1  UNL1        0.0800
      9  C         23.8800  -21.6970  -14.7870 C.2     1  UNL1        0.0270
     10  C         23.7310  -22.0580  -13.4460 C.2     1  UNL1        0.0310
     11  S         25.1240  -21.8070  -17.2430 S.O2    1  UNL1        0.2760
     12  O         24.1660  -20.7510  -17.5040 O.2     1  UNL1       -0.2000
     13  O         25.1280  -22.9990  -18.0660 O.2     1  UNL1       -0.2000
     14  N         26.6180  -21.0880  -17.2660 N.pl3   1  UNL1       -0.1090
     15  H         27.3930  -21.7320  -17.1640 H       1  UNL1        0.1980
     16  C         26.7790  -19.9120  -16.5450 C.cat   1  UNL1        0.7360
     17  N         26.5440  -18.8140  -17.2700 N.2     1  UNL1       -0.0670
     18  C         26.5480  -17.6500  -16.5930 C.2     1  UNL1        0.0510
     19  C         26.7380  -17.5920  -15.2240 C.2     1  UNL1        0.0540
     20  C         26.3220  -16.3930  -17.3780 C.3     1  UNL1        0.0710
     21  C         26.9170  -18.7960  -14.5700 C.2     1  UNL1        0.0510
     22  C         27.1180  -18.8300  -13.0860 C.3     1  UNL1        0.0710
     23  N         26.9170  -19.9740  -15.2210 N.2     1  UNL1       -0.0670
     24  C         24.1620  -23.1460   -9.0960 C.3     1  UNL1        0.1040
     25  C         22.7120  -23.6330   -9.0410 C.3     1  UNL1        0.0250
     26  C         21.6810  -22.5040   -8.9520 C.3     1  UNL1        0.1140
     27  N         20.3300  -23.0050   -9.2750 N.pl3   1  UNL1       -0.1710
     28  C         19.4600  -22.2440  -10.1370 C.2     1  UNL1        0.0380
     29  C         19.8230  -21.6030  -11.3110 C.2     1  UNL1        0.0250
     30  C         18.1190  -22.3330   -9.8010 C.2     1  UNL1        0.0190
     31  C         18.8230  -21.0080  -12.0950 C.2     1  UNL1        0.0030
     32  C         17.4680  -21.0790  -11.7210 C.2     1  UNL1        0.0120
     33  C         17.0890  -21.7640  -10.5540 C.2     1  UNL1       -0.0230
     34  C         15.7740  -21.9410  -10.0730 C.2     1  UNL1        0.0120
     35  C         15.5300  -22.6670   -8.8890 C.2     1  UNL1        0.0020
     36  C         16.5850  -23.2260   -8.1590 C.2     1  UNL1        0.0260
     37  C         17.8640  -23.0350   -8.6470 C.2     1  UNL1        0.0870
     38  S         19.3690  -23.5750   -7.9520 S.O2    1  UNL1        0.2490
     39  O         19.4000  -25.0200   -7.9560 O.2     1  UNL1       -0.2050
     40  O         19.6310  -22.7770   -6.7760 O.2     1  UNL1       -0.2050
@<TRIPOS>BOND
     1    13    11    2
     2    12    11    2
     3    20    18    1
     4    17    18    1
     5    17    16    2
     6    14    11    1
     7    14    15    1
     8    14    16    1
     9    11     8    1
    10    18    19    2
    11    16    23    1
    12     8     7    2
    13     8     9    1
    14    19    21    1
    15    23    21    2
    16     7     6    1
    17     9    10    2
    18    21    22    1
    19     6     5    2
    20    10     5    1
    21     5     1    1
    22    31    32    2
    23    31    29    1
    24    32    33    1
    25     1     4    1
    26     1     2   am
    27    29    28    2
    28    33    34    1
    29    33    30    2
    30     3     2    2
    31     2    24    1
    32    28    30    1
    33    28    27    1
    34    34    35    2
    35    30    37    1
    36    27    26    1
    37    27    38    1
    38    24    25    1
    39    25    26    1
    40    35    36    1
    41    37    36    2
    42    37    38    1
    43    39    38    2
    44    38    40    2
