@<TRIPOS>MOLECULE
70918_out_ligand_01.pdbqt
 41 45 0 0 0
SMALL
GASTEIGER

@<TRIPOS>ATOM
      1  N         21.4570  -22.5720  -10.6140 N.am    1  UNL1       -0.3230
      2  C         22.6770  -22.1630  -10.1010 C.2     1  UNL1        0.2560
      3  O         22.9460  -21.9730   -8.9210 O.2     1  UNL1       -0.2670
      4  H         21.3480  -22.5350  -11.6190 H       1  UNL1        0.1690
      5  C         20.3090  -22.9520   -9.8860 C.2     1  UNL1        0.0350
      6  C         20.4910  -23.8560   -8.8300 C.2     1  UNL1        0.0310
      7  C         19.4060  -24.2760   -8.0540 C.2     1  UNL1        0.0270
      8  C         18.1290  -23.7900   -8.3390 C.2     1  UNL1        0.0750
      9  C         17.9340  -22.8770   -9.3750 C.2     1  UNL1        0.0270
     10  C         19.0250  -22.4640  -10.1480 C.2     1  UNL1        0.0310
     11  S         16.7540  -24.3110   -7.3380 S.O2    1  UNL1        0.2450
     12  O         17.2440  -25.1800   -6.2910 O.2     1  UNL1       -0.2060
     13  O         15.7180  -24.7500   -8.2510 O.2     1  UNL1       -0.2060
     14  N         16.2150  -22.8450   -6.6780 N.pl3   1  UNL1       -0.1790
     15  H         15.2700  -22.9940   -6.3150 H       1  UNL1        0.1460
     16  C         17.0830  -22.2180   -5.7260 C.2     1  UNL1        0.0560
     17  C         18.2690  -21.6200   -6.1560 C.2     1  UNL1        0.0340
     18  C         19.1510  -21.0610   -5.2260 C.2     1  UNL1       -0.0600
     19  C         18.8360  -21.1290   -3.8630 C.2     1  UNL1        0.0090
     20  C         20.4430  -20.4400   -5.6720 C.3     1  UNL1        0.0480
     21  C         17.6500  -21.7330   -3.4310 C.2     1  UNL1        0.0390
     22  C         16.7700  -22.2920   -4.3600 C.2     1  UNL1        0.0900
     23  O         15.5760  -22.8950   -4.0490 O.2     1  UNL1       -0.3540
     24  C         15.6500  -23.9990   -3.1530 C.3     1  UNL1        0.2100
     25  C         23.7320  -21.8880  -11.1180 C.2     1  UNL1        0.0320
     26  C         25.0050  -21.4260  -10.7620 C.2     1  UNL1        0.0170
     27  C         25.9570  -21.1700  -11.7550 C.2     1  UNL1        0.0100
     28  C         25.6470  -21.3500  -13.1130 C.2     1  UNL1       -0.0400
     29  C         24.3690  -21.8120  -13.4590 C.2     1  UNL1        0.0100
     30  C         23.4160  -22.0710  -12.4690 C.2     1  UNL1        0.0170
     31  C         26.6810  -21.0920  -14.1930 C.3     1  UNL1        0.1610
     32  N         26.0680  -20.4740  -15.3810 N.pl3   1  UNL1       -0.3760
     33  C         25.7760  -21.4240  -16.4660 C.3     1  UNL1        0.1230
     34  C         24.9290  -20.7810  -17.5480 C.3     1  UNL1        0.0240
     35  C         25.7120  -19.6290  -18.1530 C.3     1  UNL1        0.0420
     36  C         26.2250  -18.7080  -17.0750 C.2     1  UNL1       -0.0320
     37  C         26.5610  -17.3910  -17.4430 C.2     1  UNL1        0.0090
     38  C         26.3870  -19.1580  -15.7430 C.2     1  UNL1        0.0360
     39  C         27.0140  -16.4830  -16.4930 C.2     1  UNL1        0.0010
     40  C         27.1200  -16.8840  -15.1690 C.2     1  UNL1        0.0020
     41  C         26.7990  -18.1970  -14.8030 C.2     1  UNL1        0.0300
@<TRIPOS>BOND
     1    35    34    1
     2    35    36    1
     3    34    33    1
     4    37    36    2
     5    37    39    1
     6    36    38    1
     7    39    40    2
     8    33    32    1
     9    38    32    1
    10    38    41    2
    11    32    31    1
    12    40    41    1
    13    31    28    1
    14    29    28    2
    15    29    30    1
    16    28    27    1
    17    30    25    2
    18    27    26    2
    19     4     1    1
    20    25    26    1
    21    25     2    1
    22     1     2   am
    23     1     5    1
    24    10     5    2
    25    10     9    1
    26     2     3    2
    27     5     6    1
    28     9     8    2
    29     6     7    2
    30     8     7    1
    31     8    11    1
    32    13    11    2
    33    11    14    1
    34    11    12    2
    35    14    15    1
    36    14    16    1
    37    17    16    2
    38    17    18    1
    39    16    22    1
    40    20    18    1
    41    18    19    2
    42    22    23    1
    43    22    21    2
    44    23    24    1
    45    19    21    1
