@<TRIPOS>MOLECULE
70923_out_ligand_01.pdbqt
 32 34 0 0 0
SMALL
GASTEIGER

@<TRIPOS>ATOM
      1  C         20.8610  -23.1990   -9.7830 C.2     1  UNL1        0.0340
      2  C         20.4240  -23.9960   -8.7150 C.2     1  UNL1        0.0310
      3  C         19.0780  -24.0100   -8.3360 C.2     1  UNL1        0.0270
      4  C         18.1600  -23.2220   -9.0330 C.2     1  UNL1        0.0800
      5  C         18.5840  -22.4040  -10.0790 C.2     1  UNL1        0.0270
      6  C         19.9320  -22.4020  -10.4580 C.2     1  UNL1        0.0310
      7  N         22.2340  -23.2550  -10.0950 N.am    1  UNL1       -0.3270
      8  C         23.2130  -22.3230   -9.7950 C.2     1  UNL1        0.2260
      9  O         23.0380  -21.2820   -9.1650 O.2     1  UNL1       -0.2730
     10  H         22.5260  -24.0610  -10.6360 H       1  UNL1        0.1690
     11  C         24.6210  -22.6970  -10.2490 C.3     1  UNL1        0.1420
     12  C         25.2110  -21.8570  -11.3650 C.2     1  UNL1       -0.0430
     13  C         25.1780  -22.2700  -12.7120 C.2     1  UNL1       -0.0550
     14  C         25.7880  -21.4650  -13.6860 C.2     1  UNL1        0.0080
     15  C         24.5100  -23.5530  -13.1360 C.3     1  UNL1        0.0490
     16  C         26.4130  -20.2650  -13.3410 C.2     1  UNL1        0.0070
     17  C         26.4300  -19.8370  -12.0160 C.2     1  UNL1       -0.0610
     18  C         27.1210  -18.5630  -11.6370 C.3     1  UNL1        0.0480
     19  C         25.8400  -20.6410  -11.0340 C.2     1  UNL1        0.0140
     20  S         16.4520  -23.2140   -8.5330 S.O2    1  UNL1        0.2630
     21  O         16.1260  -24.5340   -8.0380 O.2     1  UNL1       -0.2000
     22  O         15.6900  -22.6130   -9.6090 O.2     1  UNL1       -0.2000
     23  N         16.4170  -22.1010   -7.2720 N.pl3   1  UNL1       -0.2800
     24  H         16.9590  -21.2590   -7.4520 H       1  UNL1        0.1790
     25  C         16.2280  -22.5290   -5.9300 C.2     1  UNL1        0.0490
     26  C         17.2880  -23.1590   -5.2740 C.2     1  UNL1        0.0370
     27  C         17.1590  -23.5860   -3.9460 C.2     1  UNL1       -0.0600
     28  C         18.3090  -24.2540   -3.2500 C.3     1  UNL1        0.0480
     29  C         15.9640  -23.3370   -3.2710 C.2     1  UNL1        0.0070
     30  C         14.8990  -22.7110   -3.9260 C.2     1  UNL1        0.0090
     31  C         15.0100  -22.3160   -5.2670 C.2     1  UNL1       -0.0350
     32  C         13.8450  -21.6280   -5.9160 C.3     1  UNL1        0.0500
@<TRIPOS>BOND
     1    14    16    2
     2    14    13    1
     3    16    17    1
     4    15    13    1
     5    13    12    2
     6    17    18    1
     7    17    19    2
     8    12    19    1
     9    12    11    1
    10    10     7    1
    11     6     5    1
    12     6     1    2
    13    11     8    1
    14     7     8   am
    15     7     1    1
    16     5     4    2
    17     8     9    2
    18     1     2    1
    19    22    20    2
    20     4    20    1
    21     4     3    1
    22     2     3    2
    23    20    21    2
    24    20    23    1
    25    24    23    1
    26    23    25    1
    27    25    26    2
    28    25    31    1
    29    32    31    1
    30    26    27    1
    31    31    30    2
    32    27    29    2
    33    27    28    1
    34    30    29    1
