@<TRIPOS>MOLECULE
70929_out_ligand_01.pdbqt
 37 40 0 0 0
SMALL
GASTEIGER

@<TRIPOS>ATOM
      1  C         21.0810  -22.5570  -10.8590 C.2     1  UNL1        0.0220
      2  C         20.8250  -23.5610   -9.9230 C.2     1  UNL1        0.0260
      3  C         19.5410  -23.7090   -9.3950 C.2     1  UNL1        0.0270
      4  C         18.5220  -22.8450   -9.8110 C.2     1  UNL1        0.0800
      5  C         18.7820  -21.8200  -10.7260 C.2     1  UNL1        0.0270
      6  C         20.0690  -21.6770  -11.2500 C.2     1  UNL1        0.0260
      7  N         22.3990  -22.3830  -11.3700 N.pl3   1  UNL1       -0.1850
      8  H         22.4880  -21.6990  -12.1240 H       1  UNL1        0.1460
      9  S         23.6360  -22.1000  -10.2450 S.O2    1  UNL1        0.2170
     10  O         23.1330  -21.0590   -9.3710 O.2     1  UNL1       -0.2110
     11  O         24.1010  -23.3580   -9.6990 O.2     1  UNL1       -0.2110
     12  C         24.9490  -21.4170  -11.2670 C.3     1  UNL1        0.1960
     13  C         24.8380  -21.8960  -12.6930 C.2     1  UNL1       -0.0430
     14  C         24.2960  -21.0670  -13.6860 C.2     1  UNL1        0.0090
     15  C         24.1930  -21.5140  -15.0060 C.2     1  UNL1        0.0180
     16  C         24.6330  -22.7960  -15.3570 C.2     1  UNL1        0.0390
     17  C         25.1770  -23.6260  -14.3700 C.2     1  UNL1        0.0180
     18  C         25.2790  -23.1780  -13.0500 C.2     1  UNL1        0.0090
     19  C         24.4990  -23.2210  -16.7770 C.2     1  UNL1        0.2920
     20  O         23.4240  -23.3540  -17.3430 O.2     1  UNL1       -0.2590
     21  O         25.7180  -23.4370  -17.3320 O.3     1  UNL1       -0.3230
     22  C         26.4360  -22.2400  -17.6360 C.3     1  UNL1        0.2130
     23  S         16.8890  -23.0180   -9.1340 S.O2    1  UNL1        0.2630
     24  O         16.1150  -23.8040  -10.0730 O.2     1  UNL1       -0.2000
     25  O         16.4290  -21.7200   -8.6910 O.2     1  UNL1       -0.2000
     26  N         17.1520  -24.0220   -7.8000 N.pl3   1  UNL1       -0.2800
     27  H         16.9360  -24.9920   -8.0210 H       1  UNL1        0.1790
     28  C         16.7640  -23.5450   -6.5100 C.2     1  UNL1        0.0530
     29  C         15.5930  -24.0740   -5.9560 C.2     1  UNL1        0.0310
     30  C         15.1670  -23.6610   -4.7000 C.2     1  UNL1        0.0030
     31  C         15.9100  -22.7170   -3.9920 C.2     1  UNL1        0.0120
     32  C         17.0900  -22.1760   -4.5270 C.2     1  UNL1       -0.0240
     33  C         17.8270  -21.2260   -3.8000 C.2     1  UNL1        0.0120
     34  C         17.5420  -22.5920   -5.8040 C.2     1  UNL1        0.0010
     35  C         19.0050  -20.6840   -4.3140 C.2     1  UNL1        0.0010
     36  C         19.4640  -21.0870   -5.5610 C.2     1  UNL1        0.0010
     37  C         18.7420  -22.0290   -6.2980 C.2     1  UNL1        0.0140
@<TRIPOS>BOND
     1    22    21    1
     2    20    19    2
     3    21    19    1
     4    19    16    1
     5    16    15    2
     6    16    17    1
     7    15    14    1
     8    17    18    2
     9    14    13    2
    10    18    13    1
    11    13    12    1
    12     8     7    1
    13     7     1    1
    14     7     9    1
    15    12     9    1
    16     6     1    2
    17     6     5    1
    18     1     2    1
    19     5     4    2
    20     9    11    2
    21     9    10    2
    22    24    23    2
    23     2     3    2
    24     4     3    1
    25     4    23    1
    26    23    25    2
    27    23    26    1
    28    27    26    1
    29    26    28    1
    30    28    29    2
    31    28    34    1
    32    37    34    1
    33    37    36    2
    34    29    30    1
    35    34    32    2
    36    36    35    1
    37    30    31    2
    38    32    31    1
    39    32    33    1
    40    35    33    2
