@<TRIPOS>MOLECULE
70934_out_ligand_01.pdbqt
 37 40 0 0 0
SMALL
GASTEIGER

@<TRIPOS>ATOM
      1  O         19.0090  -21.3580   -6.1380 O.2     1  UNL1       -0.2670
      2  C         19.1800  -22.4950   -6.5650 C.2     1  UNL1        0.2560
      3  N         18.4350  -23.6110   -6.2440 N.am    1  UNL1       -0.3220
      4  H         18.7690  -24.5120   -6.5900 H       1  UNL1        0.1690
      5  C         17.2510  -23.6910   -5.4700 C.2     1  UNL1        0.0500
      6  C         17.2690  -23.6390   -4.0710 C.2     1  UNL1        0.0300
      7  C         16.0830  -23.6840   -3.3330 C.2     1  UNL1        0.0020
      8  C         14.8550  -23.7700   -3.9810 C.2     1  UNL1        0.0010
      9  C         14.8120  -23.8280   -5.3730 C.2     1  UNL1        0.0190
     10  C         16.0010  -23.8080   -6.1230 C.2     1  UNL1        0.0580
     11  C         15.9290  -23.8950   -7.6150 C.2     1  UNL1        0.2540
     12  O         15.7550  -24.9800   -8.1650 O.2     1  UNL1       -0.2680
     13  N         16.0100  -22.7060   -8.3090 N.am    1  UNL1       -0.3530
     14  H         15.8860  -21.8400   -7.8020 H       1  UNL1        0.1630
     15  C         15.8070  -22.6570   -9.7400 C.3     1  UNL1        0.1620
     16  C         17.0110  -22.0960  -10.4390 C.2     1  UNL1       -0.0230
     17  C         18.2250  -22.7880  -10.4810 C.2     1  UNL1        0.0120
     18  C         19.3210  -22.2200  -11.1240 C.2     1  UNL1        0.0200
     19  C         19.1680  -20.9700  -11.7020 C.2     1  UNL1        0.1160
     20  N         18.0160  -20.2690  -11.6740 N.2     1  UNL1       -0.2730
     21  C         16.9670  -20.8430  -11.0400 C.2     1  UNL1        0.1240
     22  C         20.3220  -22.7370   -7.4970 C.2     1  UNL1        0.0320
     23  C         20.3750  -23.9570   -8.1820 C.2     1  UNL1        0.0200
     24  C         21.4320  -24.2390   -9.0550 C.2     1  UNL1        0.0380
     25  C         22.4520  -23.3060   -9.2410 C.2     1  UNL1        0.0680
     26  C         22.4020  -22.0900   -8.5540 C.2     1  UNL1        0.0380
     27  C         21.3480  -21.8040   -7.6800 C.2     1  UNL1        0.0200
     28  O         23.5390  -23.4540  -10.0570 O.2     1  UNL1       -0.3500
     29  C         23.4750  -22.8400  -11.3450 C.3     1  UNL1        0.1860
     30  C         24.5670  -21.7750  -11.4580 C.3     1  UNL1        0.1060
     31  S         26.1510  -22.4140  -12.1250 S.3     1  UNL1       -0.1280
     32  C         25.6100  -22.9810  -13.7250 C.2     1  UNL1        0.0000
     33  C         25.1050  -22.0600  -14.6470 C.2     1  UNL1        0.0180
     34  C         24.6870  -22.4860  -15.9090 C.2     1  UNL1        0.0010
     35  C         24.7610  -23.8350  -16.2500 C.2     1  UNL1        0.0000
     36  C         25.2520  -24.7610  -15.3290 C.2     1  UNL1        0.0010
     37  C         25.6730  -24.3350  -14.0680 C.2     1  UNL1        0.0180
@<TRIPOS>BOND
     1    35    34    2
     2    35    36    1
     3    34    33    1
     4    36    37    2
     5    33    32    2
     6    37    32    1
     7    32    31    1
     8    31    30    1
     9    19    20    2
    10    19    18    1
    11    20    21    1
    12    30    29    1
    13    29    28    1
    14    18    17    2
    15    21    16    2
    16    17    16    1
    17    16    15    1
    18    28    25    1
    19    15    13    1
    20    25    24    2
    21    25    26    1
    22    24    23    1
    23    26    27    2
    24    13    14    1
    25    13    11   am
    26    23    22    2
    27    12    11    2
    28    27    22    1
    29    11    10    1
    30    22     2    1
    31     4     3    1
    32     2     3   am
    33     2     1    2
    34     3     5    1
    35    10     5    2
    36    10     9    1
    37     5     6    1
    38     9     8    2
    39     6     7    2
    40     8     7    1
