@<TRIPOS>MOLECULE
70932_out_ligand_01.pdbqt
 35 37 0 0 0
SMALL
GASTEIGER

@<TRIPOS>ATOM
      1  C         22.5650  -23.4000   -8.8380 C.2     1  UNL1        0.0340
      2  C         22.1210  -22.2760   -8.1330 C.2     1  UNL1        0.0310
      3  C         20.8180  -22.2230   -7.6230 C.2     1  UNL1        0.0270
      4  C         19.9590  -23.3050   -7.8180 C.2     1  UNL1        0.0800
      5  C         20.3810  -24.4270   -8.5370 C.2     1  UNL1        0.0270
      6  C         21.6830  -24.4710   -9.0390 C.2     1  UNL1        0.0310
      7  S         18.3150  -23.2750   -7.1530 S.O2    1  UNL1        0.2630
      8  O         18.1210  -24.4290   -6.3050 O.2     1  UNL1       -0.2000
      9  O         18.0850  -21.9310   -6.6640 O.2     1  UNL1       -0.2000
     10  N         17.3560  -23.4280   -8.5400 N.pl3   1  UNL1       -0.2810
     11  H         17.2120  -24.4130   -8.7610 H       1  UNL1        0.1790
     12  C         17.5740  -22.5330   -9.6230 C.2     1  UNL1        0.0430
     13  C         16.5270  -21.7790  -10.1570 C.2     1  UNL1        0.0300
     14  C         16.7740  -20.8940  -11.2090 C.2     1  UNL1        0.0030
     15  C         18.0690  -20.7610  -11.7250 C.2     1  UNL1        0.0160
     16  C         19.1330  -21.5070  -11.1880 C.2     1  UNL1        0.0500
     17  C         18.8720  -22.3970  -10.1320 C.2     1  UNL1        0.0460
     18  C         20.5270  -21.3980  -11.7660 C.3     1  UNL1        0.4170
     19  F         20.5520  -20.8500  -13.0160 F       1  UNL1       -0.1660
     20  F         21.3400  -20.6120  -11.0000 F       1  UNL1       -0.1660
     21  F         21.1590  -22.6020  -11.8760 F       1  UNL1       -0.1660
     22  N         23.8640  -23.5400   -9.3600 N.am    1  UNL1       -0.3270
     23  C         24.4710  -22.8030  -10.3630 C.2     1  UNL1        0.2310
     24  O         23.9670  -21.8610  -10.9700 O.2     1  UNL1       -0.2720
     25  H         24.4140  -24.3190   -9.0060 H       1  UNL1        0.1690
     26  C         25.9220  -23.1900  -10.6230 C.3     1  UNL1        0.1820
     27  S         26.7730  -22.0730  -11.7960 S.3     1  UNL1       -0.1210
     28  C         26.1590  -22.7030  -13.3500 C.2     1  UNL1        0.0010
     29  C         25.9540  -24.0710  -13.5620 C.2     1  UNL1        0.0210
     30  C         25.4610  -24.5360  -14.7880 C.2     1  UNL1        0.0380
     31  C         25.1620  -23.6340  -15.8110 C.2     1  UNL1        0.0680
     32  C         25.3570  -22.2690  -15.5960 C.2     1  UNL1        0.0380
     33  C         25.8450  -21.8030  -14.3710 C.2     1  UNL1        0.0210
     34  O         24.6870  -23.9540  -17.0530 O.2     1  UNL1       -0.3560
     35  C         24.6580  -22.9090  -18.0150 C.3     1  UNL1        0.2100
@<TRIPOS>BOND
     1    35    34    1
     2    34    31    1
     3    31    32    2
     4    31    30    1
     5    32    33    1
     6    30    29    2
     7    33    28    2
     8    29    28    1
     9    28    27    1
    10    19    18    1
    11    21    18    1
    12    27    26    1
    13    18    16    1
    14    18    20    1
    15    15    14    2
    16    15    16    1
    17    14    13    1
    18    16    17    2
    19    24    23    2
    20    26    23    1
    21    23    22   am
    22    13    12    2
    23    17    12    1
    24    12    10    1
    25    22    25    1
    26    22     1    1
    27     6     1    2
    28     6     5    1
    29     1     2    1
    30    11    10    1
    31    10     7    1
    32     5     4    2
    33     2     3    2
    34     4     3    1
    35     4     7    1
    36     7     9    2
    37     7     8    2
