@<TRIPOS>MOLECULE
70936_out_ligand_01.pdbqt
 39 42 0 0 0
SMALL
GASTEIGER

@<TRIPOS>ATOM
      1  N         21.9180  -22.3160  -11.1310 N.am    1  UNL1       -0.3200
      2  C         20.8580  -21.7700  -11.8230 C.2     1  UNL1        0.2560
      3  O         20.9030  -21.2420  -12.9290 O.2     1  UNL1       -0.2670
      4  H         21.7210  -22.8970  -10.3210 H       1  UNL1        0.1690
      5  C         19.5320  -21.9000  -11.1560 C.2     1  UNL1        0.0330
      6  C         18.3930  -21.2540  -11.6460 C.2     1  UNL1        0.0170
      7  C         17.1670  -21.4070  -10.9920 C.2     1  UNL1        0.0090
      8  C         17.0480  -22.2180   -9.8490 C.2     1  UNL1       -0.0390
      9  C         15.7040  -22.3160   -9.1820 C.3     1  UNL1        0.0500
     10  C         18.2010  -22.8740   -9.3730 C.2     1  UNL1        0.0810
     11  C         19.4330  -22.7160  -10.0250 C.2     1  UNL1        0.0420
     12  S         18.1610  -23.9170   -7.9200 S.O2    1  UNL1        0.2460
     13  O         19.3460  -24.7460   -7.9400 O.2     1  UNL1       -0.2060
     14  O         16.8340  -24.4920   -7.8230 O.2     1  UNL1       -0.2060
     15  N         18.2680  -22.7400   -6.6880 N.pl3   1  UNL1       -0.1810
     16  H         18.3060  -21.8250   -7.1380 H       1  UNL1        0.1460
     17  C         17.1960  -22.7990   -5.7360 C.2     1  UNL1        0.0230
     18  C         17.3980  -23.4070   -4.4980 C.2     1  UNL1        0.0240
     19  C         16.3650  -23.4260   -3.5610 C.2     1  UNL1        0.0020
     20  C         15.1400  -22.8250   -3.8560 C.2     1  UNL1        0.0070
     21  C         14.9390  -22.1900   -5.0880 C.2     1  UNL1       -0.0600
     22  C         13.6320  -21.5290   -5.4140 C.3     1  UNL1        0.0480
     23  C         15.9780  -22.1830   -6.0280 C.2     1  UNL1        0.0310
     24  C         23.2800  -22.3260  -11.5080 C.2     1  UNL1        0.0700
     25  C         23.7420  -22.9300  -12.6770 C.2     1  UNL1        0.0570
     26  C         25.1110  -22.9490  -12.9530 C.2     1  UNL1        0.0820
     27  C         26.0170  -22.3090  -12.1020 C.2     1  UNL1        0.0280
     28  C         25.5550  -21.6700  -10.9490 C.2     1  UNL1        0.0400
     29  C         24.1890  -21.6760  -10.6450 C.2     1  UNL1        0.0950
     30  S         25.7010  -23.7430  -14.4380 S.O2    1  UNL1        0.2600
     31  O         25.2070  -25.1050  -14.4150 O.2     1  UNL1       -0.2000
     32  O         27.1170  -23.4660  -14.5470 O.2     1  UNL1       -0.2000
     33  N         24.8960  -22.9340  -15.6740 N.3     1  UNL1       -0.3070
     34  C         25.4840  -21.6980  -16.2280 C.3     1  UNL1        0.1350
     35  C         24.8120  -21.5480  -17.5870 C.3     1  UNL1        0.0220
     36  C         24.6510  -22.9890  -18.0370 C.3     1  UNL1        0.0220
     37  C         24.2350  -23.6990  -16.7550 C.3     1  UNL1        0.1350
     38  O         23.6280  -21.0910   -9.5330 O.2     1  UNL1       -0.3540
     39  C         22.9330  -21.9470   -8.6320 C.3     1  UNL1        0.2100
@<TRIPOS>BOND
     1    36    35    1
     2    36    37    1
     3    35    34    1
     4    37    33    1
     5    34    33    1
     6    33    30    1
     7    32    30    2
     8    30    31    2
     9    30    26    1
    10    26    25    1
    11    26    27    2
    12     3     2    2
    13    25    24    2
    14    27    28    1
    15     2     5    1
    16     2     1   am
    17     6     5    2
    18     6     7    1
    19    24     1    1
    20    24    29    1
    21     5    11    1
    22     1     4    1
    23     7     8    2
    24    28    29    2
    25    29    38    1
    26    11    10    2
    27     8    10    1
    28     8     9    1
    29    38    39    1
    30    10    12    1
    31    13    12    2
    32    12    14    2
    33    12    15    1
    34    16    15    1
    35    15    17    1
    36    23    17    2
    37    23    21    1
    38    17    18    1
    39    22    21    1
    40    21    20    2
    41    18    19    2
    42    20    19    1
