@<TRIPOS>MOLECULE
70935_out_ligand_01.pdbqt
 41 44 0 0 0
SMALL
GASTEIGER

@<TRIPOS>ATOM
      1  C         20.7150  -22.1440  -10.5300 C.2     1  UNL1        0.2560
      2  O         21.4700  -22.0900   -9.5680 O.2     1  UNL1       -0.2670
      3  N         21.0600  -22.0790  -11.8680 N.am    1  UNL1       -0.3230
      4  H         20.3050  -22.0420  -12.5400 H       1  UNL1        0.1690
      5  C         19.2530  -22.2580  -10.2580 C.2     1  UNL1        0.0330
      6  C         18.7510  -23.0400   -9.2140 C.2     1  UNL1        0.0420
      7  C         17.3630  -23.1180   -8.9940 C.2     1  UNL1        0.0810
      8  C         16.4640  -22.4180   -9.8220 C.2     1  UNL1       -0.0390
      9  C         16.9940  -21.6120  -10.8460 C.2     1  UNL1        0.0090
     10  C         14.9720  -22.4470   -9.6510 C.3     1  UNL1        0.0500
     11  C         18.3710  -21.5300  -11.0600 C.2     1  UNL1        0.0170
     12  S         16.8050  -24.1400   -7.6310 S.O2    1  UNL1        0.2460
     13  O         17.9930  -24.5580   -6.9110 O.2     1  UNL1       -0.2060
     14  O         15.8680  -25.1030   -8.1630 O.2     1  UNL1       -0.2060
     15  N         16.0080  -23.0020   -6.6390 N.pl3   1  UNL1       -0.1810
     16  H         15.6420  -22.2610   -7.2400 H       1  UNL1        0.1460
     17  C         16.8430  -22.4460   -5.6050 C.2     1  UNL1        0.0290
     18  C         16.5940  -22.7260   -4.2560 C.2     1  UNL1       -0.0400
     19  C         17.4630  -22.2000   -3.2890 C.2     1  UNL1        0.0090
     20  C         15.4280  -23.5610   -3.8160 C.3     1  UNL1        0.0500
     21  C         18.5550  -21.4100   -3.6580 C.2     1  UNL1        0.0070
     22  C         18.7940  -21.1190   -5.0020 C.2     1  UNL1       -0.0600
     23  C         19.9870  -20.3070   -5.4090 C.3     1  UNL1        0.0480
     24  C         17.9390  -21.6540   -5.9740 C.2     1  UNL1        0.0310
     25  C         22.3570  -21.9550  -12.4110 C.2     1  UNL1        0.0350
     26  C         23.4920  -22.5660  -11.8700 C.2     1  UNL1        0.0310
     27  C         24.7480  -22.3800  -12.4570 C.2     1  UNL1        0.0270
     28  C         24.8670  -21.5890  -13.6010 C.2     1  UNL1        0.0800
     29  C         23.7450  -20.9750  -14.1560 C.2     1  UNL1        0.0270
     30  C         22.4940  -21.1620  -13.5610 C.2     1  UNL1        0.0310
     31  S         26.4730  -21.3250  -14.3110 S.O2    1  UNL1        0.2760
     32  O         27.1190  -20.2150  -13.6410 O.2     1  UNL1       -0.2000
     33  O         27.1180  -22.6240  -14.3470 O.2     1  UNL1       -0.2000
     34  N         26.1570  -20.9290  -15.8910 N.pl3   1  UNL1       -0.1090
     35  H         26.4810  -21.6190  -16.5570 H       1  UNL1        0.1980
     36  C         26.4060  -19.6240  -16.2870 C.cat   1  UNL1        0.7350
     37  N         26.4010  -18.6510  -15.3740 N.2     1  UNL1       -0.0740
     38  C         26.4860  -17.3990  -15.8610 C.2     1  UNL1        0.1380
     39  C         26.5320  -17.1080  -17.2050 C.2     1  UNL1        0.0400
     40  C         26.4750  -18.1940  -18.0470 C.2     1  UNL1        0.1380
     41  N         26.3890  -19.4670  -17.6160 N.2     1  UNL1       -0.0740
@<TRIPOS>BOND
     1    40    41    2
     2    40    39    1
     3    41    36    1
     4    39    38    2
     5    35    34    1
     6    36    34    1
     7    36    37    2
     8    34    31    1
     9    38    37    1
    10    33    31    2
    11    31    32    2
    12    31    28    1
    13    29    28    2
    14    29    30    1
    15    28    27    1
    16    30    25    2
    17     4     3    1
    18    27    26    2
    19    25    26    1
    20    25     3    1
    21     3     1   am
    22    11     9    1
    23    11     5    2
    24     9     8    2
    25     1     5    1
    26     1     2    2
    27     5     6    1
    28     8    10    1
    29     8     7    1
    30     6     7    2
    31     7    12    1
    32    14    12    2
    33    12    13    2
    34    12    15    1
    35    16    15    1
    36    15    17    1
    37    24    17    2
    38    24    22    1
    39    17    18    1
    40    23    22    1
    41    22    21    2
    42    18    20    1
    43    18    19    2
    44    21    19    1
