@<TRIPOS>MOLECULE
70946_out_ligand_01.pdbqt
 29 32 0 0 0
SMALL
GASTEIGER

@<TRIPOS>ATOM
      1  C         20.7130  -22.0880  -11.1790 C.2     1  UNL1        0.0320
      2  C         19.5860  -21.2840  -11.3940 C.2     1  UNL1        0.0170
      3  C         18.4460  -21.4510  -10.6020 C.2     1  UNL1        0.0100
      4  C         18.4110  -22.4300   -9.5980 C.2     1  UNL1       -0.0400
      5  C         19.5440  -23.2340   -9.3950 C.2     1  UNL1        0.0100
      6  C         20.6830  -23.0730  -10.1860 C.2     1  UNL1        0.0170
      7  C         21.9460  -21.9410  -12.0020 C.2     1  UNL1        0.2560
      8  N         23.0780  -22.5180  -11.4530 N.am    1  UNL1       -0.3230
      9  H         22.9450  -23.0910  -10.6310 H       1  UNL1        0.1690
     10  O         21.8610  -21.3770  -13.0850 O.2     1  UNL1       -0.2670
     11  C         24.3880  -22.4960  -11.9790 C.2     1  UNL1        0.0360
     12  C         25.2210  -21.4480  -11.5700 C.2     1  UNL1        0.0290
     13  C         26.5280  -21.3520  -12.0500 C.2     1  UNL1        0.0040
     14  C         27.0110  -22.3070  -12.9440 C.2     1  UNL1        0.0180
     15  C         26.1960  -23.3640  -13.3600 C.2     1  UNL1        0.0020
     16  C         24.8810  -23.4410  -12.8840 C.2     1  UNL1        0.0480
     17  S         26.8770  -24.5380  -14.5230 S.3     1  UNL1       -0.1340
     18  C         25.3680  -25.3160  -15.1630 C.3     1  UNL1        0.0950
     19  C         17.1830  -22.5880   -8.7200 C.3     1  UNL1        0.1610
     20  N         17.4850  -23.3700   -7.5080 N.pl3   1  UNL1       -0.3760
     21  C         16.6190  -24.5310   -7.2540 C.3     1  UNL1        0.1230
     22  C         15.4400  -24.1530   -6.3720 C.3     1  UNL1        0.0240
     23  C         15.9600  -23.6930   -5.0190 C.3     1  UNL1        0.0420
     24  C         17.1000  -22.7170   -5.1620 C.2     1  UNL1       -0.0320
     25  C         17.4680  -21.9440   -4.0470 C.2     1  UNL1        0.0090
     26  C         17.8090  -22.6000   -6.3740 C.2     1  UNL1        0.0360
     27  C         18.5290  -21.0470   -4.1260 C.2     1  UNL1        0.0010
     28  C         19.2430  -20.9260   -5.3120 C.2     1  UNL1        0.0020
     29  C         18.8870  -21.6990   -6.4200 C.2     1  UNL1        0.0300
@<TRIPOS>BOND
     1    18    17    1
     2    17    15    1
     3    15    14    2
     4    15    16    1
     5    10     7    2
     6    14    13    1
     7    16    11    2
     8    13    12    2
     9     7     8   am
    10     7     1    1
    11    11    12    1
    12    11     8    1
    13     8     9    1
    14     2     1    2
    15     2     3    1
    16     1     6    1
    17     3     4    2
    18     6     5    2
    19     4     5    1
    20     4    19    1
    21    19    20    1
    22    20    21    1
    23    20    26    1
    24    21    22    1
    25    29    26    1
    26    29    28    2
    27    26    24    2
    28    22    23    1
    29    28    27    1
    30    24    23    1
    31    24    25    1
    32    27    25    2
