@<TRIPOS>MOLECULE
70947_out_ligand_01.pdbqt
 31 34 0 0 0
SMALL
GASTEIGER

@<TRIPOS>ATOM
      1  C         22.9760  -22.4160   -9.5180 C.2     1  UNL1        0.0320
      2  C         22.6860  -21.5820   -8.4300 C.2     1  UNL1        0.0170
      3  C         21.5330  -21.7910   -7.6700 C.2     1  UNL1        0.0100
      4  C         20.6580  -22.8420   -7.9800 C.2     1  UNL1       -0.0300
      5  C         20.9600  -23.6800   -9.0630 C.2     1  UNL1        0.0100
      6  C         22.1140  -23.4750   -9.8260 C.2     1  UNL1        0.0170
      7  C         24.2220  -22.1560  -10.2930 C.2     1  UNL1        0.2520
      8  N         24.7580  -23.2320  -10.9680 N.am    1  UNL1       -0.3480
      9  H         24.1950  -24.0640  -11.0860 H       1  UNL1        0.1630
     10  O         24.6990  -21.0280  -10.3340 O.2     1  UNL1       -0.2680
     11  C         25.9240  -23.0890  -11.8310 C.3     1  UNL1        0.1170
     12  C         27.0130  -24.1210  -11.4690 C.3     1  UNL1        0.0250
     13  C         27.1210  -24.3720   -9.9710 C.3     1  UNL1        0.0070
     14  C         25.4760  -23.1740  -13.2820 C.2     1  UNL1       -0.0350
     15  C         25.6220  -24.3520  -14.0310 C.2     1  UNL1        0.0100
     16  C         25.1910  -24.4130  -15.3580 C.2     1  UNL1        0.0070
     17  C         24.5880  -23.3050  -15.9600 C.2     1  UNL1       -0.0620
     18  C         24.1570  -23.3580  -17.3970 C.3     1  UNL1        0.0480
     19  C         24.4430  -22.1270  -15.2210 C.2     1  UNL1        0.0070
     20  C         24.8740  -22.0650  -13.8930 C.2     1  UNL1        0.0100
     21  C         19.4080  -23.0700   -7.1530 C.3     1  UNL1        0.3110
     22  N         18.4530  -23.9890   -7.7930 N.3     1  UNL1        0.0970
     23  C         17.6200  -23.3050   -8.7970 C.3     1  UNL1        0.2770
     24  C         16.6810  -22.2320   -8.2230 C.3     1  UNL1        0.0690
     25  C         16.0130  -22.6600   -6.9400 C.2     1  UNL1       -0.0490
     26  C         14.9720  -21.8910   -6.4020 C.2     1  UNL1        0.0070
     27  C         16.4750  -23.7920   -6.2450 C.2     1  UNL1       -0.0240
     28  C         14.3780  -22.2570   -5.1960 C.2     1  UNL1        0.0010
     29  C         14.8220  -23.3880   -4.5130 C.2     1  UNL1        0.0010
     30  C         15.8620  -24.1540   -5.0370 C.2     1  UNL1        0.0090
     31  C         17.5730  -24.6630   -6.8210 C.3     1  UNL1        0.3110
@<TRIPOS>BOND
     1    18    17    1
     2    17    16    2
     3    17    19    1
     4    16    15    1
     5    19    20    2
     6    15    14    2
     7    20    14    1
     8    14    11    1
     9    11    12    1
    10    11     8    1
    11    12    13    1
    12     9     8    1
    13     8     7   am
    14    10     7    2
    15     7     1    1
    16     6     1    2
    17     6     5    1
    18     1     2    1
    19     5     4    2
    20    23    24    1
    21    23    22    1
    22     2     3    2
    23    24    25    1
    24     4     3    1
    25     4    21    1
    26    22    21    1
    27    22    31    1
    28    25    26    2
    29    25    27    1
    30    31    27    1
    31    26    28    1
    32    27    30    2
    33    28    29    2
    34    30    29    1
