@<TRIPOS>MOLECULE
70958_out_ligand_01.pdbqt
 36 39 0 0 0
SMALL
GASTEIGER

@<TRIPOS>ATOM
      1  C         16.2100  -22.5470   -7.7910 C.2     1  UNL1        0.0490
      2  C         16.8770  -21.7700   -8.7380 C.2     1  UNL1        0.0470
      3  C         16.9860  -22.2200  -10.0560 C.2     1  UNL1        0.0340
      4  C         16.4090  -23.4360  -10.4360 C.2     1  UNL1        0.0170
      5  C         15.7340  -24.2060   -9.4880 C.2     1  UNL1        0.0100
      6  C         15.6300  -23.7750   -8.1550 C.2     1  UNL1       -0.0350
      7  C         14.9240  -24.6460   -7.1550 C.3     1  UNL1        0.0500
      8  C         17.7190  -21.3790  -11.0320 C.2     1  UNL1        0.2520
      9  O         17.2240  -20.3350  -11.4380 O.2     1  UNL1       -0.2680
     10  N         18.9690  -21.8360  -11.3850 N.am    1  UNL1       -0.3530
     11  H         19.3830  -22.5730  -10.8320 H       1  UNL1        0.1630
     12  C         19.8700  -21.0130  -12.1590 C.3     1  UNL1        0.1610
     13  C         21.2570  -21.6050  -12.1810 C.2     1  UNL1       -0.0400
     14  C         21.6080  -22.6160  -11.2800 C.2     1  UNL1        0.0110
     15  C         22.8820  -23.1890  -11.3100 C.2     1  UNL1        0.0300
     16  C         23.8340  -22.7580  -12.2470 C.2     1  UNL1        0.0400
     17  C         23.4750  -21.7670  -13.1680 C.2     1  UNL1        0.0300
     18  C         22.1970  -21.1970  -13.1340 C.2     1  UNL1        0.0110
     19  N         25.1270  -23.3600  -12.2690 N.pl3   1  UNL1       -0.3090
     20  C         26.0590  -23.2640  -11.2520 C.2     1  UNL1        0.1180
     21  C         27.1200  -24.0520  -11.6190 C.2     1  UNL1        0.1360
     22  N         26.9090  -24.5930  -12.8480 N.2     1  UNL1       -0.2460
     23  C         25.7330  -24.1450  -13.2510 C.2     1  UNL1        0.1060
     24  C         25.2110  -24.3810  -14.6220 C.3     1  UNL1        0.0910
     25  N         16.1970  -22.1080   -6.4370 N.pl3   1  UNL1       -0.2800
     26  H         15.2960  -22.0150   -5.9750 H       1  UNL1        0.1790
     27  S         17.3480  -22.7630   -5.3810 S.O2    1  UNL1        0.2630
     28  O         17.1610  -24.1950   -5.2920 O.2     1  UNL1       -0.2000
     29  O         17.3160  -21.9320   -4.1950 O.2     1  UNL1       -0.2000
     30  C         18.8770  -22.4320   -6.2140 C.2     1  UNL1        0.0790
     31  C         19.3700  -23.3390   -7.1560 C.2     1  UNL1        0.0260
     32  C         20.5750  -23.0690   -7.8050 C.2     1  UNL1        0.0080
     33  C         21.3000  -21.9080   -7.5000 C.2     1  UNL1       -0.0620
     34  C         22.5840  -21.6000   -8.2120 C.3     1  UNL1        0.0480
     35  C         20.7920  -21.0090   -6.5520 C.2     1  UNL1        0.0080
     36  C         19.5870  -21.2710   -5.9010 C.2     1  UNL1        0.0260
@<TRIPOS>BOND
     1    24    23    1
     2    23    22    2
     3    23    19    1
     4    17    18    1
     5    17    16    2
     6    18    13    2
     7    22    21    1
     8    19    16    1
     9    19    20    1
    10    16    15    1
    11    13    12    1
    12    13    14    1
    13    12    10    1
    14    21    20    2
    15     9     8    2
    16    10     8   am
    17    10    11    1
    18    15    14    2
    19     8     3    1
    20     4     3    2
    21     4     5    1
    22     3     2    1
    23     5     6    2
    24     2     1    2
    25    34    33    1
    26     6     1    1
    27     6     7    1
    28    32    33    2
    29    32    31    1
    30     1    25    1
    31    33    35    1
    32    31    30    2
    33    35    36    2
    34    25    26    1
    35    25    27    1
    36    30    36    1
    37    30    27    1
    38    27    28    2
    39    27    29    2
