@<TRIPOS>MOLECULE
70950_out_ligand_01.pdbqt
 31 33 0 0 0
SMALL
GASTEIGER

@<TRIPOS>ATOM
      1  C         22.1610  -22.8990   -8.9860 C.2     1  UNL1        0.0320
      2  C         21.6090  -24.0850   -9.4880 C.2     1  UNL1        0.0190
      3  C         20.3780  -24.5400   -9.0100 C.2     1  UNL1        0.0250
      4  C         19.6970  -23.8140   -8.0320 C.2     1  UNL1        0.0220
      5  C         20.2580  -22.6550   -7.4950 C.2     1  UNL1        0.0250
      6  C         21.4890  -22.1970   -7.9770 C.2     1  UNL1        0.0190
      7  C         23.4680  -22.3660   -9.4650 C.2     1  UNL1        0.2520
      8  N         24.4140  -23.3030   -9.8240 N.am    1  UNL1       -0.3490
      9  H         24.1220  -24.2590   -9.9690 H       1  UNL1        0.1630
     10  O         23.6420  -21.1590   -9.5570 O.2     1  UNL1       -0.2680
     11  C         25.6900  -22.9140  -10.4060 C.3     1  UNL1        0.1140
     12  C         26.7680  -23.9930  -10.2460 C.3     1  UNL1        0.0370
     13  C         25.4920  -22.4770  -11.8550 C.2     1  UNL1       -0.0300
     14  C         24.9660  -23.4370  -12.7450 C.2     1  UNL1        0.0100
     15  C         24.7390  -23.1410  -14.0910 C.2     1  UNL1        0.0070
     16  C         25.0380  -21.8750  -14.5920 C.2     1  UNL1       -0.0610
     17  C         24.7510  -21.5330  -16.0240 C.3     1  UNL1        0.0480
     18  C         25.5600  -20.9110  -13.7220 C.2     1  UNL1        0.0140
     19  C         25.8140  -21.1970  -12.3640 C.2     1  UNL1       -0.0530
     20  C         26.3750  -20.0820  -11.5230 C.3     1  UNL1        0.0490
     21  N         18.4590  -24.3230   -7.5290 N.pl3   1  UNL1       -0.1810
     22  H         18.2730  -25.2540   -7.9110 H       1  UNL1        0.1460
     23  S         17.1000  -23.3660   -7.9370 S.O2    1  UNL1        0.2450
     24  O         17.5250  -22.1390   -8.5750 O.2     1  UNL1       -0.2060
     25  O         16.1450  -24.2680   -8.5480 O.2     1  UNL1       -0.2060
     26  C         16.5090  -22.9470   -6.3150 C.2     1  UNL1        0.0740
     27  C         17.3670  -23.0300   -5.2140 C.2     1  UNL1        0.0250
     28  C         16.8870  -22.6910   -3.9480 C.2     1  UNL1        0.0020
     29  C         15.5610  -22.2860   -3.7880 C.2     1  UNL1        0.0000
     30  C         14.7070  -22.2170   -4.8910 C.2     1  UNL1        0.0020
     31  C         15.1770  -22.5520   -6.1590 C.2     1  UNL1        0.0250
@<TRIPOS>BOND
     1    17    16    1
     2    16    15    2
     3    16    18    1
     4    15    14    1
     5    18    19    2
     6    14    13    2
     7    19    13    1
     8    19    20    1
     9    13    11    1
    10    11    12    1
    11    11     8    1
    12     9     8    1
    13     8     7   am
    14    10     7    2
    15     2     3    1
    16     2     1    2
    17     7     1    1
    18     3     4    2
    19     1     6    1
    20    24    23    2
    21    25    23    2
    22     4    21    1
    23     4     5    1
    24     6     5    2
    25    23    21    1
    26    23    26    1
    27    22    21    1
    28    26    31    2
    29    26    27    1
    30    31    30    1
    31    27    28    2
    32    30    29    2
    33    28    29    1
