@<TRIPOS>MOLECULE
70951_out_ligand_01.pdbqt
 28 31 0 0 0
SMALL
GASTEIGER

@<TRIPOS>ATOM
      1  C         20.5430  -22.9410  -10.2730 C.2     1  UNL1        0.0320
      2  C         20.9250  -23.8520   -9.2820 C.2     1  UNL1        0.0170
      3  C         19.9890  -24.3190   -8.3550 C.2     1  UNL1        0.0100
      4  C         18.6580  -23.8780   -8.4060 C.2     1  UNL1       -0.0400
      5  C         18.2910  -22.9410   -9.3850 C.2     1  UNL1        0.0100
      6  C         19.2250  -22.4730  -10.3140 C.2     1  UNL1        0.0170
      7  C         21.5730  -22.4740  -11.2440 C.2     1  UNL1        0.2560
      8  O         21.2070  -21.8100  -12.2060 O.2     1  UNL1       -0.2670
      9  N         22.8740  -22.8190  -10.9190 N.am    1  UNL1       -0.3230
     10  H         23.0180  -23.2550  -10.0180 H       1  UNL1        0.1690
     11  C         24.0420  -22.5500  -11.6640 C.2     1  UNL1        0.0360
     12  C         24.5500  -23.3980  -12.6510 C.2     1  UNL1        0.0290
     13  C         25.7200  -23.0650  -13.3430 C.2     1  UNL1        0.0040
     14  C         26.3940  -21.8820  -13.0520 C.2     1  UNL1        0.0190
     15  C         25.8950  -21.0360  -12.0670 C.2     1  UNL1        0.0130
     16 BR         26.8050  -19.4280  -11.6630 Br      1  UNL1       -0.0510
     17  C         24.7270  -21.3630  -11.3730 C.2     1  UNL1        0.0480
     18  C         17.6490  -24.3610   -7.3810 C.3     1  UNL1        0.1610
     19  N         16.8330  -23.2410   -6.8770 N.pl3   1  UNL1       -0.3760
     20  C         15.4030  -23.5220   -6.6850 C.3     1  UNL1        0.1230
     21  C         15.1190  -23.9790   -5.2630 C.3     1  UNL1        0.0240
     22  C         15.4760  -22.8560   -4.3010 C.3     1  UNL1        0.0420
     23  C         16.8250  -22.2630   -4.6150 C.2     1  UNL1       -0.0320
     24  C         17.4520  -21.4680   -3.6400 C.2     1  UNL1        0.0090
     25  C         17.4400  -22.4730   -5.8660 C.2     1  UNL1        0.0360
     26  C         18.6910  -20.8830   -3.8910 C.2     1  UNL1        0.0010
     27  C         19.3070  -21.0770   -5.1210 C.2     1  UNL1        0.0020
     28  C         18.6820  -21.8590   -6.0980 C.2     1  UNL1        0.0300
@<TRIPOS>BOND
     1    13    14    2
     2    13    12    1
     3    14    15    1
     4    12    11    2
     5     8     7    2
     6    15    16    1
     7    15    17    2
     8    11    17    1
     9    11     9    1
    10     7     9   am
    11     7     1    1
    12     9    10    1
    13     6     1    2
    14     6     5    1
    15     1     2    1
    16     5     4    2
    17     2     3    2
    18     4     3    1
    19     4    18    1
    20    18    19    1
    21    19    20    1
    22    19    25    1
    23    20    21    1
    24    28    25    1
    25    28    27    2
    26    25    23    2
    27    21    22    1
    28    27    26    1
    29    23    22    1
    30    23    24    1
    31    26    24    2
