@<TRIPOS>MOLECULE
70962_out_ligand_01.pdbqt
 31 33 0 0 0
SMALL
GASTEIGER

@<TRIPOS>ATOM
      1  C         21.1820  -23.3180   -9.7920 C.2     1  UNL1        0.0340
      2  C         20.7430  -24.1910   -8.7870 C.2     1  UNL1        0.0310
      3  C         19.4080  -24.1970   -8.3770 C.2     1  UNL1        0.0270
      4  C         18.5040  -23.3140   -8.9670 C.2     1  UNL1        0.0800
      5  C         18.9170  -22.4590   -9.9920 C.2     1  UNL1        0.0270
      6  C         20.2580  -22.4600  -10.3950 C.2     1  UNL1        0.0310
      7  N         22.5470  -23.3740  -10.1350 N.am    1  UNL1       -0.3270
      8  C         23.5370  -22.4540   -9.8330 C.2     1  UNL1        0.2260
      9  O         23.3790  -21.4060   -9.2090 O.2     1  UNL1       -0.2730
     10  H         22.8490  -24.2240  -10.5960 H       1  UNL1        0.1690
     11  C         24.9090  -22.7950  -10.4060 C.3     1  UNL1        0.1420
     12  C         25.4350  -21.8130  -11.4350 C.2     1  UNL1       -0.0430
     13  C         25.3970  -22.0690  -12.8210 C.2     1  UNL1       -0.0550
     14  C         25.9190  -21.1120  -13.7050 C.2     1  UNL1        0.0080
     15  C         24.7900  -23.3230  -13.3900 C.3     1  UNL1        0.0490
     16  C         26.4850  -19.9270  -13.2300 C.2     1  UNL1        0.0070
     17  C         26.5470  -19.6740  -11.8600 C.2     1  UNL1       -0.0610
     18  C         27.1210  -18.3870  -11.3470 C.3     1  UNL1        0.0480
     19  C         26.0090  -20.6140  -10.9730 C.2     1  UNL1        0.0140
     20  S         16.8010  -23.3120   -8.4540 S.O2    1  UNL1        0.2630
     21  O         16.5600  -24.5280   -7.7070 O.2     1  UNL1       -0.2000
     22  O         15.9970  -22.9770   -9.6100 O.2     1  UNL1       -0.2000
     23  N         16.7070  -21.9790   -7.4220 N.pl3   1  UNL1       -0.2800
     24  H         17.2130  -21.1740   -7.7860 H       1  UNL1        0.1790
     25  C         16.6650  -22.1690   -6.0110 C.2     1  UNL1        0.0480
     26  C         15.4790  -22.6040   -5.4100 C.2     1  UNL1        0.0300
     27  C         15.4200  -22.8200   -4.0330 C.2     1  UNL1        0.0020
     28  C         16.5490  -22.5980   -3.2500 C.2     1  UNL1        0.0010
     29  C         17.7320  -22.1530   -3.8400 C.2     1  UNL1        0.0090
     30  C         17.8070  -21.9330   -5.2260 C.2     1  UNL1       -0.0350
     31  C         19.0970  -21.4350   -5.8150 C.3     1  UNL1        0.0500
@<TRIPOS>BOND
     1    14    16    2
     2    14    13    1
     3    15    13    1
     4    16    17    1
     5    13    12    2
     6    17    18    1
     7    17    19    2
     8    12    19    1
     9    12    11    1
    10    10     7    1
    11    11     8    1
    12     6     5    1
    13     6     1    2
    14     7     8   am
    15     7     1    1
    16     5     4    2
    17     8     9    2
    18     1     2    1
    19    22    20    2
    20     4    20    1
    21     4     3    1
    22     2     3    2
    23    20    21    2
    24    20    23    1
    25    24    23    1
    26    23    25    1
    27    25    26    2
    28    25    30    1
    29    31    30    1
    30    26    27    1
    31    30    29    2
    32    27    28    2
    33    29    28    1
