@<TRIPOS>MOLECULE
70967_out_ligand_01.pdbqt
 37 40 0 0 0
SMALL
GASTEIGER

@<TRIPOS>ATOM
      1  C         21.1410  -22.9050  -10.1920 C.2     1  UNL1        0.0340
      2  C         20.0410  -22.1470  -10.6040 C.2     1  UNL1        0.0310
      3  C         18.7890  -22.3320  -10.0090 C.2     1  UNL1        0.0270
      4  C         18.6410  -23.2730   -8.9880 C.2     1  UNL1        0.0800
      5  C         19.7250  -24.0520   -8.5800 C.2     1  UNL1        0.0270
      6  C         20.9720  -23.8630   -9.1820 C.2     1  UNL1        0.0310
      7  N         22.4290  -22.7780  -10.7410 N.am    1  UNL1       -0.3250
      8  C         23.4260  -21.8840  -10.3870 C.2     1  UNL1        0.2510
      9  O         23.3620  -21.0300   -9.5070 O.2     1  UNL1       -0.2700
     10  H         22.6960  -23.4580  -11.4480 H       1  UNL1        0.1690
     11  C         24.6950  -22.0290  -11.2540 C.3     1  UNL1        0.2200
     12  C         25.7870  -21.0790  -10.7330 C.3     1  UNL1        0.0380
     13  C         26.3310  -20.1090  -11.7750 C.3     1  UNL1        0.0080
     14  O         24.4820  -21.7390  -12.6360 O.2     1  UNL1       -0.3360
     15  C         24.7930  -22.6860  -13.5830 C.2     1  UNL1        0.0810
     16  C         24.9590  -24.0480  -13.3110 C.2     1  UNL1        0.0380
     17  C         25.2470  -24.9400  -14.3430 C.2     1  UNL1        0.0040
     18  C         25.3660  -24.4830  -15.6530 C.2     1  UNL1        0.0120
     19  C         25.2000  -23.1250  -15.9540 C.2     1  UNL1       -0.0230
     20  C         25.3180  -22.6690  -17.2780 C.2     1  UNL1        0.0120
     21  C         24.9090  -22.2080  -14.9140 C.2     1  UNL1        0.0070
     22  C         25.1520  -21.3190  -17.5880 C.2     1  UNL1        0.0010
     23  C         24.8670  -20.4080  -16.5790 C.2     1  UNL1        0.0010
     24  C         24.7480  -20.8470  -15.2590 C.2     1  UNL1        0.0150
     25  S         17.0460  -23.5280   -8.2520 S.O2    1  UNL1        0.2630
     26  O         16.0700  -23.4990   -9.3220 O.2     1  UNL1       -0.2000
     27  O         17.1340  -24.6680   -7.3660 O.2     1  UNL1       -0.2000
     28  N         16.8010  -22.1130   -7.3690 N.pl3   1  UNL1       -0.2800
     29  H         16.1050  -21.5030   -7.7940 H       1  UNL1        0.1790
     30  C         16.8760  -22.1440   -5.9460 C.2     1  UNL1        0.0540
     31  C         15.7360  -22.4430   -5.1760 C.2     1  UNL1       -0.0340
     32  C         14.3870  -22.7380   -5.7730 C.3     1  UNL1        0.0500
     33  C         15.8590  -22.5120   -3.7780 C.2     1  UNL1        0.0090
     34  C         17.0750  -22.2470   -3.1550 C.2     1  UNL1        0.0010
     35  C         18.1830  -21.8950   -3.9200 C.2     1  UNL1        0.0090
     36  C         18.0940  -21.8180   -5.3190 C.2     1  UNL1       -0.0340
     37  C         19.3240  -21.3980   -6.0770 C.3     1  UNL1        0.0500
@<TRIPOS>BOND
     1    22    20    2
     2    22    23    1
     3    20    19    1
     4    23    24    2
     5    19    18    2
     6    19    21    1
     7    18    17    1
     8    24    21    1
     9    21    15    2
    10    17    16    2
    11    15    16    1
    12    15    14    1
    13    14    11    1
    14    13    12    1
    15    10     7    1
    16    11    12    1
    17    11     8    1
    18     7     8   am
    19     7     1    1
    20     2     1    2
    21     2     3    1
    22     8     9    2
    23     1     6    1
    24     3     4    2
    25    26    25    2
    26     6     5    2
    27     4     5    1
    28     4    25    1
    29    25    28    1
    30    25    27    2
    31    29    28    1
    32    28    30    1
    33    37    36    1
    34    30    36    2
    35    30    31    1
    36    32    31    1
    37    36    35    1
    38    31    33    2
    39    35    34    2
    40    33    34    1
