@<TRIPOS>MOLECULE
70968_out_ligand_01.pdbqt
 39 43 0 0 0
SMALL
GASTEIGER

@<TRIPOS>ATOM
      1  O         22.6280  -21.3740   -9.4810 O.2     1  UNL1       -0.2670
      2  C         22.5380  -22.0960  -10.4650 C.2     1  UNL1        0.2560
      3  N         21.5700  -23.0550  -10.7020 N.am    1  UNL1       -0.3230
      4  H         21.7080  -23.6540  -11.5060 H       1  UNL1        0.1690
      5  C         20.4520  -23.3600   -9.8990 C.2     1  UNL1        0.0350
      6  C         19.2160  -22.8240  -10.2930 C.2     1  UNL1        0.0310
      7  C         18.0590  -23.0660   -9.5470 C.2     1  UNL1        0.0270
      8  C         18.1380  -23.8520   -8.3970 C.2     1  UNL1        0.0750
      9  C         19.3560  -24.4020   -7.9950 C.2     1  UNL1        0.0270
     10  C         20.5100  -24.1480   -8.7450 C.2     1  UNL1        0.0310
     11  S         16.6830  -24.1650   -7.4300 S.O2    1  UNL1        0.2450
     12  O         17.0950  -24.9590   -6.2930 O.2     1  UNL1       -0.2060
     13  O         15.6250  -24.6040   -8.3160 O.2     1  UNL1       -0.2060
     14  N         16.3090  -22.6240   -6.8240 N.pl3   1  UNL1       -0.1800
     15  H         16.2100  -21.9800   -7.6120 H       1  UNL1        0.1460
     16  C         17.1190  -22.1470   -5.7410 C.2     1  UNL1        0.0440
     17  C         18.3230  -21.4970   -6.0240 C.2     1  UNL1        0.0260
     18  C         19.0940  -20.9730   -4.9850 C.2     1  UNL1        0.0020
     19  C         18.6630  -21.0870   -3.6630 C.2     1  UNL1        0.0020
     20  C         17.4570  -21.7300   -3.3750 C.2     1  UNL1        0.0260
     21  C         16.6840  -22.2570   -4.4110 C.2     1  UNL1        0.0560
     22 CL         15.2070  -23.0620   -4.0190 Cl      1  UNL1       -0.0820
     23  C         23.5800  -21.9780  -11.5260 C.2     1  UNL1        0.0320
     24  C         24.9460  -22.0720  -11.2350 C.2     1  UNL1        0.0170
     25  C         25.8900  -21.9630  -12.2610 C.2     1  UNL1        0.0100
     26  C         25.4850  -21.7770  -13.5910 C.2     1  UNL1       -0.0400
     27  C         24.1120  -21.6900  -13.8720 C.2     1  UNL1        0.0100
     28  C         23.1660  -21.7990  -12.8500 C.2     1  UNL1        0.0170
     29  C         26.5170  -21.6380  -14.6950 C.3     1  UNL1        0.1610
     30  N         26.0630  -20.6980  -15.7290 N.pl3   1  UNL1       -0.3760
     31  C         25.7940  -21.3070  -17.0380 C.3     1  UNL1        0.1230
     32  C         24.9920  -20.3730  -17.9240 C.3     1  UNL1        0.0240
     33  C         25.7960  -19.1060  -18.1530 C.3     1  UNL1        0.0420
     34  C         26.2760  -18.5310  -16.8430 C.2     1  UNL1       -0.0320
     35  C         26.6240  -17.1660  -16.8140 C.2     1  UNL1        0.0090
     36  C         26.3940  -19.3410  -15.6900 C.2     1  UNL1        0.0360
     37  C         27.0480  -16.5690  -15.6330 C.2     1  UNL1        0.0010
     38  C         27.1190  -17.3300  -14.4760 C.2     1  UNL1        0.0020
     39  C         26.7890  -18.6910  -14.5070 C.2     1  UNL1        0.0300
@<TRIPOS>BOND
     1    33    32    1
     2    33    34    1
     3    32    31    1
     4    31    30    1
     5    34    35    2
     6    34    36    1
     7    35    37    1
     8    30    36    1
     9    30    29    1
    10    36    39    2
    11    37    38    2
    12    29    26    1
    13    39    38    1
    14    27    26    2
    15    27    28    1
    16    26    25    1
    17    28    23    2
    18    25    24    2
    19    23    24    1
    20    23     2    1
    21     4     3    1
    22     3     2   am
    23     3     5    1
    24     2     1    2
    25     6     5    2
    26     6     7    1
    27     5    10    1
    28     7     8    2
    29    10     9    2
    30     8     9    1
    31     8    11    1
    32    13    11    2
    33    15    14    1
    34    11    14    1
    35    11    12    2
    36    14    16    1
    37    17    16    2
    38    17    18    1
    39    16    21    1
    40    18    19    2
    41    21    22    1
    42    21    20    2
    43    19    20    1
