@<TRIPOS>MOLECULE
70979_out_ligand_01.pdbqt
 33 35 0 0 0
SMALL
GASTEIGER

@<TRIPOS>ATOM
      1  C         18.5350  -22.2050  -10.1540 C.2     1  UNL1        0.0810
      2  C         19.8740  -22.6280  -10.1010 C.2     1  UNL1        0.0420
      3  C         20.8170  -22.0910  -10.9840 C.2     1  UNL1        0.0330
      4  C         20.4200  -21.1400  -11.9280 C.2     1  UNL1        0.0170
      5  C         19.0860  -20.7190  -11.9790 C.2     1  UNL1        0.0090
      6  C         18.1230  -21.2450  -11.1000 C.2     1  UNL1       -0.0390
      7  C         16.7140  -20.7310  -11.2030 C.3     1  UNL1        0.0500
      8  C         22.2160  -22.5910  -10.9170 C.2     1  UNL1        0.2520
      9  O         22.5030  -23.5040  -10.1510 O.2     1  UNL1       -0.2680
     10  N         23.1250  -21.9600  -11.7360 N.am    1  UNL1       -0.3490
     11  H         22.8660  -21.1100  -12.2180 H       1  UNL1        0.1630
     12  C         24.5320  -22.3280  -11.7550 C.3     1  UNL1        0.1140
     13  C         25.3660  -21.3800  -10.8800 C.3     1  UNL1        0.0370
     14  C         24.9940  -22.4090  -13.2080 C.2     1  UNL1       -0.0300
     15  C         24.3410  -21.6610  -14.2070 C.2     1  UNL1        0.0100
     16  C         24.7350  -21.7320  -15.5430 C.2     1  UNL1        0.0070
     17  C         25.7800  -22.5750  -15.9270 C.2     1  UNL1       -0.0610
     18  C         26.2320  -22.6240  -17.3550 C.3     1  UNL1        0.0480
     19  C         26.4340  -23.3310  -14.9500 C.2     1  UNL1        0.0140
     20  C         26.0420  -23.2760  -13.5990 C.2     1  UNL1       -0.0530
     21  C         26.7860  -24.1310  -12.6030 C.3     1  UNL1        0.0490
     22  S         17.3970  -22.9200   -8.9720 S.O2    1  UNL1        0.2460
     23  O         16.6620  -21.8380   -8.3510 O.2     1  UNL1       -0.2060
     24  O         16.7170  -24.0230   -9.6140 O.2     1  UNL1       -0.2060
     25  N         18.4920  -23.4910   -7.7920 N.pl3   1  UNL1       -0.1810
     26  H         19.4210  -23.4480   -8.2180 H       1  UNL1        0.1460
     27  C         18.4770  -22.7260   -6.5790 C.2     1  UNL1        0.0230
     28  C         19.3100  -21.6150   -6.4700 C.2     1  UNL1        0.0240
     29  C         19.3230  -20.8720   -5.2900 C.2     1  UNL1        0.0020
     30  C         18.5150  -21.2530   -4.2150 C.2     1  UNL1        0.0070
     31  C         17.7020  -22.3900   -4.3040 C.2     1  UNL1       -0.0600
     32  C         16.8240  -22.7900   -3.1550 C.3     1  UNL1        0.0480
     33  C         17.6830  -23.1220   -5.5000 C.2     1  UNL1        0.0310
@<TRIPOS>BOND
     1    18    17    1
     2    17    16    2
     3    17    19    1
     4    16    15    1
     5    19    20    2
     6    15    14    2
     7    20    14    1
     8    20    21    1
     9    14    12    1
    10    11    10    1
    11     5     4    2
    12     5     6    1
    13     4     3    1
    14    12    10    1
    15    12    13    1
    16    10     8   am
    17     7     6    1
    18     6     1    2
    19     3     8    1
    20     3     2    2
    21     8     9    2
    22     1     2    1
    23     1    22    1
    24    24    22    2
    25    22    23    2
    26    22    25    1
    27    26    25    1
    28    25    27    1
    29    27    28    2
    30    27    33    1
    31    28    29    1
    32    33    31    2
    33    29    30    2
    34    31    30    1
    35    31    32    1
