@<TRIPOS>MOLECULE
70988_out_ligand_01.pdbqt
 33 36 0 0 0
SMALL
GASTEIGER

@<TRIPOS>ATOM
      1  C         18.8530  -22.4880  -10.0820 C.2     1  UNL1        0.0860
      2  C         20.1860  -22.9030   -9.9260 C.2     1  UNL1        0.0420
      3  C         21.1850  -22.4170  -10.7750 C.2     1  UNL1        0.0330
      4  C         20.8570  -21.4720  -11.7500 C.2     1  UNL1        0.0170
      5  C         19.5340  -21.0430  -11.8950 C.2     1  UNL1        0.0090
      6  C         18.5090  -21.5500  -11.0770 C.2     1  UNL1       -0.0390
      7  C         17.1150  -21.0310  -11.2920 C.3     1  UNL1        0.0500
      8  C         22.5760  -22.9110  -10.5860 C.2     1  UNL1        0.2520
      9  O         22.8370  -23.6810   -9.6700 O.2     1  UNL1       -0.2680
     10  N         23.5080  -22.4830  -11.5040 N.am    1  UNL1       -0.3480
     11  H         23.2200  -21.9660  -12.3220 H       1  UNL1        0.1630
     12  C         24.8950  -22.9210  -11.4500 C.3     1  UNL1        0.1180
     13  C         25.7490  -21.9480  -10.6210 C.3     1  UNL1        0.0300
     14  C         26.0180  -20.6610  -11.3930 C.3     1  UNL1        0.0070
     15  C         26.8130  -20.9550  -12.6630 C.3     1  UNL1        0.0390
     16  C         26.2800  -22.1280  -13.4480 C.2     1  UNL1       -0.0500
     17  C         26.7120  -22.3090  -14.7720 C.2     1  UNL1        0.0070
     18  C         25.4170  -23.0780  -12.8660 C.2     1  UNL1       -0.0290
     19  C         26.2790  -23.4040  -15.5190 C.2     1  UNL1        0.0010
     20  C         25.4170  -24.3360  -14.9510 C.2     1  UNL1        0.0010
     21  C         24.9870  -24.1750  -13.6340 C.2     1  UNL1        0.0100
     22  S         17.6480  -23.1800   -8.9510 S.O2    1  UNL1        0.2630
     23  O         18.3120  -24.1540   -8.1110 O.2     1  UNL1       -0.2000
     24  O         16.4770  -23.5560   -9.7140 O.2     1  UNL1       -0.2000
     25  N         17.2700  -21.8740   -7.9540 N.pl3   1  UNL1       -0.2800
     26  H         16.8240  -21.1120   -8.4560 H       1  UNL1        0.1790
     27  C         16.9460  -22.0790   -6.5800 C.2     1  UNL1        0.0480
     28  C         15.6670  -22.5210   -6.2250 C.2     1  UNL1        0.0300
     29  C         15.3250  -22.7020   -4.8850 C.2     1  UNL1        0.0020
     30  C         16.2660  -22.4560   -3.8910 C.2     1  UNL1        0.0010
     31  C         17.5480  -22.0310   -4.2360 C.2     1  UNL1        0.0090
     32  C         17.9080  -21.8440   -5.5810 C.2     1  UNL1       -0.0350
     33  C         19.3010  -21.3780   -5.8990 C.3     1  UNL1        0.0500
@<TRIPOS>BOND
     1    19    20    2
     2    19    17    1
     3    20    21    1
     4    17    16    2
     5    21    18    2
     6    16    18    1
     7    16    15    1
     8    18    12    1
     9    15    14    1
    10    11    10    1
    11     5     4    2
    12     5     6    1
    13     4     3    1
    14    10    12    1
    15    10     8   am
    16    12    13    1
    17    14    13    1
    18     7     6    1
    19     6     1    2
    20     3     8    1
    21     3     2    2
    22     8     9    2
    23     1     2    1
    24     1    22    1
    25    24    22    2
    26    22    23    2
    27    22    25    1
    28    26    25    1
    29    25    27    1
    30    27    28    2
    31    27    32    1
    32    28    29    1
    33    33    32    1
    34    32    31    2
    35    29    30    2
    36    31    30    1
