@<TRIPOS>MOLECULE
70983_out_ligand_01.pdbqt
 35 37 0 0 0
SMALL
GASTEIGER

@<TRIPOS>ATOM
      1  C         16.7200  -20.9370  -11.0260 C.3     1  UNL1        0.0500
      2  C         18.0980  -21.5120  -10.8550 C.2     1  UNL1       -0.0390
      3  C         19.1290  -21.0020  -11.6610 C.2     1  UNL1        0.0090
      4  C         20.4370  -21.4820  -11.5510 C.2     1  UNL1        0.0170
      5  C         20.7500  -22.4710  -10.6160 C.2     1  UNL1        0.0330
      6  C         19.7400  -22.9960   -9.8060 C.2     1  UNL1        0.0420
      7  C         18.4190  -22.5250   -9.9280 C.2     1  UNL1        0.0860
      8  C         22.1590  -22.9440  -10.5370 C.2     1  UNL1        0.2510
      9  O         22.4750  -23.7670   -9.6870 O.2     1  UNL1       -0.2680
     10  N         23.0260  -22.4400  -11.4760 N.am    1  UNL1       -0.3530
     11  H         22.6820  -21.8630  -12.2320 H       1  UNL1        0.1630
     12  C         24.3950  -22.9000  -11.5850 C.3     1  UNL1        0.1610
     13  C         24.8440  -22.9470  -13.0250 C.2     1  UNL1       -0.0400
     14  C         25.1190  -21.7640  -13.7250 C.2     1  UNL1        0.0110
     15  C         25.5450  -21.7990  -15.0590 C.2     1  UNL1        0.0370
     16  C         25.7040  -23.0190  -15.7120 C.2     1  UNL1        0.0690
     17  C         25.4460  -24.2030  -15.0140 C.2     1  UNL1        0.0370
     18  C         25.0340  -24.1700  -13.6810 C.2     1  UNL1        0.0110
     19  O         26.0870  -23.2050  -17.0100 O.2     1  UNL1       -0.3470
     20  C         25.1650  -22.9200  -18.0670 C.3     1  UNL1        0.1200
     21  C         25.0560  -21.3990  -18.1530 C.3     1  UNL1        0.0400
     22  C         23.8010  -23.5270  -17.7460 C.3     1  UNL1        0.0400
     23  S         17.1990  -23.2660   -8.8440 S.O2    1  UNL1        0.2630
     24  O         16.0800  -23.6830   -9.6640 O.2     1  UNL1       -0.2000
     25  O         17.8640  -24.2160   -7.9770 O.2     1  UNL1       -0.2000
     26  N         16.7240  -21.9750   -7.8660 N.pl3   1  UNL1       -0.2800
     27  H         16.1120  -21.3140   -8.3370 H       1  UNL1        0.1790
     28  C         16.5870  -22.1710   -6.4610 C.2     1  UNL1        0.0490
     29  C         15.3410  -22.5810   -5.9770 C.2     1  UNL1        0.0310
     30  C         15.1290  -22.7340   -4.6110 C.2     1  UNL1        0.0030
     31  C         16.1610  -22.4690   -3.7180 C.2     1  UNL1        0.0070
     32  C         17.4190  -22.0530   -4.1790 C.2     1  UNL1       -0.0540
     33  C         18.5000  -21.7750   -3.1660 C.3     1  UNL1        0.0490
     34  C         17.6510  -21.9200   -5.5710 C.2     1  UNL1       -0.0290
     35  C         19.0030  -21.4570   -6.0510 C.3     1  UNL1        0.0510
@<TRIPOS>BOND
     1    21    20    1
     2    20    22    1
     3    20    19    1
     4    19    16    1
     5    16    15    2
     6    16    17    1
     7    15    14    1
     8    17    18    2
     9    14    13    2
    10    18    13    1
    11    13    12    1
    12    11    10    1
    13     3     4    1
    14     3     2    2
    15    12    10    1
    16     4     5    2
    17    10     8   am
    18     1     2    1
    19     2     7    1
    20     5     8    1
    21     5     6    1
    22     8     9    2
    23     7     6    2
    24     7    23    1
    25    24    23    2
    26    23    25    2
    27    23    26    1
    28    27    26    1
    29    26    28    1
    30    28    29    2
    31    28    34    1
    32    35    34    1
    33    29    30    1
    34    34    32    2
    35    30    31    2
    36    32    31    1
    37    32    33    1
