@<TRIPOS>MOLECULE
70999_out_ligand_01.pdbqt
 38 41 0 0 0
SMALL
GASTEIGER

@<TRIPOS>ATOM
      1  C         21.4570  -22.1520  -11.0810 C.2     1  UNL1        0.0330
      2  C         20.9800  -21.3140  -12.0910 C.2     1  UNL1        0.0170
      3  C         19.6130  -21.0420  -12.1880 C.2     1  UNL1        0.0090
      4  C         18.6910  -21.6080  -11.2890 C.2     1  UNL1       -0.0390
      5  C         17.2380  -21.2630  -11.4580 C.3     1  UNL1        0.0500
      6  C         19.1820  -22.4560  -10.2760 C.2     1  UNL1        0.0810
      7  C         20.5570  -22.7250  -10.1770 C.2     1  UNL1        0.0420
      8  C         22.9000  -22.4910  -10.9570 C.2     1  UNL1        0.2520
      9  N         23.7490  -21.8450  -11.8240 N.am    1  UNL1       -0.3440
     10  H         23.4130  -21.0800  -12.3890 H       1  UNL1        0.1630
     11  O         23.2650  -23.2890  -10.1010 O.2     1  UNL1       -0.2680
     12  C         25.1850  -22.0750  -11.8210 C.3     1  UNL1        0.1510
     13  C         25.6120  -23.2080  -12.7540 C.2     1  UNL1       -0.0310
     14  C         26.6850  -24.0350  -12.3760 C.2     1  UNL1        0.0100
     15  C         27.1200  -25.0750  -13.2010 C.2     1  UNL1        0.0070
     16  C         26.4970  -25.3130  -14.4280 C.2     1  UNL1       -0.0620
     17  C         26.9410  -26.4380  -15.3160 C.3     1  UNL1        0.0480
     18  C         25.4260  -24.5010  -14.8130 C.2     1  UNL1        0.0070
     19  C         24.9890  -23.4600  -13.9870 C.2     1  UNL1        0.0100
     20  C         25.8850  -20.7520  -12.1200 C.2     1  UNL1       -0.0310
     21  C         26.4600  -20.0190  -11.0690 C.2     1  UNL1        0.0090
     22  C         27.0770  -18.7900  -11.3110 C.2     1  UNL1        0.0010
     23  C         27.1200  -18.2740  -12.6040 C.2     1  UNL1        0.0000
     24  C         26.5420  -18.9830  -13.6570 C.2     1  UNL1        0.0010
     25  C         25.9250  -20.2120  -13.4170 C.2     1  UNL1        0.0090
     26  S         18.1210  -23.2180   -9.0490 S.O2    1  UNL1        0.2460
     27  O         18.9280  -24.0620   -8.1980 O.2     1  UNL1       -0.2060
     28  O         16.9650  -23.7450   -9.7440 O.2     1  UNL1       -0.2060
     29  N         17.5950  -21.8330   -8.2040 N.pl3   1  UNL1       -0.1810
     30  H         16.8070  -21.4440   -8.7230 H       1  UNL1        0.1460
     31  C         17.2420  -22.0670   -6.8290 C.2     1  UNL1        0.0290
     32  C         15.9430  -22.5300   -6.5970 C.2     1  UNL1        0.0250
     33  C         15.4920  -22.7430   -5.3000 C.2     1  UNL1        0.0020
     34  C         16.3330  -22.4720   -4.2240 C.2     1  UNL1        0.0070
     35  C         17.6340  -21.9850   -4.4330 C.2     1  UNL1       -0.0540
     36  C         18.4870  -21.6850   -3.2280 C.3     1  UNL1        0.0490
     37  C         18.1140  -21.7970   -5.7550 C.2     1  UNL1       -0.0340
     38  C         19.5030  -21.2520   -5.9750 C.3     1  UNL1        0.0500
@<TRIPOS>BOND
     1    17    16    1
     2    18    16    2
     3    18    19    1
     4    16    15    1
     5    19    13    2
     6    24    25    1
     7    24    23    2
     8    25    20    2
     9    15    14    2
    10    13    14    1
    11    13    12    1
    12    23    22    1
    13    10     9    1
    14     3     2    1
    15     3     4    2
    16    20    12    1
    17    20    21    1
    18     2     1    2
    19     9    12    1
    20     9     8   am
    21     5     4    1
    22    22    21    2
    23     4     6    1
    24     1     8    1
    25     1     7    1
    26     8    11    2
    27     6     7    2
    28     6    26    1
    29    28    26    2
    30    26    29    1
    31    26    27    2
    32    30    29    1
    33    29    31    1
    34    31    32    2
    35    31    37    1
    36    32    33    1
    37    38    37    1
    38    37    35    2
    39    33    34    2
    40    35    34    1
    41    35    36    1
