@<TRIPOS>MOLECULE
70991_out_ligand_01.pdbqt
 36 39 0 0 0
SMALL
GASTEIGER

@<TRIPOS>ATOM
      1  C         22.8360  -22.8200   -9.2460 C.2     1  UNL1        0.0750
      2  C         22.4900  -21.8070   -8.3500 C.2     1  UNL1        0.0270
      3  C         21.3030  -21.9030   -7.6170 C.2     1  UNL1        0.0310
      4  C         20.4650  -23.0120   -7.7660 C.2     1  UNL1        0.0350
      5  C         20.8310  -24.0290   -8.6590 C.2     1  UNL1        0.0310
      6  C         22.0140  -23.9380   -9.3970 C.2     1  UNL1        0.0270
      7  N         19.2680  -23.1920   -7.0450 N.am    1  UNL1       -0.3230
      8  C         18.6370  -22.2790   -6.2260 C.2     1  UNL1        0.2560
      9  O         18.9190  -21.1010   -6.0540 O.2     1  UNL1       -0.2670
     10  H         18.8250  -24.0990   -7.1340 H       1  UNL1        0.1690
     11  C         17.4540  -22.8270   -5.5170 C.2     1  UNL1        0.0380
     12  C         17.6890  -23.4170   -4.2670 C.2     1  UNL1        0.0170
     13  C         16.6280  -23.9460   -3.5350 C.2     1  UNL1        0.0010
     14  C         15.3360  -23.8960   -4.0530 C.2     1  UNL1        0.0010
     15  C         15.1010  -23.3260   -5.3080 C.2     1  UNL1        0.0080
     16  C         16.1550  -22.7850   -6.0640 C.2     1  UNL1       -0.0420
     17  C         15.8540  -22.2370   -7.4410 C.3     1  UNL1        0.0440
     18  C         16.1370  -23.2480   -8.5580 C.3     1  UNL1        0.0430
     19  C         16.8680  -22.5970   -9.7070 C.2     1  UNL1       -0.0580
     20  C         16.4260  -21.3810  -10.2410 C.2     1  UNL1        0.0070
     21  C         17.1250  -20.7720  -11.2850 C.2     1  UNL1        0.0010
     22  C         18.2740  -21.3720  -11.7990 C.2     1  UNL1        0.0000
     23  C         18.7250  -22.5810  -11.2710 C.2     1  UNL1        0.0010
     24  C         18.0270  -23.1910  -10.2280 C.2     1  UNL1        0.0070
     25  S         24.3610  -22.7310  -10.1510 S.O2    1  UNL1        0.2480
     26  O         24.7860  -21.3510  -10.2480 O.2     1  UNL1       -0.2050
     27  O         25.2430  -23.7190   -9.5560 O.2     1  UNL1       -0.2050
     28  N         23.9710  -23.3210  -11.6530 N.pl3   1  UNL1       -0.1480
     29  H         24.3740  -24.2290  -11.8480 H       1  UNL1        0.1490
     30  C         24.0690  -22.4430  -12.7260 C.cat   1  UNL1        0.2150
     31  N         23.0280  -21.6670  -13.0260 N.2     1  UNL1       -0.2300
     32  C         23.1470  -20.9580  -14.1610 C.2     1  UNL1        0.1220
     33  C         24.2350  -21.0450  -14.9990 C.2     1  UNL1        0.0460
     34  C         25.2290  -21.9250  -14.6160 C.2     1  UNL1        0.0350
     35  C         26.4490  -22.1070  -15.4690 C.3     1  UNL1        0.0700
     36  N         25.1500  -22.6550  -13.4830 N.2     1  UNL1       -0.2230
@<TRIPOS>BOND
     1    35    34    1
     2    33    34    1
     3    33    32    2
     4    34    36    2
     5    32    31    1
     6    36    30    1
     7    31    30    2
     8    30    28    1
     9    29    28    1
    10    22    21    2
    11    22    23    1
    12    28    25    1
    13    21    20    1
    14    23    24    2
    15    26    25    2
    16    20    19    2
    17    24    19    1
    18    25    27    2
    19    25     1    1
    20    19    18    1
    21     6     1    2
    22     6     5    1
    23     1     2    1
    24     5     4    2
    25    18    17    1
    26     2     3    2
    27     4     3    1
    28     4     7    1
    29    17    16    1
    30    10     7    1
    31     7     8   am
    32     8     9    2
    33     8    11    1
    34    16    11    2
    35    16    15    1
    36    11    12    1
    37    15    14    2
    38    12    13    2
    39    14    13    1
