@<TRIPOS>MOLECULE
70992_out_ligand_01.pdbqt
 35 38 0 0 0
SMALL
GASTEIGER

@<TRIPOS>ATOM
      1  C         17.9570  -23.7200   -8.4100 C.2     1  UNL1        0.0800
      2  C         17.5760  -22.8740   -9.4550 C.2     1  UNL1        0.0270
      3  C         18.5410  -22.4150  -10.3530 C.2     1  UNL1        0.0260
      4  C         19.8730  -22.7830  -10.1890 C.2     1  UNL1        0.0220
      5  C         20.2560  -23.6140   -9.1360 C.2     1  UNL1        0.0260
      6  C         19.2960  -24.0770   -8.2350 C.2     1  UNL1        0.0270
      7  N         20.8330  -22.3330  -11.1510 N.pl3   1  UNL1       -0.1810
      8  H         20.6370  -21.3690  -11.4200 H       1  UNL1        0.1460
      9  S         22.4400  -22.3650  -10.5770 S.O2    1  UNL1        0.2450
     10  O         22.6350  -21.1500   -9.8160 O.2     1  UNL1       -0.2060
     11  O         22.7350  -23.6670  -10.0240 O.2     1  UNL1       -0.2060
     12  C         23.3350  -22.2000  -12.1000 C.2     1  UNL1        0.0750
     13  C         22.8020  -21.4410  -13.1410 C.2     1  UNL1        0.0270
     14  C         23.5020  -21.3410  -14.3490 C.2     1  UNL1        0.0310
     15  C         24.7380  -21.9880  -14.5390 C.2     1  UNL1        0.0370
     16  C         25.2460  -22.7480  -13.4730 C.2     1  UNL1        0.0310
     17  C         24.5510  -22.8640  -12.2640 C.2     1  UNL1        0.0270
     18  N         25.4320  -21.8710  -15.7730 N.am    1  UNL1       -0.3180
     19  C         26.2990  -20.7600  -16.0850 C.3     1  UNL1        0.1330
     20  C         26.4820  -20.8420  -17.5880 C.3     1  UNL1        0.0290
     21  C         26.4320  -22.3280  -17.8570 C.3     1  UNL1        0.1050
     22  C         25.4640  -22.8220  -16.8050 C.2     1  UNL1        0.2240
     23  O         24.8820  -23.8840  -16.8880 O.2     1  UNL1       -0.2730
     24  S         16.7300  -24.3110   -7.2640 S.O2    1  UNL1        0.2630
     25  O         15.6560  -24.8970   -8.0330 O.2     1  UNL1       -0.2000
     26  O         17.4180  -25.0810   -6.2550 O.2     1  UNL1       -0.2000
     27  N         16.2000  -22.9020   -6.4980 N.pl3   1  UNL1       -0.2800
     28  H         15.1950  -22.8990   -6.3650 H       1  UNL1        0.1790
     29  C         17.0040  -22.3150   -5.4810 C.2     1  UNL1        0.0480
     30  C         18.1030  -21.5340   -5.8480 C.2     1  UNL1        0.0300
     31  C         18.9370  -20.9860   -4.8780 C.2     1  UNL1        0.0020
     32  C         18.6850  -21.2210   -3.5310 C.2     1  UNL1        0.0010
     33  C         17.5860  -21.9970   -3.1570 C.2     1  UNL1        0.0090
     34  C         16.7240  -22.5400   -4.1230 C.2     1  UNL1       -0.0350
     35  C         15.5520  -23.3610   -3.6640 C.3     1  UNL1        0.0500
@<TRIPOS>BOND
     1    21    20    1
     2    21    22    1
     3    20    19    1
     4    23    22    2
     5    22    18   am
     6    19    18    1
     7    18    15    1
     8    15    14    2
     9    15    16    1
    10    14    13    1
    11    16    17    2
    12    13    12    2
    13    17    12    1
    14    12     9    1
    15     8     7    1
    16     7     9    1
    17     7     4    1
    18     9    11    2
    19     9    10    2
    20     3     4    2
    21     3     2    1
    22     4     5    1
    23     2     1    2
    24     5     6    2
    25     1     6    1
    26     1    24    1
    27    25    24    2
    28    24    27    1
    29    24    26    2
    30    27    28    1
    31    27    29    1
    32    30    29    2
    33    30    31    1
    34    29    34    1
    35    31    32    2
    36    34    35    1
    37    34    33    2
    38    32    33    1
