@<TRIPOS>MOLECULE
71009_out_ligand_01.pdbqt
 36 39 0 0 0
SMALL
GASTEIGER

@<TRIPOS>ATOM
      1  C         19.5870  -22.4000  -10.4110 C.2     1  UNL1        0.0290
      2  C         20.9390  -22.7450  -10.4910 C.2     1  UNL1        0.0420
      3  C         21.7680  -22.1150  -11.4200 C.2     1  UNL1        0.0330
      4  C         21.2570  -21.1220  -12.2590 C.2     1  UNL1        0.0170
      5  C         19.9090  -20.7690  -12.1700 C.2     1  UNL1        0.0090
      6  C         19.0560  -21.4090  -11.2540 C.2     1  UNL1       -0.0400
      7  C         17.6130  -20.9930  -11.1930 C.3     1  UNL1        0.0500
      8  C         23.1890  -22.5240  -11.4900 C.2     1  UNL1        0.2510
      9  O         23.5210  -23.5010  -12.1460 O.2     1  UNL1       -0.2680
     10  N         24.0710  -21.7030  -10.8230 N.am    1  UNL1       -0.3530
     11  H         23.7430  -20.8110  -10.4740 H       1  UNL1        0.1630
     12  C         25.4980  -21.9160  -10.9390 C.3     1  UNL1        0.1630
     13  C         26.1530  -20.8160  -11.7400 C.2     1  UNL1       -0.0130
     14  C         26.5410  -19.6590  -11.0280 C.2     1  UNL1        0.0110
     15  C         27.0240  -18.5260  -11.6830 C.2     1  UNL1        0.0010
     16  C         27.1210  -18.5170  -13.0700 C.2     1  UNL1        0.0020
     17  C         26.7490  -19.6460  -13.8000 C.2     1  UNL1        0.0300
     18  C         26.2920  -20.8040  -13.1440 C.2     1  UNL1        0.0480
     19  N         25.9560  -21.9140  -13.9610 N.pl3   1  UNL1       -0.3090
     20  C         26.6560  -23.1040  -13.9880 C.2     1  UNL1        0.1180
     21  C         26.0240  -23.8960  -14.9140 C.2     1  UNL1        0.1360
     22  N         24.9170  -23.2680  -15.4040 N.2     1  UNL1       -0.2460
     23  C         24.8580  -22.0970  -14.7910 C.2     1  UNL1        0.1060
     24  C         23.6970  -21.1760  -14.8950 C.3     1  UNL1        0.0910
     25  N         18.7540  -23.1390   -9.5060 N.pl3   1  UNL1       -0.1810
     26  H         18.3500  -23.9820   -9.9120 H       1  UNL1        0.1460
     27  S         19.4890  -23.5040   -8.0090 S.O2    1  UNL1        0.2450
     28  O         19.8330  -24.9110   -8.0290 O.2     1  UNL1       -0.2060
     29  O         20.4670  -22.4880   -7.6850 O.2     1  UNL1       -0.2060
     30  C         18.1140  -23.2970   -6.9060 C.2     1  UNL1        0.0740
     31  C         16.9120  -23.9510   -7.1870 C.2     1  UNL1        0.0250
     32  C         15.8210  -23.7790   -6.3340 C.2     1  UNL1        0.0080
     33  C         15.9230  -22.9460   -5.2120 C.2     1  UNL1       -0.0620
     34  C         14.7560  -22.7770   -4.2820 C.3     1  UNL1        0.0480
     35  C         17.1400  -22.3040   -4.9380 C.2     1  UNL1        0.0080
     36  C         18.2350  -22.4720   -5.7860 C.2     1  UNL1        0.0250
@<TRIPOS>BOND
     1    22    21    1
     2    22    23    2
     3    21    20    2
     4    24    23    1
     5    23    19    1
     6    20    19    1
     7    19    18    1
     8    17    18    1
     9    17    16    2
    10    18    13    2
    11    16    15    1
    12     4     5    2
    13     4     3    1
    14     5     6    1
    15     9     8    2
    16    13    14    1
    17    13    12    1
    18    15    14    2
    19     8     3    1
    20     8    10   am
    21     3     2    2
    22     6     7    1
    23     6     1    2
    24    12    10    1
    25    10    11    1
    26     2     1    1
    27     1    25    1
    28    26    25    1
    29    25    27    1
    30    28    27    2
    31    27    29    2
    32    27    30    1
    33    31    30    2
    34    31    32    1
    35    30    36    1
    36    32    33    2
    37    36    35    2
    38    33    35    1
    39    33    34    1
