@<TRIPOS>MOLECULE
71002_out_ligand_01.pdbqt
 38 41 0 0 0
SMALL
GASTEIGER

@<TRIPOS>ATOM
      1  C         24.2100  -22.6640  -11.2260 C.2     1  UNL1        0.0860
      2  C         22.9160  -22.9680  -10.7680 C.2     1  UNL1        0.0420
      3  C         22.7290  -23.6410   -9.5570 C.2     1  UNL1        0.0330
      4  C         23.8420  -24.0250   -8.8060 C.2     1  UNL1        0.0170
      5  C         25.1300  -23.7150   -9.2560 C.2     1  UNL1        0.0090
      6  C         25.3380  -23.0310  -10.4680 C.2     1  UNL1       -0.0390
      7  C         26.7550  -22.7380  -10.8750 C.3     1  UNL1        0.0500
      8  C         21.3380  -23.9580   -9.1320 C.2     1  UNL1        0.2520
      9  O         20.9520  -25.1210   -9.1370 O.2     1  UNL1       -0.2680
     10  N         20.5480  -22.8880   -8.7820 N.am    1  UNL1       -0.3440
     11  H         20.8620  -21.9430   -8.9440 H       1  UNL1        0.1630
     12  C         19.1650  -23.0580   -8.3600 C.3     1  UNL1        0.1520
     13  C         18.2630  -22.4000   -9.4020 C.2     1  UNL1       -0.0310
     14  C         16.8640  -22.3700   -9.2810 C.2     1  UNL1        0.0090
     15  C         16.0790  -21.7280  -10.2400 C.2     1  UNL1        0.0010
     16  C         16.6780  -21.0940  -11.3260 C.2     1  UNL1        0.0000
     17  C         18.0660  -21.1000  -11.4540 C.2     1  UNL1        0.0010
     18  C         18.8520  -21.7430  -10.4970 C.2     1  UNL1        0.0090
     19  C         18.9180  -22.5820   -6.9210 C.2     1  UNL1       -0.0250
     20  C         19.4980  -21.3840   -6.4510 C.2     1  UNL1        0.0100
     21  C         19.2650  -20.9210   -5.1550 C.2     1  UNL1        0.0010
     22  C         18.4460  -21.6460   -4.2990 C.2     1  UNL1        0.0010
     23  C         17.8560  -22.8290   -4.7380 C.2     1  UNL1        0.0070
     24  C         18.0810  -23.3110   -6.0400 C.2     1  UNL1       -0.0530
     25  C         17.4090  -24.5940   -6.4530 C.3     1  UNL1        0.0490
     26  S         24.3020  -21.7940  -12.7850 S.O2    1  UNL1        0.2630
     27  O         25.1370  -20.6200  -12.6630 O.2     1  UNL1       -0.2000
     28  O         22.9440  -21.6690  -13.2750 O.2     1  UNL1       -0.2000
     29  N         25.0530  -22.9240  -13.7900 N.pl3   1  UNL1       -0.2800
     30  H         24.9270  -23.8770  -13.4510 H       1  UNL1        0.1790
     31  C         25.0420  -22.7050  -15.1960 C.2     1  UNL1        0.0490
     32  C         26.0220  -21.9170  -15.8170 C.2     1  UNL1       -0.0350
     33  C         25.9960  -21.7990  -17.2140 C.2     1  UNL1        0.0090
     34  C         27.1210  -21.2430  -15.0430 C.3     1  UNL1        0.0500
     35  C         25.0050  -22.4300  -17.9710 C.2     1  UNL1        0.0070
     36  C         24.0120  -23.1890  -17.3450 C.2     1  UNL1       -0.0600
     37  C         22.9640  -23.8920  -18.1530 C.3     1  UNL1        0.0480
     38  C         24.0470  -23.3320  -15.9530 C.2     1  UNL1        0.0370
@<TRIPOS>BOND
     1    37    36    1
     2    35    36    2
     3    35    33    1
     4    36    38    1
     5    33    32    2
     6    38    31    2
     7    32    31    1
     8    32    34    1
     9    31    29    1
    10    29    30    1
    11    29    26    1
    12    28    26    2
    13    26    27    2
    14    26     1    1
    15    17    16    2
    16    17    18    1
    17    16    15    1
    18     1     2    2
    19     1     6    1
    20     7     6    1
    21     2     3    1
    22    18    13    2
    23     6     5    2
    24    15    14    2
    25     3     8    1
    26     3     4    2
    27    13    14    1
    28    13    12    1
    29     5     4    1
    30     9     8    2
    31     8    10   am
    32    11    10    1
    33    10    12    1
    34    12    19    1
    35    19    20    2
    36    19    24    1
    37    25    24    1
    38    20    21    1
    39    24    23    2
    40    21    22    2
    41    23    22    1
