@<TRIPOS>MOLECULE
71019_out_ligand_01.pdbqt
 35 37 0 0 0
SMALL
GASTEIGER

@<TRIPOS>ATOM
      1  C         21.2510  -23.1090  -10.0210 C.2     1  UNL1        0.0340
      2  C         21.0180  -24.0650   -9.0300 C.2     1  UNL1        0.0310
      3  C         19.7430  -24.2180   -8.4740 C.2     1  UNL1        0.0270
      4  C         18.6930  -23.4130   -8.9220 C.2     1  UNL1        0.0800
      5  C         18.9160  -22.4380   -9.8960 C.2     1  UNL1        0.0270
      6  C         20.1930  -22.2910  -10.4440 C.2     1  UNL1        0.0310
      7  N         22.5030  -22.8970  -10.6260 N.am    1  UNL1       -0.3250
      8  C         23.4330  -21.9130  -10.3360 C.2     1  UNL1        0.2510
      9  O         23.3330  -21.0410   -9.4770 O.2     1  UNL1       -0.2700
     10  H         22.8130  -23.5920  -11.2990 H       1  UNL1        0.1690
     11  C         24.6640  -21.9690  -11.2610 C.3     1  UNL1        0.2200
     12  C         25.7280  -21.0170  -10.6940 C.3     1  UNL1        0.0380
     13  C         26.5180  -20.3170  -11.7930 C.3     1  UNL1        0.0080
     14  O         24.3650  -21.5390  -12.5930 O.2     1  UNL1       -0.3360
     15  C         24.5980  -22.4130  -13.6220 C.2     1  UNL1        0.0720
     16  C         25.0860  -23.7140  -13.5000 C.2     1  UNL1        0.0370
     17  C         25.2510  -24.5040  -14.6390 C.2     1  UNL1        0.0050
     18  C         24.9290  -23.9960  -15.8970 C.2     1  UNL1        0.0370
     19  C         24.4400  -22.6950  -16.0300 C.2     1  UNL1        0.0700
     20  C         24.2700  -21.9100  -14.8880 C.2     1  UNL1        0.0730
     21  O         24.1630  -22.3180  -17.3160 O.2     1  UNL1       -0.3560
     22  C         24.8800  -21.1990  -17.8240 C.3     1  UNL1        0.2100
     23  S         17.0820  -23.5850   -8.1980 S.O2    1  UNL1        0.2630
     24  O         17.1200  -24.6950   -7.2720 O.2     1  UNL1       -0.2000
     25  O         16.1210  -23.5600   -9.2830 O.2     1  UNL1       -0.2000
     26  N         16.8760  -22.1290   -7.3690 N.pl3   1  UNL1       -0.2800
     27  H         16.1800  -21.5300   -7.8080 H       1  UNL1        0.1790
     28  C         16.9590  -22.1130   -5.9450 C.2     1  UNL1        0.0540
     29  C         18.1820  -21.7760   -5.3330 C.2     1  UNL1       -0.0340
     30  C         19.4090  -21.3800   -6.1080 C.3     1  UNL1        0.0500
     31  C         18.2780  -21.8190   -3.9320 C.2     1  UNL1        0.0090
     32  C         17.1730  -22.1450   -3.1530 C.2     1  UNL1        0.0010
     33  C         15.9510  -22.4180   -3.7640 C.2     1  UNL1        0.0090
     34  C         15.8200  -22.3850   -5.1610 C.2     1  UNL1       -0.0340
     35  C         14.4670  -22.6920   -5.7460 C.3     1  UNL1        0.0500
@<TRIPOS>BOND
     1    22    21    1
     2    21    19    1
     3    19    18    2
     4    19    20    1
     5    18    17    1
     6    20    15    2
     7    17    16    2
     8    15    16    1
     9    15    14    1
    10    14    11    1
    11    13    12    1
    12    10     7    1
    13    11    12    1
    14    11     8    1
    15     7     8   am
    16     7     1    1
    17     6     1    2
    18     6     5    1
    19     8     9    2
    20     1     2    1
    21     5     4    2
    22    25    23    2
    23     2     3    2
    24     4     3    1
    25     4    23    1
    26    23    26    1
    27    23    24    2
    28    27    26    1
    29    26    28    1
    30    30    29    1
    31    28    29    2
    32    28    34    1
    33    35    34    1
    34    29    31    1
    35    34    33    2
    36    31    32    2
    37    33    32    1
