@<TRIPOS>MOLECULE
7101_out_ligand_01.pdbqt
 32 35 0 0 0
SMALL
GASTEIGER

@<TRIPOS>ATOM
      1  C         21.6360  -21.6560  -12.2480 C.2     1  UNL1        0.0330
      2  C         20.3410  -21.1540  -12.1380 C.2     1  UNL1        0.0190
      3  C         19.4980  -21.5970  -11.1090 C.2     1  UNL1        0.0310
      4  C         19.9070  -22.5660  -10.1790 C.2     1  UNL1        0.0430
      5  C         21.2140  -23.0850  -10.3130 C.2     1  UNL1       -0.0300
      6  C         22.0640  -22.6250  -11.3390 C.2     1  UNL1        0.0260
      7  C         21.7680  -24.1130   -9.3610 C.3     1  UNL1        0.0420
      8  C         20.6530  -24.8640   -8.6670 C.3     1  UNL1        0.0250
      9  C         19.6760  -23.8650   -8.0770 C.3     1  UNL1        0.1330
     10  N         19.0560  -23.0080   -9.0980 N.am    1  UNL1       -0.3130
     11  C         17.6980  -22.6450   -9.0040 C.2     1  UNL1        0.2610
     12  O         16.9920  -22.2270   -9.9200 O.2     1  UNL1       -0.2670
     13  C         22.5770  -21.2120  -13.3170 C.2     1  UNL1        0.2560
     14  N         23.7810  -21.8840  -13.3490 N.am    1  UNL1       -0.3200
     15  H         23.9120  -22.6770  -12.7310 H       1  UNL1        0.1690
     16  O         22.2080  -20.3330  -14.0870 O.2     1  UNL1       -0.2670
     17  C         24.8790  -21.6750  -14.2140 C.2     1  UNL1        0.0690
     18  C         24.9220  -22.1290  -15.5340 C.2     1  UNL1        0.0390
     19  C         26.0460  -21.8900  -16.3370 C.2     1  UNL1       -0.0600
     20  C         27.1200  -21.1640  -15.8120 C.2     1  UNL1        0.0090
     21  C         26.0660  -22.3550  -17.7630 C.3     1  UNL1        0.0480
     22  C         27.0870  -20.7020  -14.4930 C.2     1  UNL1        0.0390
     23  C         25.9730  -20.9530  -13.6880 C.2     1  UNL1        0.0950
     24  O         25.8360  -20.5420  -12.3810 O.2     1  UNL1       -0.3540
     25  C         26.6640  -19.4690  -11.9520 C.3     1  UNL1        0.2100
     26  C         17.0010  -22.8120   -7.7130 C.2     1  UNL1        0.0710
     27  C         17.3990  -22.0340   -6.6180 C.2     1  UNL1        0.0200
     28  C         16.7710  -22.2030   -5.3820 C.2     1  UNL1        0.0010
     29  C         15.7600  -23.1550   -5.2360 C.2     1  UNL1        0.0030
     30  C         15.3820  -23.9470   -6.3220 C.2     1  UNL1        0.0430
     31  C         16.0090  -23.7770   -7.5530 C.2     1  UNL1        0.1320
     32  F         15.6390  -24.5600   -8.5760 F       1  UNL1       -0.2050
@<TRIPOS>BOND
     1    21    19    1
     2    19    20    2
     3    19    18    1
     4    20    22    1
     5    18    17    2
     6    22    23    2
     7    17    23    1
     8    17    14    1
     9    16    13    2
    10    23    24    1
    11    14    13   am
    12    14    15    1
    13    13     1    1
    14    24    25    1
    15     1     2    2
    16     1     6    1
    17     2     3    1
    18     6     5    2
    19     3     4    2
    20     5     4    1
    21     5     7    1
    22     4    10    1
    23    12    11    2
    24     7     8    1
    25    10    11   am
    26    10     9    1
    27    11    26    1
    28     8     9    1
    29    32    31    1
    30    26    31    2
    31    26    27    1
    32    31    30    1
    33    27    28    2
    34    30    29    2
    35    28    29    1
