@<TRIPOS>MOLECULE
71020_out_ligand_01.pdbqt
 38 41 0 0 0
SMALL
GASTEIGER

@<TRIPOS>ATOM
      1  C         20.8750  -23.4250   -8.7230 C.2     1  UNL1        0.2560
      2  O         21.1520  -24.5420   -9.1390 O.2     1  UNL1       -0.2670
      3  N         21.4020  -22.2200   -9.1500 N.am    1  UNL1       -0.3230
      4  H         21.0080  -21.3790   -8.7480 H       1  UNL1        0.1690
      5  C         19.8440  -23.3120   -7.6530 C.2     1  UNL1        0.0320
      6  C         19.0550  -24.4040   -7.2700 C.2     1  UNL1        0.0190
      7  C         18.1060  -24.2540   -6.2560 C.2     1  UNL1        0.0250
      8  C         17.9250  -23.0140   -5.6370 C.2     1  UNL1        0.0250
      9  C         18.7070  -21.9220   -6.0210 C.2     1  UNL1        0.0250
     10  C         19.6560  -22.0690   -7.0360 C.2     1  UNL1        0.0190
     11  N         16.9670  -22.9300   -4.5670 N.pl3   1  UNL1       -0.1760
     12  C         17.3260  -23.6860   -3.3440 C.3     1  UNL1        0.1360
     13  S         15.3480  -23.1610   -5.1090 S.O2    1  UNL1        0.2470
     14  O         14.5980  -21.9600   -4.8010 O.2     1  UNL1       -0.2050
     15  O         14.8790  -24.4640   -4.6790 O.2     1  UNL1       -0.2050
     16  C         15.5570  -23.2490   -6.8730 C.2     1  UNL1        0.0750
     17  C         15.3620  -24.4790   -7.5140 C.2     1  UNL1        0.0250
     18  C         15.5160  -24.5660   -8.8990 C.2     1  UNL1        0.0020
     19  C         15.8620  -23.4270   -9.6320 C.2     1  UNL1        0.0000
     20  C         16.0470  -22.2000   -8.9880 C.2     1  UNL1        0.0020
     21  C         15.8910  -22.1030   -7.6030 C.2     1  UNL1        0.0250
     22  C         22.3780  -22.0170  -10.1500 C.2     1  UNL1        0.0350
     23  C         23.6860  -21.7420   -9.7190 C.2     1  UNL1        0.0310
     24  C         24.7140  -21.5270  -10.6410 C.2     1  UNL1        0.0270
     25  C         24.4330  -21.5910  -12.0060 C.2     1  UNL1        0.0800
     26  C         23.1340  -21.8490  -12.4500 C.2     1  UNL1        0.0270
     27  C         22.1120  -22.0690  -11.5200 C.2     1  UNL1        0.0310
     28  S         25.7210  -21.3060  -13.1950 S.O2    1  UNL1        0.2630
     29  O         26.3160  -22.5750  -13.5480 O.2     1  UNL1       -0.2000
     30  O         26.5290  -20.2080  -12.7100 O.2     1  UNL1       -0.2000
     31  N         24.8620  -20.7110  -14.4980 N.pl3   1  UNL1       -0.2790
     32  H         24.5250  -19.7510  -14.4250 H       1  UNL1        0.1790
     33  C         24.8310  -21.3930  -15.7370 C.2     1  UNL1        0.0600
     34  C         24.3540  -22.6990  -15.7670 C.2     1  UNL1        0.0330
     35  C         24.2370  -23.3560  -16.9900 C.2     1  UNL1        0.0210
     36  C         24.5780  -22.6650  -18.1450 C.2     1  UNL1        0.1160
     37  N         25.0270  -21.3900  -18.1530 N.2     1  UNL1       -0.2710
     38  C         25.1410  -20.7780  -16.9490 C.2     1  UNL1        0.1460
@<TRIPOS>BOND
     1    37    36    2
     2    37    38    1
     3    36    35    1
     4    35    34    2
     5    38    33    2
     6    34    33    1
     7    33    31    1
     8    31    32    1
     9    31    28    1
    10    29    28    2
    11    28    30    2
    12    28    25    1
    13    26    25    2
    14    26    27    1
    15    25    24    1
    16    27    22    2
    17    24    23    2
    18    22    23    1
    19    22     3    1
    20    19    20    2
    21    19    18    1
    22     3     4    1
    23     3     1   am
    24     2     1    2
    25    20    21    1
    26    18    17    2
    27     1     5    1
    28     5     6    2
    29     5    10    1
    30    21    16    2
    31    17    16    1
    32     6     7    1
    33    10     9    2
    34    16    13    1
    35     7     8    2
    36     9     8    1
    37     8    11    1
    38    13    14    2
    39    13    15    2
    40    13    11    1
    41    11    12    1
