@<TRIPOS>MOLECULE
71027_out_ligand_01.pdbqt
 37 40 0 0 0
SMALL
GASTEIGER

@<TRIPOS>ATOM
      1  C         20.8820  -22.5320  -10.8920 C.2     1  UNL1        0.0340
      2  C         19.8130  -21.7300  -11.3020 C.2     1  UNL1        0.0310
      3  C         18.5450  -21.8940  -10.7340 C.2     1  UNL1        0.0270
      4  C         18.3540  -22.8440   -9.7290 C.2     1  UNL1        0.0800
      5  C         19.4070  -23.6670   -9.3260 C.2     1  UNL1        0.0270
      6  C         20.6670  -23.5100   -9.9120 C.2     1  UNL1        0.0310
      7  N         22.1790  -22.4340  -11.4260 N.am    1  UNL1       -0.3250
      8  C         23.2740  -21.7840  -10.8830 C.2     1  UNL1        0.2510
      9  O         23.3130  -21.1870   -9.8110 O.2     1  UNL1       -0.2700
     10  H         22.3810  -22.9850  -12.2550 H       1  UNL1        0.1690
     11  C         24.5110  -21.8390  -11.8010 C.3     1  UNL1        0.2200
     12  C         25.7530  -21.6510  -10.9170 C.3     1  UNL1        0.0380
     13  C         26.8970  -22.5710  -11.3190 C.3     1  UNL1        0.0080
     14  O         24.5090  -20.7970  -12.7810 O.2     1  UNL1       -0.3360
     15  C         24.8910  -21.1140  -14.0610 C.2     1  UNL1        0.0760
     16  C         24.3420  -22.1550  -14.8210 C.2     1  UNL1        0.0440
     17  C         24.7840  -22.3940  -16.1310 C.2     1  UNL1       -0.0590
     18  C         24.1760  -23.4960  -16.9520 C.3     1  UNL1        0.0480
     19  C         25.7600  -21.5610  -16.6870 C.2     1  UNL1        0.0070
     20  C         26.3010  -20.5150  -15.9390 C.2     1  UNL1        0.0100
     21  C         25.8720  -20.2790  -14.6260 C.2     1  UNL1       -0.0290
     22  C         26.4730  -19.1480  -13.8370 C.3     1  UNL1        0.0510
     23  S         16.7420  -23.0490   -9.0030 S.O2    1  UNL1        0.2630
     24  O         16.2800  -21.7470   -8.5690 O.2     1  UNL1       -0.2000
     25  O         15.9560  -23.8540   -9.9160 O.2     1  UNL1       -0.2000
     26  N         17.0270  -24.0330   -7.6630 N.pl3   1  UNL1       -0.2800
     27  H         17.8500  -24.6210   -7.7670 H       1  UNL1        0.1790
     28  C         16.6940  -23.5640   -6.3550 C.2     1  UNL1        0.0530
     29  C         15.5240  -24.0510   -5.7640 C.2     1  UNL1        0.0310
     30  C         15.1380  -23.6060   -4.5050 C.2     1  UNL1        0.0030
     31  C         15.9200  -22.6690   -3.8320 C.2     1  UNL1        0.0120
     32  C         17.0960  -22.1610   -4.4080 C.2     1  UNL1       -0.0240
     33  C         17.8660  -21.2110   -3.7150 C.2     1  UNL1        0.0120
     34  C         17.5020  -22.6020   -5.6910 C.2     1  UNL1        0.0010
     35  C         19.0280  -20.6810   -4.2760 C.2     1  UNL1        0.0010
     36  C         19.4350  -21.0940   -5.5370 C.2     1  UNL1        0.0010
     37  C         18.6840  -22.0420   -6.2360 C.2     1  UNL1        0.0140
@<TRIPOS>BOND
     1    18    17    1
     2    19    17    2
     3    19    20    1
     4    17    16    1
     5    20    21    2
     6    16    15    2
     7    21    15    1
     8    21    22    1
     9    15    14    1
    10    14    11    1
    11    10     7    1
    12    11    12    1
    13    11     8    1
    14     7     1    1
    15     7     8   am
    16    13    12    1
    17     2     1    2
    18     2     3    1
    19     1     6    1
    20     8     9    2
    21     3     4    2
    22    25    23    2
    23     6     5    2
    24     4     5    1
    25     4    23    1
    26    23    24    2
    27    23    26    1
    28    27    26    1
    29    26    28    1
    30    28    29    2
    31    28    34    1
    32    37    34    1
    33    37    36    2
    34    29    30    1
    35    34    32    2
    36    36    35    1
    37    30    31    2
    38    32    31    1
    39    32    33    1
    40    35    33    2
