@<TRIPOS>MOLECULE
71026_out_ligand_01.pdbqt
 37 41 0 0 0
SMALL
GASTEIGER

@<TRIPOS>ATOM
      1  O         19.9160  -20.9470   -6.0350 O.2     1  UNL1       -0.2670
      2  C         19.7620  -21.9730   -6.6860 C.2     1  UNL1        0.2560
      3  N         18.6530  -22.7940   -6.6820 N.am    1  UNL1       -0.3220
      4  H         18.6120  -23.5180   -7.4030 H       1  UNL1        0.1690
      5  C         20.8510  -22.3950   -7.6140 C.2     1  UNL1        0.0320
      6  C         21.9380  -21.5360   -7.8050 C.2     1  UNL1        0.0170
      7  C         22.9790  -21.8950   -8.6670 C.2     1  UNL1        0.0100
      8  C         22.9490  -23.1210   -9.3490 C.2     1  UNL1       -0.0400
      9  C         21.8720  -23.9920   -9.1220 C.2     1  UNL1        0.0100
     10  C         20.8270  -23.6340   -8.2660 C.2     1  UNL1        0.0170
     11  C         24.1050  -23.5090  -10.2530 C.3     1  UNL1        0.1610
     12  N         24.7430  -22.3320  -10.8540 N.pl3   1  UNL1       -0.3760
     13  C         26.1400  -22.0770  -10.4940 C.3     1  UNL1        0.1230
     14  C         27.0520  -22.3040  -11.6880 C.3     1  UNL1        0.0240
     15  C         26.6680  -21.3360  -12.7970 C.3     1  UNL1        0.0420
     16  C         25.1800  -21.3420  -13.0470 C.2     1  UNL1       -0.0320
     17  C         24.7030  -20.8170  -14.2620 C.2     1  UNL1        0.0090
     18  C         24.2840  -21.8400  -12.0780 C.2     1  UNL1        0.0360
     19  C         23.3390  -20.7880  -14.5340 C.2     1  UNL1        0.0010
     20  C         22.4430  -21.2720  -13.5900 C.2     1  UNL1        0.0020
     21  C         22.9130  -21.7850  -12.3770 C.2     1  UNL1        0.0300
     22  C         17.4710  -22.6860   -5.9060 C.2     1  UNL1        0.0500
     23  C         17.5030  -22.4490   -4.5270 C.2     1  UNL1        0.0300
     24  C         16.3210  -22.3220   -3.7910 C.2     1  UNL1        0.0020
     25  C         15.0870  -22.4240   -4.4220 C.2     1  UNL1        0.0010
     26  C         15.0300  -22.6760   -5.7930 C.2     1  UNL1        0.0190
     27  C         16.2120  -22.8290   -6.5380 C.2     1  UNL1        0.0580
     28  C         16.1240  -23.1340   -8.0020 C.2     1  UNL1        0.2540
     29  O         15.8320  -24.2630   -8.3870 O.2     1  UNL1       -0.2680
     30  N         16.3220  -22.0790   -8.8700 N.am    1  UNL1       -0.3540
     31  H         16.2010  -21.1390   -8.5120 H       1  UNL1        0.1620
     32  C         16.0910  -22.2380  -10.2980 C.3     1  UNL1        0.1550
     33  C         17.3890  -22.1190  -11.0980 C.3     1  UNL1        0.1390
     34  C         18.6330  -22.3460  -10.2560 C.3     1  UNL1        0.0350
     35  C         19.6730  -21.5920  -11.0440 C.3     1  UNL1        0.0290
     36  C         18.8940  -20.3850  -11.5230 C.3     1  UNL1        0.1680
     37  O         17.5190  -20.7830  -11.6320 O.3     1  UNL1       -0.3840
@<TRIPOS>BOND
     1    19    17    1
     2    19    20    2
     3    17    16    2
     4    20    21    1
     5    16    15    1
     6    16    18    1
     7    15    14    1
     8    21    18    2
     9    18    12    1
    10    14    13    1
    11    37    36    1
    12    37    33    1
    13    36    35    1
    14    33    32    1
    15    33    34    1
    16    35    34    1
    17    12    13    1
    18    12    11    1
    19    32    30    1
    20    11     8    1
    21     8     9    2
    22     8     7    1
    23     9    10    1
    24    30    31    1
    25    30    28   am
    26     7     6    2
    27    29    28    2
    28    10     5    2
    29    28    27    1
    30     6     5    1
    31     5     2    1
    32     4     3    1
    33     2     3   am
    34     2     1    2
    35     3    22    1
    36    27    22    2
    37    27    26    1
    38    22    23    1
    39    26    25    2
    40    23    24    2
    41    25    24    1
