@<TRIPOS>MOLECULE
7102_out_ligand_01.pdbqt
 31 34 0 0 0
SMALL
GASTEIGER

@<TRIPOS>ATOM
      1  C         21.9030  -21.5940  -12.1240 C.2     1  UNL1        0.0320
      2  C         20.5730  -21.1830  -12.1940 C.2     1  UNL1        0.0190
      3  C         19.6280  -21.6920  -11.2900 C.2     1  UNL1        0.0310
      4  C         19.9740  -22.6360  -10.3100 C.2     1  UNL1        0.0430
      5  C         21.3190  -23.0640  -10.2620 C.2     1  UNL1       -0.0300
      6  C         22.2670  -22.5370  -11.1610 C.2     1  UNL1        0.0260
      7  C         21.8030  -24.0630   -9.2460 C.3     1  UNL1        0.0420
      8  C         20.6570  -24.9030   -8.7250 C.3     1  UNL1        0.0250
      9  C         19.5390  -23.9840   -8.2690 C.3     1  UNL1        0.1330
     10  N         19.0150  -23.1410   -9.3560 N.am    1  UNL1       -0.3130
     11  C         17.6360  -22.8770   -9.4530 C.2     1  UNL1        0.2580
     12  O         17.0300  -22.5140  -10.4590 O.2     1  UNL1       -0.2670
     13  C         22.9500  -21.0810  -13.0510 C.2     1  UNL1        0.2510
     14  O         22.6480  -20.7330  -14.1870 O.2     1  UNL1       -0.2680
     15  N         24.2450  -21.0670  -12.5710 N.am    1  UNL1       -0.3570
     16  H         24.4600  -21.5520  -11.7120 H       1  UNL1        0.1620
     17  C         25.3570  -20.6660  -13.4140 C.3     1  UNL1        0.1270
     18  C         26.0350  -21.8660  -14.0820 C.3     1  UNL1        0.0530
     19  C         25.4610  -22.1820  -15.4450 C.2     1  UNL1       -0.0820
     20  C         24.7070  -23.2770  -15.6520 C.2     1  UNL1       -0.0240
     21  C         24.1540  -23.6720  -16.9910 C.3     1  UNL1        0.0270
     22  C         24.7950  -22.9130  -18.1530 C.3     1  UNL1        0.0040
     23  C         24.9490  -21.4330  -17.8230 C.3     1  UNL1        0.0050
     24  C         25.8030  -21.2300  -16.5680 C.3     1  UNL1        0.0340
     25  C         16.7990  -23.0550   -8.2410 C.2     1  UNL1        0.0320
     26  C         16.1350  -24.2670   -8.0050 C.2     1  UNL1        0.0200
     27  C         15.3750  -24.4220   -6.8450 C.2     1  UNL1        0.0430
     28  C         15.2970  -23.3760   -5.9290 C.2     1  UNL1        0.1160
     29  F         14.5670  -23.5300   -4.8190 F       1  UNL1       -0.2060
     30  C         15.9730  -22.1790   -6.1440 C.2     1  UNL1        0.0430
     31  C         16.7360  -22.0170   -7.3010 C.2     1  UNL1        0.0200
@<TRIPOS>BOND
     1    22    23    1
     2    22    21    1
     3    23    24    1
     4    21    20    1
     5    24    19    1
     6    20    19    2
     7    19    18    1
     8    14    13    2
     9    18    17    1
    10    17    15    1
    11    13    15   am
    12    13     1    1
    13    15    16    1
    14     2     1    2
    15     2     3    1
    16     1     6    1
    17     3     4    2
    18     6     5    2
    19    12    11    2
    20     4     5    1
    21     4    10    1
    22     5     7    1
    23    11    10   am
    24    11    25    1
    25    10     9    1
    26     7     8    1
    27     8     9    1
    28    25    26    2
    29    25    31    1
    30    26    27    1
    31    31    30    2
    32    27    28    2
    33    30    28    1
    34    28    29    1
