@<TRIPOS>MOLECULE
7103_out_ligand_01.pdbqt
 29 32 0 0 0
SMALL
GASTEIGER

@<TRIPOS>ATOM
      1  C         19.2130  -22.3280  -10.5810 C.2     1  UNL1        0.0320
      2  C         19.3050  -21.6760  -11.8090 C.2     1  UNL1        0.0190
      3  C         20.5460  -21.5510  -12.4500 C.2     1  UNL1        0.0310
      4  C         21.7300  -22.0480  -11.8790 C.2     1  UNL1        0.0430
      5  C         21.6290  -22.6870  -10.6240 C.2     1  UNL1       -0.0300
      6  C         20.3770  -22.8250   -9.9920 C.2     1  UNL1        0.0260
      7  C         22.8290  -23.2690   -9.9260 C.3     1  UNL1        0.0420
      8  C         24.1060  -22.6230  -10.4190 C.3     1  UNL1        0.0250
      9  C         24.1340  -22.6710  -11.9350 C.3     1  UNL1        0.1330
     10  N         23.0060  -21.9520  -12.5470 N.am    1  UNL1       -0.3130
     11  C         23.1960  -21.1890  -13.7150 C.2     1  UNL1        0.2580
     12  O         22.4740  -20.2800  -14.1180 O.2     1  UNL1       -0.2670
     13  C         17.9230  -22.4990   -9.8540 C.2     1  UNL1        0.2520
     14  O         16.8820  -22.0870  -10.3530 O.2     1  UNL1       -0.2680
     15  N         17.9870  -23.1020   -8.6150 N.am    1  UNL1       -0.3520
     16  H         18.8760  -23.4210   -8.2570 H       1  UNL1        0.1630
     17  C         16.7850  -23.4240   -7.8450 C.3     1  UNL1        0.0840
     18  C         16.2000  -22.1310   -7.2620 C.3     1  UNL1        0.0250
     19  C         15.1950  -22.3260   -6.1300 C.3     1  UNL1        0.0020
     20  C         15.8630  -22.4120   -4.7580 C.3     1  UNL1        0.0000
     21  C         16.6180  -23.7080   -4.4800 C.3     1  UNL1        0.0000
     22  C         17.6840  -24.0780   -5.5110 C.3     1  UNL1        0.0020
     23  C         17.0840  -24.5440   -6.8370 C.3     1  UNL1        0.0250
     24  C         24.3810  -21.4830  -14.5590 C.2     1  UNL1        0.0320
     25  C         24.3510  -22.5280  -15.4900 C.2     1  UNL1        0.0170
     26  C         25.4700  -22.7750  -16.2860 C.2     1  UNL1        0.0010
     27  C         26.6060  -21.9740  -16.1610 C.2     1  UNL1        0.0000
     28  C         26.6250  -20.9160  -15.2500 C.2     1  UNL1        0.0010
     29  C         25.5090  -20.6630  -14.4510 C.2     1  UNL1        0.0170
@<TRIPOS>BOND
     1    26    27    2
     2    26    25    1
     3    27    28    1
     4    25    24    2
     5    28    29    2
     6    24    29    1
     7    24    11    1
     8    12    11    2
     9    11    10   am
    10    10     9    1
    11    10     4    1
    12     3     4    2
    13     3     2    1
    14     9     8    1
    15     4     5    1
    16     2     1    2
    17     5     6    2
    18     5     7    1
    19     1     6    1
    20     1    13    1
    21     8     7    1
    22    14    13    2
    23    13    15   am
    24    15    16    1
    25    15    17    1
    26    17    18    1
    27    17    23    1
    28    18    19    1
    29    23    22    1
    30    19    20    1
    31    22    21    1
    32    20    21    1
