@<TRIPOS>MOLECULE
71037_out_ligand_01.pdbqt
 35 38 0 0 0
SMALL
GASTEIGER

@<TRIPOS>ATOM
      1  C         18.5640  -22.2110  -10.1700 C.2     1  UNL1        0.0810
      2  C         19.8940  -22.6400  -10.0330 C.2     1  UNL1        0.0420
      3  C         20.8860  -22.1480  -10.8890 C.2     1  UNL1        0.0330
      4  C         20.5380  -21.2500  -11.9030 C.2     1  UNL1        0.0170
      5  C         19.2120  -20.8300  -12.0430 C.2     1  UNL1        0.0090
      6  C         18.2070  -21.2920  -11.1770 C.2     1  UNL1       -0.0390
      7  C         16.7980  -20.8170  -11.4050 C.3     1  UNL1        0.0500
      8  C         22.2840  -22.6280  -10.7080 C.2     1  UNL1        0.2510
      9  O         22.7150  -22.8640   -9.5860 O.2     1  UNL1       -0.2680
     10  N         23.0450  -22.7480  -11.8520 N.am    1  UNL1       -0.3530
     11  H         22.7410  -22.2640  -12.6850 H       1  UNL1        0.1630
     12  C         24.4620  -23.0480  -11.7540 C.3     1  UNL1        0.1630
     13  C         25.3200  -21.8360  -12.0530 C.2     1  UNL1       -0.0130
     14  C         25.7400  -21.0490  -10.9570 C.2     1  UNL1        0.0110
     15  C         26.6290  -19.9880  -11.1120 C.2     1  UNL1        0.0010
     16  C         27.1180  -19.6790  -12.3740 C.2     1  UNL1        0.0020
     17  C         26.6880  -20.4070  -13.4830 C.2     1  UNL1        0.0300
     18  C         25.7630  -21.4630  -13.3430 C.2     1  UNL1        0.0470
     19  N         25.2950  -22.0800  -14.5400 N.pl3   1  UNL1       -0.3150
     20  C         25.9660  -23.0170  -15.2990 C.2     1  UNL1        0.1170
     21  C         25.1420  -23.3160  -16.3560 C.2     1  UNL1        0.1350
     22  N         24.0010  -22.5690  -16.3040 N.2     1  UNL1       -0.2540
     23  C         24.1310  -21.8210  -15.2300 C.2     1  UNL1        0.2140
     24  S         17.3530  -22.8920   -9.0420 S.O2    1  UNL1        0.2460
     25  O         16.7310  -24.0290   -9.6870 O.2     1  UNL1       -0.2060
     26  O         16.5720  -21.7940   -8.5160 O.2     1  UNL1       -0.2060
     27  N         18.3740  -23.5360   -7.8320 N.pl3   1  UNL1       -0.1810
     28  H         18.0400  -24.4810   -7.6340 H       1  UNL1        0.1460
     29  C         18.4060  -22.7540   -6.6290 C.2     1  UNL1        0.0230
     30  C         19.2740  -21.6670   -6.5270 C.2     1  UNL1        0.0240
     31  C         19.3340  -20.9390   -5.3380 C.2     1  UNL1        0.0020
     32  C         18.5400  -21.3070   -4.2510 C.2     1  UNL1        0.0070
     33  C         17.6750  -22.4060   -4.3430 C.2     1  UNL1       -0.0600
     34  C         16.8690  -22.8380   -3.1530 C.3     1  UNL1        0.0480
     35  C         17.6260  -23.1350   -5.5370 C.2     1  UNL1        0.0310
@<TRIPOS>BOND
     1    21    22    1
     2    21    20    2
     3    22    23    2
     4    20    19    1
     5    23    19    1
     6    19    18    1
     7    17    18    1
     8    17    16    2
     9    18    13    2
    10    11    10    1
    11    16    15    1
    12    13    12    1
    13    13    14    1
    14     5     4    2
    15     5     6    1
    16     4     3    1
    17    10    12    1
    18    10     8   am
    19     7     6    1
    20     6     1    2
    21    15    14    2
    22     3     8    1
    23     3     2    2
    24     8     9    2
    25     1     2    1
    26     1    24    1
    27    25    24    2
    28    24    26    2
    29    24    27    1
    30    27    28    1
    31    27    29    1
    32    29    30    2
    33    29    35    1
    34    30    31    1
    35    35    33    2
    36    31    32    2
    37    33    32    1
    38    33    34    1
