@<TRIPOS>MOLECULE
71031_out_ligand_01.pdbqt
 37 41 0 0 0
SMALL
GASTEIGER

@<TRIPOS>ATOM
      1  O         20.1350  -21.7970  -11.4100 O.2     1  UNL1       -0.2670
      2  C         21.2020  -22.2620  -11.0290 C.2     1  UNL1        0.2560
      3  N         21.4490  -22.8770   -9.8140 N.am    1  UNL1       -0.3230
      4  H         22.3450  -23.3340   -9.7060 H       1  UNL1        0.1690
      5  C         20.5570  -23.0210   -8.7310 C.2     1  UNL1        0.0350
      6  C         20.4200  -21.9240   -7.8670 C.2     1  UNL1        0.0310
      7  C         19.5550  -21.9820   -6.7710 C.2     1  UNL1        0.0270
      8  C         18.8280  -23.1490   -6.5290 C.2     1  UNL1        0.0800
      9  C         18.9360  -24.2400   -7.3930 C.2     1  UNL1        0.0270
     10  C         19.8030  -24.1720   -8.4890 C.2     1  UNL1        0.0310
     11  S         17.7160  -23.2320   -5.1430 S.O2    1  UNL1        0.2630
     12  O         18.0820  -22.1700   -4.2280 O.2     1  UNL1       -0.2000
     13  O         17.6520  -24.6090   -4.7000 O.2     1  UNL1       -0.2000
     14  N         16.2330  -22.7820   -5.8170 N.pl3   1  UNL1       -0.2810
     15  H         15.9190  -21.8740   -5.4760 H       1  UNL1        0.1790
     16  C         15.9530  -23.1140   -7.1720 C.2     1  UNL1        0.0420
     17  C         15.5350  -24.3980   -7.5220 C.2     1  UNL1        0.0300
     18  C         15.3000  -24.7140   -8.8610 C.2     1  UNL1        0.0020
     19  C         15.4800  -23.7460   -9.8500 C.2     1  UNL1        0.0000
     20  C         15.8940  -22.4610   -9.4990 C.2     1  UNL1        0.0020
     21  C         16.1290  -22.1440   -8.1600 C.2     1  UNL1        0.0300
     22  C         22.3640  -22.2210  -11.9630 C.2     1  UNL1        0.0320
     23  C         22.3580  -21.4300  -13.1190 C.2     1  UNL1        0.0170
     24  C         23.4690  -21.4250  -13.9660 C.2     1  UNL1        0.0090
     25  C         24.5920  -22.2190  -13.6800 C.2     1  UNL1       -0.0450
     26  C         24.5840  -23.0200  -12.5300 C.2     1  UNL1        0.0090
     27  C         23.4750  -23.0250  -11.6800 C.2     1  UNL1        0.0170
     28  C         25.7950  -22.2040  -14.6030 C.3     1  UNL1        0.1340
     29  N         26.6560  -21.0550  -14.3290 N.pl3   1  UNL1       -0.2780
     30  C         26.5770  -20.4260  -12.9930 C.3     1  UNL1        0.1010
     31  C         27.0960  -18.9860  -13.1280 C.3     1  UNL1        0.0550
     32  C         26.8020  -18.7350  -14.5660 C.2     1  UNL1       -0.0360
     33  C         26.7890  -17.5250  -15.2420 C.2     1  UNL1        0.0090
     34  C         26.5560  -19.9540  -15.2090 C.2     1  UNL1        0.0170
     35  C         26.5130  -17.5400  -16.6080 C.2     1  UNL1        0.0010
     36  C         26.2700  -18.7540  -17.2690 C.2     1  UNL1        0.0020
     37  C         26.2980  -19.9670  -16.5710 C.2     1  UNL1        0.0240
@<TRIPOS>BOND
     1    36    35    2
     2    36    37    1
     3    35    33    1
     4    37    34    2
     5    33    32    2
     6    34    32    1
     7    34    29    1
     8    28    29    1
     9    28    25    1
    10    32    31    1
    11    29    30    1
    12    24    25    2
    13    24    23    1
    14    25    26    1
    15    31    30    1
    16    23    22    2
    17    26    27    2
    18    22    27    1
    19    22     2    1
    20     1     2    2
    21     2     3   am
    22    19    20    2
    23    19    18    1
    24     3     4    1
    25     3     5    1
    26    20    21    1
    27    18    17    2
    28     5    10    2
    29     5     6    1
    30    10     9    1
    31    21    16    2
    32     6     7    2
    33    17    16    1
    34     9     8    2
    35    16    14    1
    36     7     8    1
    37     8    11    1
    38    14    15    1
    39    14    11    1
    40    11    13    2
    41    11    12    2
