@<TRIPOS>MOLECULE
71034_out_ligand_01.pdbqt
 34 37 0 0 0
SMALL
GASTEIGER

@<TRIPOS>ATOM
      1  C         20.2760  -23.2650   -9.5250 C.2     1  UNL1        0.0340
      2  C         20.5770  -22.5360  -10.6780 C.2     1  UNL1        0.0310
      3  C         21.9020  -22.3870  -11.0990 C.2     1  UNL1        0.0270
      4  C         22.9310  -22.9820  -10.3670 C.2     1  UNL1        0.0750
      5  C         22.6500  -23.6920   -9.1990 C.2     1  UNL1        0.0270
      6  C         21.3230  -23.8340   -8.7850 C.2     1  UNL1        0.0310
      7  N         18.9700  -23.4640   -9.0420 N.am    1  UNL1       -0.3250
      8  C         17.7910  -22.9150   -9.5180 C.2     1  UNL1        0.2510
      9  O         17.6730  -22.1340  -10.4580 O.2     1  UNL1       -0.2700
     10  H         18.8530  -24.1660   -8.3170 H       1  UNL1        0.1690
     11  C         16.5600  -23.3550   -8.7020 C.3     1  UNL1        0.2170
     12  C         15.3850  -23.5200   -9.6620 C.3     1  UNL1        0.0500
     13  O         16.1610  -22.3920   -7.7270 O.2     1  UNL1       -0.3360
     14  C         15.9390  -22.7950   -6.4320 C.2     1  UNL1        0.0810
     15  C         14.8920  -23.6360   -6.0350 C.2     1  UNL1        0.0380
     16  C         14.7590  -24.0130   -4.7010 C.2     1  UNL1        0.0040
     17  C         15.6690  -23.5560   -3.7490 C.2     1  UNL1        0.0120
     18  C         16.7270  -22.7140   -4.1170 C.2     1  UNL1       -0.0230
     19  C         17.6410  -22.2550   -3.1540 C.2     1  UNL1        0.0120
     20  C         16.8700  -22.3210   -5.4700 C.2     1  UNL1        0.0070
     21  C         18.6930  -21.4110   -3.5070 C.2     1  UNL1        0.0010
     22  C         18.8460  -21.0170   -4.8300 C.2     1  UNL1        0.0010
     23  C         17.9450  -21.4650   -5.7990 C.2     1  UNL1        0.0150
     24  S         24.6150  -22.7970  -10.9140 S.O2    1  UNL1        0.2470
     25  O         25.4570  -23.5960  -10.0480 O.2     1  UNL1       -0.2050
     26  O         24.8580  -21.3780  -11.0810 O.2     1  UNL1       -0.2050
     27  N         24.6090  -23.4720  -12.4570 N.pl3   1  UNL1       -0.1650
     28  H         25.1880  -24.3090  -12.4880 H       1  UNL1        0.1470
     29  C         24.9360  -22.6060  -13.5170 C.2     1  UNL1        0.1160
     30  C         23.9950  -21.8550  -14.1980 C.2     1  UNL1        0.0450
     31  C         24.4480  -20.9990  -15.1960 C.2     1  UNL1        0.0050
     32  C         25.8110  -20.9270  -15.4630 C.2     1  UNL1        0.0190
     33  C         26.6690  -21.7260  -14.7230 C.2     1  UNL1        0.1180
     34  N         26.2590  -22.5730  -13.7520 N.2     1  UNL1       -0.2480
@<TRIPOS>BOND
     1    32    31    2
     2    32    33    1
     3    31    30    1
     4    33    34    2
     5    30    29    2
     6    34    29    1
     7    29    27    1
     8    28    27    1
     9    27    24    1
    10     3     2    1
    11     3     4    2
    12    26    24    2
    13    24     4    1
    14    24    25    2
    15     2     1    2
    16     9     8    2
    17     4     5    1
    18    12    11    1
    19     1     7    1
    20     1     6    1
    21     8     7   am
    22     8    11    1
    23     5     6    2
    24     7    10    1
    25    11    13    1
    26    13    14    1
    27    14    15    2
    28    14    20    1
    29    15    16    1
    30    23    20    1
    31    23    22    2
    32    20    18    2
    33    22    21    1
    34    16    17    2
    35    18    17    1
    36    18    19    1
    37    21    19    2
