@<TRIPOS>MOLECULE
71035_out_ligand_01.pdbqt
 30 34 0 0 0
SMALL
GASTEIGER

@<TRIPOS>ATOM
      1  C         23.1540  -22.9100   -9.1960 C.2     1  UNL1        0.0320
      2  C         22.8890  -21.7710   -8.4260 C.2     1  UNL1        0.0170
      3  C         21.6870  -21.6620   -7.7200 C.2     1  UNL1        0.0090
      4  C         20.7340  -22.6870   -7.7800 C.2     1  UNL1       -0.0450
      5  C         20.9970  -23.8150   -8.5730 C.2     1  UNL1        0.0090
      6  C         22.1980  -23.9280   -9.2780 C.2     1  UNL1        0.0170
      7  C         24.4520  -22.9870   -9.9230 C.2     1  UNL1        0.2520
      8  O         25.2290  -23.9060   -9.6940 O.2     1  UNL1       -0.2680
      9  N         24.6770  -22.0040  -10.8620 N.am    1  UNL1       -0.3480
     10  H         23.8850  -21.4620  -11.1760 H       1  UNL1        0.1630
     11  C         25.8210  -22.0500  -11.7650 C.3     1  UNL1        0.1180
     12  C         26.9520  -21.1640  -11.2230 C.3     1  UNL1        0.0300
     13  C         26.6570  -19.6840  -11.4450 C.3     1  UNL1        0.0070
     14  C         26.5370  -19.3780  -12.9350 C.3     1  UNL1        0.0390
     15  C         25.6760  -20.3650  -13.6840 C.2     1  UNL1       -0.0500
     16  C         25.2220  -20.0280  -14.9690 C.2     1  UNL1        0.0070
     17  C         25.3770  -21.6360  -13.1560 C.2     1  UNL1       -0.0290
     18  C         24.4640  -20.9290  -15.7160 C.2     1  UNL1        0.0010
     19  C         24.1580  -22.1820  -15.1940 C.2     1  UNL1        0.0010
     20  C         24.6110  -22.5320  -13.9230 C.2     1  UNL1        0.0100
     21  C         19.4250  -22.5740   -7.0240 C.3     1  UNL1        0.1340
     22  N         18.4460  -23.5380   -7.5270 N.pl3   1  UNL1       -0.2780
     23  C         17.5940  -24.2420   -6.5430 C.3     1  UNL1        0.1010
     24  C         16.3380  -24.7280   -7.2830 C.3     1  UNL1        0.0550
     25  C         16.2820  -23.7280   -8.3860 C.2     1  UNL1       -0.0360
     26  C         15.2310  -23.4570   -9.2480 C.2     1  UNL1        0.0090
     27  C         17.5170  -23.0740   -8.4830 C.2     1  UNL1        0.0170
     28  C         15.4240  -22.4920  -10.2350 C.2     1  UNL1        0.0010
     29  C         16.6560  -21.8330  -10.3510 C.2     1  UNL1        0.0020
     30  C         17.7100  -22.1280   -9.4780 C.2     1  UNL1        0.0240
@<TRIPOS>BOND
     1    18    19    2
     2    18    16    1
     3    19    20    1
     4    16    15    2
     5    20    17    2
     6    15    17    1
     7    15    14    1
     8    17    11    1
     9    14    13    1
    10    11    12    1
    11    11     9    1
    12    13    12    1
    13    10     9    1
    14     9     7   am
    15    29    28    2
    16    29    30    1
    17    28    26    1
    18     7     8    2
    19     7     1    1
    20    30    27    2
    21     6     1    2
    22     6     5    1
    23    26    25    2
    24     1     2    1
    25     5     4    2
    26    27    25    1
    27    27    22    1
    28     2     3    2
    29    25    24    1
    30     4     3    1
    31     4    21    1
    32    22    21    1
    33    22    23    1
    34    24    23    1
