@<TRIPOS>MOLECULE
71039_out_ligand_01.pdbqt
 36 39 0 0 0
SMALL
GASTEIGER

@<TRIPOS>ATOM
      1  C         21.1710  -22.5570  -10.8310 C.2     1  UNL1        0.0340
      2  C         20.9080  -23.5160   -9.8430 C.2     1  UNL1        0.0310
      3  C         19.6230  -23.6720   -9.3150 C.2     1  UNL1        0.0270
      4  C         18.5950  -22.8470   -9.7710 C.2     1  UNL1        0.0800
      5  C         18.8390  -21.8990  -10.7670 C.2     1  UNL1        0.0270
      6  C         20.1260  -21.7550  -11.2910 C.2     1  UNL1        0.0310
      7  N         22.4870  -22.4860  -11.3290 N.am    1  UNL1       -0.3250
      8  C         23.5660  -21.8030  -10.7890 C.2     1  UNL1        0.2510
      9  O         23.5840  -21.1860   -9.7270 O.2     1  UNL1       -0.2700
     10  H         22.6930  -23.0360  -12.1590 H       1  UNL1        0.1690
     11  C         24.8100  -21.8400  -11.7000 C.3     1  UNL1        0.2200
     12  C         26.0060  -21.2350  -10.9510 C.3     1  UNL1        0.0380
     13  C         26.4260  -19.8820  -11.5080 C.3     1  UNL1        0.0080
     14  O         24.6180  -21.0390  -12.8740 O.2     1  UNL1       -0.3370
     15  C         24.7490  -21.6500  -14.0910 C.2     1  UNL1        0.0710
     16  C         24.7350  -21.0090  -15.3340 C.2     1  UNL1        0.0370
     17  C         24.9070  -21.7500  -16.5070 C.2     1  UNL1        0.0040
     18  C         25.1000  -23.1320  -16.4450 C.2     1  UNL1        0.0240
     19  C         25.1180  -23.7700  -15.2060 C.2     1  UNL1        0.0360
     20 CL         25.3420  -25.4770  -15.1270 Cl      1  UNL1       -0.0840
     21  C         24.9500  -23.0340  -14.0330 C.2     1  UNL1        0.0600
     22  S         16.9440  -23.0420   -9.1420 S.O2    1  UNL1        0.2630
     23  O         16.1650  -23.7480  -10.1330 O.2     1  UNL1       -0.2000
     24  O         16.5170  -21.7510   -8.6460 O.2     1  UNL1       -0.2000
     25  N         17.1530  -24.0080   -7.7850 N.pl3   1  UNL1       -0.2800
     26  H         17.1260  -25.0150   -7.9650 H       1  UNL1        0.1790
     27  C         16.7700  -23.5350   -6.4960 C.2     1  UNL1        0.0530
     28  C         15.5930  -24.0550   -5.9450 C.2     1  UNL1        0.0310
     29  C         15.1550  -23.6280   -4.6920 C.2     1  UNL1        0.0030
     30  C         15.8950  -22.6790   -3.9860 C.2     1  UNL1        0.0120
     31  C         17.0880  -22.1530   -4.5160 C.2     1  UNL1       -0.0240
     32  C         17.8160  -21.1920   -3.7890 C.2     1  UNL1        0.0120
     33  C         17.5530  -22.5850   -5.7860 C.2     1  UNL1        0.0010
     34  C         19.0120  -20.6720   -4.2830 C.2     1  UNL1        0.0010
     35  C         19.4960  -21.1040   -5.5180 C.2     1  UNL1        0.0010
     36  C         18.7680  -22.0370   -6.2680 C.2     1  UNL1        0.0140
@<TRIPOS>BOND
     1    17    18    2
     2    17    16    1
     3    18    19    1
     4    16    15    2
     5    19    20    1
     6    19    21    2
     7    15    21    1
     8    15    14    1
     9    14    11    1
    10    10     7    1
    11    11    12    1
    12    11     8    1
    13    13    12    1
    14     7     1    1
    15     7     8   am
    16     6     1    2
    17     6     5    1
    18     1     2    1
    19     8     9    2
    20     5     4    2
    21    23    22    2
    22     2     3    2
    23     4     3    1
    24     4    22    1
    25    22    24    2
    26    22    25    1
    27    26    25    1
    28    25    27    1
    29    27    28    2
    30    27    33    1
    31    36    33    1
    32    36    35    2
    33    28    29    1
    34    33    31    2
    35    35    34    1
    36    29    30    2
    37    31    30    1
    38    31    32    1
    39    34    32    2
