@<TRIPOS>MOLECULE
71047_out_ligand_01.pdbqt
 44 48 0 0 0
SMALL
GASTEIGER

@<TRIPOS>ATOM
      1  N         22.1880  -21.6540  -10.7640 N.am    1  UNL1       -0.3260
      2  C         22.4110  -22.0090   -9.4430 C.2     1  UNL1        0.2360
      3  O         23.3680  -22.6500   -9.0170 O.2     1  UNL1       -0.2720
      4  H         21.4210  -21.0180  -10.9390 H       1  UNL1        0.1690
      5  C         21.3160  -21.5190   -8.5020 C.3     1  UNL1        0.2170
      6  N         20.5640  -22.6750   -7.9300 N.pl3   1  UNL1       -0.1630
      7  C         19.6800  -22.3490   -6.8400 C.2     1  UNL1        0.0280
      8  C         19.8080  -21.1600   -6.1120 C.2     1  UNL1        0.0270
      9  C         18.9790  -20.9230   -5.0140 C.2     1  UNL1        0.0410
     10  C         18.0310  -21.8760   -4.6420 C.2     1  UNL1        0.1020
     11  C         17.9300  -23.0820   -5.3460 C.2     1  UNL1        0.1030
     12  O         17.2410  -21.5720   -3.5630 O.2     1  UNL1       -0.3460
     13  C         18.7440  -23.3130   -6.4520 C.2     1  UNL1        0.0640
     14  O         17.0570  -24.0830   -5.0020 O.2     1  UNL1       -0.3460
     15  C         16.4690  -23.8640   -3.7130 C.3     1  UNL1        0.2020
     16  C         16.0750  -22.4060   -3.5330 C.3     1  UNL1        0.2020
     17  S         19.8610  -23.7060   -9.1090 S.O2    1  UNL1        0.2480
     18  O         19.0600  -24.6850   -8.3960 O.2     1  UNL1       -0.2050
     19  O         20.8760  -24.1150  -10.0570 O.2     1  UNL1       -0.2050
     20  C         18.7610  -22.6070   -9.9690 C.2     1  UNL1        0.0750
     21  C         17.4360  -22.5030   -9.5340 C.2     1  UNL1        0.0250
     22  C         16.5530  -21.6740  -10.2230 C.2     1  UNL1        0.0020
     23  C         16.9940  -20.9570  -11.3390 C.2     1  UNL1        0.0000
     24  C         18.3240  -21.0520  -11.7570 C.2     1  UNL1        0.0020
     25  C         19.2140  -21.8810  -11.0750 C.2     1  UNL1        0.0250
     26  C         22.9500  -22.0130  -11.8940 C.2     1  UNL1        0.0340
     27  C         22.8770  -21.3540  -13.1250 C.2     1  UNL1        0.0310
     28  C         23.7000  -21.7430  -14.1870 C.2     1  UNL1        0.0270
     29  C         24.5900  -22.8070  -14.0190 C.2     1  UNL1        0.0750
     30  C         24.6700  -23.4770  -12.7990 C.2     1  UNL1        0.0270
     31  C         23.8500  -23.0770  -11.7400 C.2     1  UNL1        0.0310
     32  S         25.6580  -23.2700  -15.3600 S.O2    1  UNL1        0.2480
     33  O         25.1470  -22.7090  -16.5940 O.2     1  UNL1       -0.2050
     34  O         25.8540  -24.7020  -15.2410 O.2     1  UNL1       -0.2050
     35  N         27.1200  -22.5730  -14.9910 N.pl3   1  UNL1       -0.1480
     36  H         27.8630  -22.8410  -15.6210 H       1  UNL1        0.1490
     37  C         27.1140  -21.2080  -14.7310 C.cat   1  UNL1        0.2160
     38  N         26.9020  -20.3600  -15.7370 N.2     1  UNL1       -0.2230
     39  C         26.7300  -19.0680  -15.3940 C.2     1  UNL1        0.0360
     40  C         26.7450  -18.6470  -14.0760 C.2     1  UNL1        0.0530
     41  C         26.5250  -18.0820  -16.5050 C.3     1  UNL1        0.0700
     42  C         26.9240  -19.6230  -13.1120 C.2     1  UNL1        0.0360
     43  C         26.9280  -19.2610  -11.6570 C.3     1  UNL1        0.0700
     44  N         27.0900  -20.9230  -13.4260 N.2     1  UNL1       -0.2230
@<TRIPOS>BOND
     1    33    32    2
     2    41    39    1
     3    38    39    1
     4    38    37    2
     5    36    35    1
     6    39    40    2
     7    32    34    2
     8    32    35    1
     9    32    29    1
    10    35    37    1
    11    37    44    1
    12    28    29    2
    13    28    27    1
    14    40    42    1
    15    29    30    1
    16    44    42    2
    17    27    26    2
    18    42    43    1
    19    30    31    2
    20    26    31    1
    21    26     1    1
    22    24    23    2
    23    24    25    1
    24    23    22    1
    25    25    20    2
    26     4     1    1
    27     1     2   am
    28    22    21    2
    29    19    17    2
    30    20    21    1
    31    20    17    1
    32     2     3    2
    33     2     5    1
    34    17    18    2
    35    17     6    1
    36     5     6    1
    37     6     7    1
    38     7    13    2
    39     7     8    1
    40    13    11    1
    41     8     9    2
    42    11    14    1
    43    11    10    2
    44     9    10    1
    45    14    15    1
    46    10    12    1
    47    15    16    1
    48    12    16    1
