@<TRIPOS>MOLECULE
71055_out_ligand_01.pdbqt
 38 41 0 0 0
SMALL
GASTEIGER

@<TRIPOS>ATOM
      1  N         18.6740  -22.9180   -6.2940 N.am    1  UNL1       -0.3220
      2  C         19.6520  -21.9670   -6.5040 C.2     1  UNL1        0.2560
      3  O         19.7090  -20.8570   -5.9860 O.2     1  UNL1       -0.2670
      4  H         18.8070  -23.8340   -6.7240 H       1  UNL1        0.1690
      5  C         17.5310  -22.8440   -5.4580 C.2     1  UNL1        0.0500
      6  C         17.6000  -22.4010   -4.1310 C.2     1  UNL1        0.0300
      7  C         16.4600  -22.3750   -3.3210 C.2     1  UNL1        0.0020
      8  C         15.2330  -22.7940   -3.8200 C.2     1  UNL1        0.0010
      9  C         15.1350  -23.2260   -5.1420 C.2     1  UNL1        0.0190
     10  C         16.2700  -23.2330   -5.9730 C.2     1  UNL1        0.0580
     11  C         16.1320  -23.6540   -7.4040 C.2     1  UNL1        0.2540
     12  N         16.3810  -22.6900   -8.3580 N.am    1  UNL1       -0.3490
     13  H         16.8590  -21.8430   -8.0790 H       1  UNL1        0.1630
     14  O         15.8660  -24.8190   -7.6850 O.2     1  UNL1       -0.2680
     15  C         16.3890  -23.0050   -9.7790 C.3     1  UNL1        0.1140
     16  C         15.0330  -22.7100  -10.4290 C.3     1  UNL1        0.0370
     17  C         17.5240  -22.2540  -10.4550 C.2     1  UNL1       -0.0360
     18  C         18.8100  -22.8080  -10.5690 C.2     1  UNL1        0.0090
     19  C         19.8310  -22.1120  -11.2200 C.2     1  UNL1        0.0010
     20  C         19.5780  -20.8580  -11.7710 C.2     1  UNL1        0.0000
     21  C         18.3070  -20.2990  -11.6740 C.2     1  UNL1        0.0010
     22  C         17.2840  -20.9930  -11.0240 C.2     1  UNL1        0.0090
     23  C         20.7430  -22.3620   -7.4490 C.2     1  UNL1        0.0320
     24  C         20.6790  -23.6330   -8.0370 C.2     1  UNL1        0.0200
     25  C         21.6760  -24.0650   -8.9210 C.2     1  UNL1        0.0380
     26  C         22.7550  -23.2340   -9.2160 C.2     1  UNL1        0.0680
     27  C         22.8240  -21.9690   -8.6260 C.2     1  UNL1        0.0380
     28  C         21.8320  -21.5330   -7.7420 C.2     1  UNL1        0.0200
     29  O         23.7920  -23.5290  -10.0560 O.2     1  UNL1       -0.3500
     30  C         24.3280  -22.4550  -10.8310 C.3     1  UNL1        0.1860
     31  C         23.9360  -22.6350  -12.2980 C.3     1  UNL1        0.1060
     32  S         25.0970  -23.6920  -13.2440 S.3     1  UNL1       -0.1280
     33  C         25.0090  -22.9080  -14.8420 C.2     1  UNL1        0.0000
     34  C         24.9720  -21.5160  -14.9640 C.2     1  UNL1        0.0180
     35  C         24.8950  -20.9240  -16.2280 C.2     1  UNL1        0.0010
     36  C         24.8630  -21.7210  -17.3710 C.2     1  UNL1        0.0000
     37  C         24.9130  -23.1090  -17.2550 C.2     1  UNL1        0.0010
     38  C         24.9900  -23.7010  -15.9930 C.2     1  UNL1        0.0180
@<TRIPOS>BOND
     1    36    37    2
     2    36    35    1
     3    37    38    1
     4    35    34    2
     5    38    33    2
     6    34    33    1
     7    33    32    1
     8    32    31    1
     9    31    30    1
    10    20    21    2
    11    20    19    1
    12    21    22    1
    13    19    18    2
    14    22    17    2
    15    30    29    1
    16    18    17    1
    17    17    15    1
    18    16    15    1
    19    29    26    1
    20    15    12    1
    21    26    25    2
    22    26    27    1
    23    25    24    1
    24    27    28    2
    25    12    13    1
    26    12    11   am
    27    24    23    2
    28    28    23    1
    29    14    11    2
    30    23     2    1
    31    11    10    1
    32     4     1    1
    33     2     1   am
    34     2     3    2
    35     1     5    1
    36    10     5    2
    37    10     9    1
    38     5     6    1
    39     9     8    2
    40     6     7    2
    41     8     7    1
