@<TRIPOS>MOLECULE
71052_out_ligand_01.pdbqt
 39 43 0 0 0
SMALL
GASTEIGER

@<TRIPOS>ATOM
      1  C         21.0920  -22.4870  -10.7140 C.2     1  UNL1        0.0340
      2  C         20.0470  -21.6900  -11.1850 C.2     1  UNL1        0.0310
      3  C         18.7490  -21.8470  -10.6850 C.2     1  UNL1        0.0270
      4  C         18.4950  -22.8120   -9.7110 C.2     1  UNL1        0.0800
      5  C         19.5360  -23.5890   -9.1970 C.2     1  UNL1        0.0270
      6  C         20.8270  -23.4330   -9.7110 C.2     1  UNL1        0.0310
      7  N         22.4170  -22.4170  -11.1920 N.am    1  UNL1       -0.3250
      8  C         23.4940  -21.7570  -10.6100 C.2     1  UNL1        0.2510
      9  O         23.4730  -21.1640   -9.5350 O.2     1  UNL1       -0.2700
     10  H         22.5880  -22.8860  -12.0700 H       1  UNL1        0.1690
     11  C         24.7840  -21.8660  -11.4540 C.3     1  UNL1        0.2200
     12  C         25.8670  -20.9230  -10.9020 C.3     1  UNL1        0.0380
     13  C         26.4310  -19.9620  -11.9400 C.3     1  UNL1        0.0080
     14  O         24.5040  -21.4500  -12.8020 O.2     1  UNL1       -0.3360
     15  C         24.7600  -22.4430  -13.7170 C.2     1  UNL1        0.0810
     16  C         24.9660  -23.7480  -13.2600 C.2     1  UNL1        0.0380
     17  C         25.2650  -24.7570  -14.1690 C.2     1  UNL1        0.0040
     18  C         25.3730  -24.4630  -15.5300 C.2     1  UNL1        0.0120
     19  C         25.1970  -23.1500  -16.0020 C.2     1  UNL1       -0.0230
     20  C         25.3240  -22.8530  -17.3700 C.2     1  UNL1        0.0120
     21  C         24.8950  -22.1140  -15.0850 C.2     1  UNL1        0.0070
     22  C         25.1700  -21.5470  -17.8370 C.2     1  UNL1        0.0010
     23  C         24.8870  -20.5200  -16.9440 C.2     1  UNL1        0.0010
     24  C         24.7440  -20.8020  -15.5810 C.2     1  UNL1        0.0150
     25  S         16.8420  -23.0380   -9.0940 S.O2    1  UNL1        0.2630
     26  O         16.0750  -23.7470  -10.0970 O.2     1  UNL1       -0.2000
     27  O         16.3960  -21.7590   -8.5780 O.2     1  UNL1       -0.2000
     28  N         17.0490  -24.0370   -7.7450 N.pl3   1  UNL1       -0.2800
     29  H         16.9910  -25.0260   -7.9810 H       1  UNL1        0.1790
     30  C         16.5380  -23.6060   -6.4770 C.2     1  UNL1        0.0530
     31  C         15.3330  -24.1580   -6.0300 C.2     1  UNL1        0.0310
     32  C         14.8350  -23.8320   -4.7720 C.2     1  UNL1        0.0030
     33  C         15.5480  -22.9630   -3.9480 C.2     1  UNL1        0.0120
     34  C         16.7610  -22.3980   -4.3730 C.2     1  UNL1       -0.0240
     35  C         17.4740  -21.5350   -3.5220 C.2     1  UNL1        0.0120
     36  C         17.2740  -22.7050   -5.6590 C.2     1  UNL1        0.0010
     37  C         18.6840  -20.9670   -3.9210 C.2     1  UNL1        0.0010
     38  C         19.1940  -21.2440   -5.1830 C.2     1  UNL1        0.0010
     39  C         18.4990  -22.1000   -6.0410 C.2     1  UNL1        0.0140
@<TRIPOS>BOND
     1    22    20    2
     2    22    23    1
     3    20    19    1
     4    23    24    2
     5    19    18    2
     6    19    21    1
     7    24    21    1
     8    18    17    1
     9    21    15    2
    10    17    16    2
    11    15    16    1
    12    15    14    1
    13    14    11    1
    14    10     7    1
    15    13    12    1
    16    11    12    1
    17    11     8    1
    18     7     1    1
    19     7     8   am
    20     2     1    2
    21     2     3    1
    22     1     6    1
    23     3     4    2
    24     8     9    2
    25    26    25    2
    26     6     5    2
    27     4     5    1
    28     4    25    1
    29    25    27    2
    30    25    28    1
    31    29    28    1
    32    28    30    1
    33    30    31    2
    34    30    36    1
    35    39    36    1
    36    39    38    2
    37    31    32    1
    38    36    34    2
    39    38    37    1
    40    32    33    2
    41    34    33    1
    42    34    35    1
    43    37    35    2
