@<TRIPOS>MOLECULE
71054_out_ligand_01.pdbqt
 36 39 0 0 0
SMALL
GASTEIGER

@<TRIPOS>ATOM
      1  C         17.5990  -23.5090   -8.5680 C.2     1  UNL1        0.0810
      2  C         18.9910  -23.7060   -8.5500 C.2     1  UNL1        0.0420
      3  C         19.7990  -23.1330   -9.5380 C.2     1  UNL1        0.0330
      4  C         19.2160  -22.3520  -10.5400 C.2     1  UNL1        0.0170
      5  C         17.8320  -22.1580  -10.5600 C.2     1  UNL1        0.0090
      6  C         17.0000  -22.7340   -9.5810 C.2     1  UNL1       -0.0390
      7  C         15.5210  -22.4670   -9.6600 C.3     1  UNL1        0.0500
      8  C         21.2700  -23.3480   -9.4660 C.2     1  UNL1        0.2510
      9  O         21.7120  -24.3900   -8.9930 O.2     1  UNL1       -0.2680
     10  N         22.0580  -22.3400   -9.9810 N.am    1  UNL1       -0.3530
     11  H         21.6270  -21.6350  -10.5620 H       1  UNL1        0.1630
     12  C         23.4910  -22.5010  -10.1040 C.3     1  UNL1        0.1610
     13  C         23.9060  -22.4830  -11.5550 C.2     1  UNL1       -0.0400
     14  C         23.1880  -21.7360  -12.4980 C.2     1  UNL1        0.0110
     15  C         23.5460  -21.7580  -13.8530 C.2     1  UNL1        0.0300
     16  C         24.6330  -22.5340  -14.2880 C.2     1  UNL1        0.0390
     17  C         25.3530  -23.2830  -13.3440 C.2     1  UNL1        0.0300
     18  C         24.9860  -23.2630  -11.9920 C.2     1  UNL1        0.0110
     19  N         24.9920  -22.5720  -15.6680 N.pl3   1  UNL1       -0.3150
     20  C         25.8440  -21.7150  -16.3380 C.2     1  UNL1        0.1170
     21  C         25.8890  -22.1580  -17.6390 C.2     1  UNL1        0.1350
     22  N         25.0910  -23.2540  -17.8080 N.2     1  UNL1       -0.2540
     23  C         24.5740  -23.4820  -16.6200 C.2     1  UNL1        0.2140
     24  S         16.6420  -24.3060   -7.2780 S.O2    1  UNL1        0.2460
     25  O         15.6110  -25.1010   -7.9100 O.2     1  UNL1       -0.2060
     26  O         17.5830  -24.9010   -6.3510 O.2     1  UNL1       -0.2060
     27  N         15.9570  -22.9520   -6.4820 N.pl3   1  UNL1       -0.1810
     28  H         15.7600  -22.2520   -7.2000 H       1  UNL1        0.1460
     29  C         16.8150  -22.3930   -5.4680 C.2     1  UNL1        0.0290
     30  C         16.6270  -22.7120   -4.1140 C.2     1  UNL1       -0.0400
     31  C         17.5400  -22.2160   -3.1710 C.2     1  UNL1        0.0090
     32  C         15.4950  -23.5810   -3.6450 C.3     1  UNL1        0.0500
     33  C         18.6080  -21.4090   -3.5660 C.2     1  UNL1        0.0070
     34  C         18.7820  -21.0690   -4.9120 C.2     1  UNL1       -0.0600
     35  C         19.9580  -20.2440   -5.3450 C.3     1  UNL1        0.0480
     36  C         17.8890  -21.5810   -5.8610 C.2     1  UNL1        0.0310
@<TRIPOS>BOND
     1    22    21    1
     2    22    23    2
     3    21    20    2
     4    23    19    1
     5    20    19    1
     6    19    16    1
     7    16    15    2
     8    16    17    1
     9    15    14    1
    10    17    18    2
    11    14    13    2
    12    18    13    1
    13    13    12    1
    14    11    10    1
    15     5     4    2
    16     5     6    1
    17     4     3    1
    18    12    10    1
    19    10     8   am
    20     7     6    1
    21     6     1    2
    22     3     8    1
    23     3     2    2
    24     8     9    2
    25     1     2    1
    26     1    24    1
    27    25    24    2
    28    24    27    1
    29    24    26    2
    30    28    27    1
    31    27    29    1
    32    36    29    2
    33    36    34    1
    34    29    30    1
    35    35    34    1
    36    34    33    2
    37    30    32    1
    38    30    31    2
    39    33    31    1
