@<TRIPOS>MOLECULE
71050_out_ligand_01.pdbqt
 28 31 0 0 0
SMALL
GASTEIGER

@<TRIPOS>ATOM
      1  C         20.8280  -22.0430  -11.2330 C.2     1  UNL1        0.0320
      2  C         19.7050  -21.2350  -11.4460 C.2     1  UNL1        0.0170
      3  C         18.5640  -21.4070  -10.6580 C.2     1  UNL1        0.0100
      4  C         18.5270  -22.3860   -9.6520 C.2     1  UNL1       -0.0400
      5  C         19.6450  -23.2110   -9.4670 C.2     1  UNL1        0.0100
      6  C         20.7880  -23.0410  -10.2530 C.2     1  UNL1        0.0170
      7  C         22.0680  -21.8940  -12.0470 C.2     1  UNL1        0.2560
      8  O         21.9730  -21.4080  -13.1670 O.2     1  UNL1       -0.2670
      9  N         23.2180  -22.3750  -11.4450 N.am    1  UNL1       -0.3230
     10  H         23.1020  -22.8700  -10.5710 H       1  UNL1        0.1690
     11  C         24.5320  -22.3350  -11.9570 C.2     1  UNL1        0.0370
     12  C         25.5100  -21.4290  -11.5290 C.2     1  UNL1        0.0290
     13  C         26.7960  -21.4540  -12.0810 C.2     1  UNL1        0.0050
     14  C         27.1180  -22.3870  -13.0640 C.2     1  UNL1        0.0420
     15  C         26.1480  -23.2870  -13.4830 C.2     1  UNL1        0.1180
     16  F         26.4500  -24.1890  -14.4270 F       1  UNL1       -0.2060
     17  C         24.8650  -23.2710  -12.9410 C.2     1  UNL1        0.0710
     18  C         17.2750  -22.5900   -8.8190 C.3     1  UNL1        0.1610
     19  N         17.5730  -23.3610   -7.5980 N.pl3   1  UNL1       -0.3760
     20  C         16.7250  -24.5370   -7.3560 C.3     1  UNL1        0.1230
     21  C         15.5320  -24.1830   -6.4830 C.3     1  UNL1        0.0240
     22  C         16.0340  -23.7210   -5.1240 C.3     1  UNL1        0.0420
     23  C         17.1550  -22.7220   -5.2550 C.2     1  UNL1       -0.0320
     24  C         17.4960  -21.9450   -4.1340 C.2     1  UNL1        0.0090
     25  C         17.8690  -22.5840   -6.4620 C.2     1  UNL1        0.0360
     26  C         18.5370  -21.0220   -4.2020 C.2     1  UNL1        0.0010
     27  C         19.2540  -20.8800   -5.3830 C.2     1  UNL1        0.0020
     28  C         18.9250  -21.6570   -6.4970 C.2     1  UNL1        0.0300
@<TRIPOS>BOND
     1    16    15    1
     2    15    14    2
     3    15    17    1
     4     8     7    2
     5    14    13    1
     6    17    11    2
     7    13    12    2
     8     7     9   am
     9     7     1    1
    10    11    12    1
    11    11     9    1
    12     2     1    2
    13     2     3    1
    14     9    10    1
    15     1     6    1
    16     3     4    2
    17     6     5    2
    18     4     5    1
    19     4    18    1
    20    18    19    1
    21    19    20    1
    22    19    25    1
    23    20    21    1
    24    28    25    1
    25    28    27    2
    26    21    22    1
    27    25    23    2
    28    27    26    1
    29    23    22    1
    30    23    24    1
    31    26    24    2
