@<TRIPOS>MOLECULE
71066_out_ligand_01.pdbqt
 34 37 0 0 0
SMALL
GASTEIGER

@<TRIPOS>ATOM
      1  C         19.2400  -22.3350  -10.4970 C.2     1  UNL1        0.0860
      2  C         20.5830  -22.7210  -10.3460 C.2     1  UNL1        0.0420
      3  C         21.5940  -22.0810  -11.0660 C.2     1  UNL1        0.0330
      4  C         21.2640  -21.0530  -11.9480 C.2     1  UNL1        0.0170
      5  C         19.9260  -20.6870  -12.1220 C.2     1  UNL1        0.0090
      6  C         18.8920  -21.3240  -11.4090 C.2     1  UNL1       -0.0390
      7  C         17.4810  -20.8750  -11.6710 C.3     1  UNL1        0.0500
      8  C         23.0030  -22.4960  -10.8280 C.2     1  UNL1        0.2520
      9  O         23.2410  -23.4290  -10.0690 O.2     1  UNL1       -0.2680
     10  N         23.9650  -21.7980  -11.5220 N.am    1  UNL1       -0.3480
     11  H         23.6690  -21.2450  -12.3150 H       1  UNL1        0.1630
     12  C         25.3690  -22.1900  -11.5060 C.3     1  UNL1        0.1180
     13  C         26.2350  -21.0030  -11.0570 C.3     1  UNL1        0.0300
     14  C         26.3850  -19.9690  -12.1690 C.3     1  UNL1        0.0070
     15  C         27.0780  -20.5850  -13.3820 C.3     1  UNL1        0.0390
     16  C         26.5160  -21.9270  -13.7750 C.2     1  UNL1       -0.0500
     17  C         26.8170  -22.4390  -15.0470 C.2     1  UNL1        0.0070
     18  C         25.7570  -22.7050  -12.8800 C.2     1  UNL1       -0.0290
     19  C         26.3630  -23.7010  -15.4340 C.2     1  UNL1        0.0010
     20  C         25.6080  -24.4690  -14.5550 C.2     1  UNL1        0.0010
     21  C         25.3060  -23.9750  -13.2870 C.2     1  UNL1        0.0100
     22  S         18.0610  -23.2220   -9.4810 S.O2    1  UNL1        0.2630
     23  O         16.9250  -23.6350  -10.2740 O.2     1  UNL1       -0.2000
     24  O         18.8190  -24.1970   -8.7230 O.2     1  UNL1       -0.2000
     25  N         17.5580  -22.0620   -8.3620 N.pl3   1  UNL1       -0.2800
     26  H         17.1260  -21.2590   -8.8130 H       1  UNL1        0.1790
     27  C         17.1010  -22.4420   -7.0640 C.2     1  UNL1        0.0480
     28  C         15.8940  -23.1260   -6.9170 C.2     1  UNL1        0.0310
     29  C         15.4290  -23.4870   -5.6500 C.2     1  UNL1        0.0090
     30  C         16.1700  -23.1720   -4.5110 C.2     1  UNL1       -0.0610
     31  C         15.6910  -23.5880   -3.1530 C.3     1  UNL1        0.0480
     32  C         17.4030  -22.5240   -4.6640 C.2     1  UNL1        0.0150
     33  C         17.8840  -22.1550   -5.9320 C.2     1  UNL1       -0.0340
     34  C         19.2210  -21.4750   -6.0290 C.3     1  UNL1        0.0500
@<TRIPOS>BOND
     1    19    17    1
     2    19    20    2
     3    17    16    2
     4    20    21    1
     5    16    15    1
     6    16    18    1
     7    15    14    1
     8    21    18    2
     9    18    12    1
    10    11    10    1
    11    14    13    1
    12     5     4    2
    13     5     6    1
    14     4     3    1
    15     7     6    1
    16    10    12    1
    17    10     8   am
    18    12    13    1
    19     6     1    2
    20     3     8    1
    21     3     2    2
    22     8     9    2
    23     1     2    1
    24     1    22    1
    25    23    22    2
    26    22    24    2
    27    22    25    1
    28    26    25    1
    29    25    27    1
    30    27    28    2
    31    27    33    1
    32    28    29    1
    33    34    33    1
    34    33    32    2
    35    29    30    2
    36    32    30    1
    37    30    31    1
