@<TRIPOS>MOLECULE
71075_out_ligand_01.pdbqt
 38 42 0 0 0
SMALL
GASTEIGER

@<TRIPOS>ATOM
      1  O         19.7990  -21.1990  -12.2470 O.2     1  UNL1       -0.2670
      2  C         20.0460  -21.9290  -11.2940 C.2     1  UNL1        0.2560
      3  N         21.2560  -22.5410  -11.0140 N.am    1  UNL1       -0.3230
      4  H         21.2670  -23.2070  -10.2510 H       1  UNL1        0.1690
      5  C         22.4670  -22.4100  -11.7250 C.2     1  UNL1        0.0350
      6  C         23.6810  -22.9630  -11.3080 C.2     1  UNL1        0.0310
      7  C         24.8390  -22.7950  -12.0740 C.2     1  UNL1        0.0270
      8  C         24.7790  -22.0800  -13.2710 C.2     1  UNL1        0.0800
      9  C         23.5790  -21.5140  -13.6970 C.2     1  UNL1        0.0270
     10  C         22.4280  -21.6820  -12.9230 C.2     1  UNL1        0.0310
     11  S         26.2510  -21.8860  -14.2410 S.O2    1  UNL1        0.2630
     12  O         27.0960  -20.8870  -13.6210 O.2     1  UNL1       -0.2000
     13  O         26.7530  -23.2130  -14.5310 O.2     1  UNL1       -0.2000
     14  N         25.6500  -21.2800  -15.7040 N.pl3   1  UNL1       -0.2810
     15  H         25.6630  -22.0010  -16.4240 H       1  UNL1        0.1790
     16  C         26.0210  -19.9600  -16.0790 C.2     1  UNL1        0.0420
     17  C         26.0660  -18.9500  -15.1170 C.2     1  UNL1        0.0310
     18  C         26.3980  -17.6460  -15.4940 C.2     1  UNL1        0.0210
     19  C         26.6720  -17.3590  -16.8320 C.2     1  UNL1        0.0110
     20 BR         27.1170  -15.5940  -17.3440 Br      1  UNL1       -0.0510
     21  C         26.6190  -18.3660  -17.7960 C.2     1  UNL1        0.0210
     22  C         26.2880  -19.6700  -17.4180 C.2     1  UNL1        0.0310
     23  C         18.9410  -22.2420  -10.3410 C.2     1  UNL1        0.0320
     24  C         19.1480  -23.2540   -9.3950 C.2     1  UNL1        0.0170
     25  C         18.1460  -23.5790   -8.4770 C.2     1  UNL1        0.0090
     26  C         16.9190  -22.9020   -8.4990 C.2     1  UNL1       -0.0450
     27  C         16.7100  -21.9010   -9.4630 C.2     1  UNL1        0.0090
     28  C         17.7100  -21.5770  -10.3830 C.2     1  UNL1        0.0170
     29  C         15.8270  -23.2410   -7.5050 C.3     1  UNL1        0.1340
     30  N         16.3990  -23.6210   -6.2120 N.pl3   1  UNL1       -0.2780
     31  C         15.4680  -24.0350   -5.1360 C.3     1  UNL1        0.1010
     32  C         16.1810  -23.8150   -3.7920 C.3     1  UNL1        0.0550
     33  C         17.1250  -22.7270   -4.1770 C.2     1  UNL1       -0.0360
     34  C         17.8680  -21.9040   -3.3450 C.2     1  UNL1        0.0090
     35  C         17.2170  -22.6620   -5.5730 C.2     1  UNL1        0.0170
     36  C         18.7220  -20.9730   -3.9380 C.2     1  UNL1        0.0010
     37  C         18.8310  -20.8990   -5.3350 C.2     1  UNL1        0.0020
     38  C         18.0840  -21.7500   -6.1590 C.2     1  UNL1        0.0240
@<TRIPOS>BOND
     1    21    22    1
     2    21    19    2
     3    22    16    2
     4    20    19    1
     5    19    18    1
     6    15    14    1
     7    16    14    1
     8    16    17    1
     9    14    11    1
    10    18    17    2
    11    13    11    2
    12    11    12    2
    13    11     8    1
    14     9     8    2
    15     9    10    1
    16     8     7    1
    17    10     5    2
    18     1     2    2
    19     7     6    2
    20     5     6    1
    21     5     3    1
    22     2     3   am
    23     2    23    1
    24     3     4    1
    25    28    23    2
    26    28    27    1
    27    23    24    1
    28    27    26    2
    29    24    25    2
    30    26    25    1
    31    26    29    1
    32    29    30    1
    33    30    35    1
    34    30    31    1
    35    38    35    1
    36    38    37    2
    37    35    33    2
    38    37    36    1
    39    31    32    1
    40    33    32    1
    41    33    34    1
    42    36    34    2
