@<TRIPOS>MOLECULE
71071_out_ligand_01.pdbqt
 34 36 0 0 0
SMALL
GASTEIGER

@<TRIPOS>ATOM
      1  C         19.0320  -22.3390  -10.2970 C.2     1  UNL1        0.0860
      2  C         20.3990  -22.6660  -10.2850 C.2     1  UNL1        0.0420
      3  C         21.2770  -22.0630  -11.1860 C.2     1  UNL1        0.0330
      4  C         20.7980  -21.1330  -12.1100 C.2     1  UNL1        0.0170
      5  C         19.4370  -20.8160  -12.1310 C.2     1  UNL1        0.0090
      6  C         18.5310  -21.4130  -11.2340 C.2     1  UNL1       -0.0390
      7  C         17.0870  -21.0080  -11.3240 C.3     1  UNL1        0.0500
      8  C         22.7140  -22.4060  -11.0990 C.2     1  UNL1        0.2520
      9  O         23.0760  -23.3220  -10.3680 O.2     1  UNL1       -0.2680
     10  N         23.5550  -21.6740  -11.9060 N.am    1  UNL1       -0.3490
     11  H         23.1670  -21.0460  -12.5980 H       1  UNL1        0.1630
     12  C         24.9790  -21.9590  -11.9860 C.3     1  UNL1        0.1140
     13  C         25.7520  -21.0710  -11.0060 C.3     1  UNL1        0.0370
     14  C         25.4230  -21.8410  -13.4410 C.2     1  UNL1       -0.0300
     15  C         25.7050  -20.5830  -14.0050 C.2     1  UNL1        0.0100
     16  C         26.0670  -20.4510  -15.3470 C.2     1  UNL1        0.0070
     17  C         26.1350  -21.5720  -16.1710 C.2     1  UNL1       -0.0610
     18  C         26.5180  -21.4520  -17.6160 C.3     1  UNL1        0.0480
     19  C         25.8420  -22.8270  -15.6310 C.2     1  UNL1        0.0140
     20  C         25.4810  -22.9760  -14.2790 C.2     1  UNL1       -0.0530
     21  C         25.1580  -24.3560  -13.7740 C.3     1  UNL1        0.0490
     22  S         18.0290  -23.1730   -9.0720 S.O2    1  UNL1        0.2630
     23  O         18.9110  -24.0720   -8.3590 O.2     1  UNL1       -0.2000
     24  O         16.8110  -23.6640   -9.6730 O.2     1  UNL1       -0.2000
     25  N         17.6410  -21.9320   -7.9930 N.pl3   1  UNL1       -0.2810
     26  H         17.1040  -21.1910   -8.4420 H       1  UNL1        0.1790
     27  C         17.3030  -22.2710   -6.6530 C.2     1  UNL1        0.0430
     28  C         16.1650  -23.0270   -6.3730 C.2     1  UNL1        0.0370
     29  C         15.8080  -23.3060   -5.0490 C.2     1  UNL1       -0.0590
     30  C         16.6090  -22.8140   -4.0090 C.2     1  UNL1        0.0130
     31  C         14.5750  -24.0990   -4.7330 C.3     1  UNL1        0.0480
     32  C         17.7640  -22.0670   -4.2800 C.2     1  UNL1       -0.0590
     33  C         18.5900  -21.5180   -3.1540 C.3     1  UNL1        0.0480
     34  C         18.0990  -21.7900   -5.6110 C.2     1  UNL1        0.0370
@<TRIPOS>BOND
     1    18    17    1
     2    17    19    2
     3    17    16    1
     4    19    20    1
     5    16    15    2
     6    20    21    1
     7    20    14    2
     8    15    14    1
     9    14    12    1
    10    11    10    1
    11     5     4    2
    12     5     6    1
    13     4     3    1
    14    12    10    1
    15    12    13    1
    16    10     8   am
    17     7     6    1
    18     6     1    2
    19     3     8    1
    20     3     2    2
    21     8     9    2
    22     1     2    1
    23     1    22    1
    24    24    22    2
    25    22    23    2
    26    22    25    1
    27    26    25    1
    28    25    27    1
    29    27    28    2
    30    27    34    1
    31    28    29    1
    32    34    32    2
    33    29    31    1
    34    29    30    2
    35    32    30    1
    36    32    33    1
