@<TRIPOS>MOLECULE
71088_out_ligand_01.pdbqt
 34 36 0 0 0
SMALL
GASTEIGER

@<TRIPOS>ATOM
      1  C         21.2410  -22.1520  -11.1380 C.2     1  UNL1        0.0330
      2  C         20.6600  -21.2620  -12.0430 C.2     1  UNL1        0.0170
      3  C         19.2950  -20.9700  -11.9550 C.2     1  UNL1        0.0090
      4  C         18.4880  -21.5440  -10.9540 C.2     1  UNL1       -0.0390
      5  C         17.0230  -21.2050  -10.9550 C.3     1  UNL1        0.0500
      6  C         19.0870  -22.4420  -10.0500 C.2     1  UNL1        0.0860
      7  C         20.4510  -22.7570  -10.1590 C.2     1  UNL1        0.0420
      8  C         22.6840  -22.4980  -11.1930 C.2     1  UNL1        0.2520
      9  N         23.2750  -22.4200  -12.4330 N.am    1  UNL1       -0.3490
     10  H         22.7700  -22.0100  -13.2060 H       1  UNL1        0.1630
     11  O         23.2840  -22.7920  -10.1670 O.2     1  UNL1       -0.2680
     12  C         24.7010  -22.6500  -12.6120 C.3     1  UNL1        0.1140
     13  C         24.9410  -23.9410  -13.4030 C.3     1  UNL1        0.0370
     14  C         25.3320  -21.4010  -13.2250 C.2     1  UNL1       -0.0300
     15  C         25.1700  -21.1110  -14.5920 C.2     1  UNL1        0.0100
     16  C         25.7300  -19.9640  -15.1640 C.2     1  UNL1        0.0070
     17  C         26.4610  -19.0710  -14.3830 C.2     1  UNL1       -0.0610
     18  C         27.0650  -17.8340  -14.9790 C.3     1  UNL1        0.0480
     19  C         26.6040  -19.3290  -13.0160 C.2     1  UNL1        0.0140
     20  C         26.0400  -20.4750  -12.4230 C.2     1  UNL1       -0.0530
     21  C         26.2250  -20.6800  -10.9430 C.3     1  UNL1        0.0490
     22  S         18.1790  -23.2270   -8.7220 S.O2    1  UNL1        0.2630
     23  O         19.0520  -24.1820   -8.0750 O.2     1  UNL1       -0.2000
     24  O         16.8910  -23.6440   -9.2350 O.2     1  UNL1       -0.2000
     25  N         17.8800  -21.9500   -7.6570 N.pl3   1  UNL1       -0.2800
     26  H         18.4190  -21.1200   -7.8880 H       1  UNL1        0.1790
     27  C         17.5470  -22.1980   -6.2880 C.2     1  UNL1        0.0490
     28  C         16.4200  -22.9620   -5.9600 C.2     1  UNL1        0.0370
     29  C         16.1100  -23.2590   -4.6270 C.2     1  UNL1       -0.0600
     30  C         14.8940  -24.0730   -4.2960 C.3     1  UNL1        0.0480
     31  C         16.9150  -22.7370   -3.6130 C.2     1  UNL1        0.0070
     32  C         18.0190  -21.9440   -3.9290 C.2     1  UNL1        0.0090
     33  C         18.3440  -21.6590   -5.2640 C.2     1  UNL1       -0.0350
     34  C         19.5470  -20.8030   -5.5460 C.3     1  UNL1        0.0500
@<TRIPOS>BOND
     1    16    15    1
     2    16    17    2
     3    18    17    1
     4    15    14    2
     5    17    19    1
     6    13    12    1
     7    14    12    1
     8    14    20    1
     9    10     9    1
    10    19    20    2
    11    12     9    1
    12     9     8   am
    13    20    21    1
    14     2     3    1
    15     2     1    2
    16     3     4    2
    17     8     1    1
    18     8    11    2
    19     1     7    1
    20     5     4    1
    21     4     6    1
    22     7     6    2
    23     6    22    1
    24    24    22    2
    25    22    23    2
    26    22    25    1
    27    26    25    1
    28    25    27    1
    29    27    28    2
    30    27    33    1
    31    28    29    1
    32    34    33    1
    33    33    32    2
    34    29    30    1
    35    29    31    2
    36    32    31    1
