@<TRIPOS>MOLECULE
71095_out_ligand_01.pdbqt
 37 40 0 0 0
SMALL
GASTEIGER

@<TRIPOS>ATOM
      1  C         21.0240  -22.5760  -10.8380 C.2     1  UNL1        0.0340
      2  C         20.7960  -23.5490   -9.8580 C.2     1  UNL1        0.0310
      3  C         19.5310  -23.6950   -9.2800 C.2     1  UNL1        0.0270
      4  C         18.4850  -22.8730   -9.7010 C.2     1  UNL1        0.0800
      5  C         18.6830  -21.9510  -10.7250 C.2     1  UNL1        0.0270
      6  C         19.9570  -21.7920  -11.2780 C.2     1  UNL1        0.0310
      7  N         22.3410  -22.4370  -11.3110 N.am    1  UNL1       -0.3250
      8  C         23.3910  -21.7580  -10.7080 C.2     1  UNL1        0.2510
      9  O         23.3320  -21.1130   -9.6680 O.2     1  UNL1       -0.2700
     10  H         22.6040  -23.0070  -12.1080 H       1  UNL1        0.1690
     11  C         24.7170  -21.8830  -11.4880 C.3     1  UNL1        0.2200
     12  C         25.8380  -21.1300  -10.7600 C.3     1  UNL1        0.0380
     13  C         26.3910  -19.9220  -11.5010 C.3     1  UNL1        0.0080
     14  O         24.6130  -21.3810  -12.8320 O.2     1  UNL1       -0.3360
     15  C         24.8850  -22.3420  -13.7710 C.2     1  UNL1        0.0810
     16  C         25.0390  -23.6530  -13.3020 C.2     1  UNL1        0.0380
     17  C         25.3250  -24.6880  -14.1950 C.2     1  UNL1        0.0040
     18  C         25.4330  -24.4160  -15.5580 C.2     1  UNL1        0.0120
     19  C         25.2340  -23.1140  -16.0520 C.2     1  UNL1       -0.0230
     20  C         25.3240  -22.8600  -17.4290 C.2     1  UNL1        0.0120
     21  C         24.9400  -22.0540  -15.1540 C.2     1  UNL1        0.0070
     22  C         25.1280  -21.5750  -17.9330 C.2     1  UNL1        0.0010
     23  C         24.8250  -20.5350  -17.0660 C.2     1  UNL1        0.0010
     24  C         24.7230  -20.7730  -15.6950 C.2     1  UNL1        0.0150
     25  S         16.8920  -22.9710   -8.9150 S.O2    1  UNL1        0.2630
     26  O         16.5360  -21.6380   -8.4860 O.2     1  UNL1       -0.2000
     27  O         16.0140  -23.7380   -9.7680 O.2     1  UNL1       -0.2000
     28  N         17.2050  -23.8490   -7.5040 N.pl3   1  UNL1       -0.2800
     29  H         17.1410  -24.8500   -7.6650 H       1  UNL1        0.1790
     30  C         16.8240  -23.3280   -6.2320 C.2     1  UNL1        0.0500
     31  C         15.5690  -23.6590   -5.7120 C.2     1  UNL1        0.0310
     32  C         15.1990  -23.2480   -4.4340 C.2     1  UNL1        0.0040
     33  C         16.0850  -22.4940   -3.6680 C.2     1  UNL1        0.0240
     34  C         17.3280  -22.1280   -4.1940 C.2     1  UNL1        0.0420
     35 CL         18.3540  -21.1930   -3.1530 Cl      1  UNL1       -0.0840
     36  C         17.7130  -22.5120   -5.4960 C.2     1  UNL1       -0.0130
     37  C         19.0340  -22.0970   -6.0890 C.3     1  UNL1        0.0520
@<TRIPOS>BOND
     1    22    20    2
     2    22    23    1
     3    20    19    1
     4    23    24    2
     5    19    18    2
     6    19    21    1
     7    24    21    1
     8    18    17    1
     9    21    15    2
    10    17    16    2
    11    15    16    1
    12    15    14    1
    13    14    11    1
    14    10     7    1
    15    13    12    1
    16    11    12    1
    17    11     8    1
    18     7     1    1
    19     7     8   am
    20     6     1    2
    21     6     5    1
    22     1     2    1
    23     5     4    2
    24     8     9    2
    25     2     3    2
    26    27    25    2
    27     4     3    1
    28     4    25    1
    29    25    26    2
    30    25    28    1
    31    29    28    1
    32    28    30    1
    33    30    31    2
    34    30    36    1
    35    37    36    1
    36    31    32    1
    37    36    34    2
    38    32    33    2
    39    34    33    1
    40    34    35    1
