@<TRIPOS>MOLECULE
71094_out_ligand_01.pdbqt
 38 41 0 0 0
SMALL
GASTEIGER

@<TRIPOS>ATOM
      1  C         20.7950  -23.3820   -8.7400 C.2     1  UNL1        0.2560
      2  O         21.0720  -24.5010   -9.1530 O.2     1  UNL1       -0.2670
      3  N         21.2860  -22.1750   -9.2030 N.am    1  UNL1       -0.3230
      4  H         20.8650  -21.3340   -8.8270 H       1  UNL1        0.1690
      5  C         19.8020  -23.2690   -7.6340 C.2     1  UNL1        0.0320
      6  C         19.0780  -24.4110   -7.2670 C.2     1  UNL1        0.0190
      7  C         18.1360  -24.3450   -6.2380 C.2     1  UNL1        0.0250
      8  C         17.9230  -23.1390   -5.5660 C.2     1  UNL1        0.0250
      9  C         18.6590  -22.0040   -5.9140 C.2     1  UNL1        0.0250
     10  C         19.6010  -22.0670   -6.9450 C.2     1  UNL1        0.0190
     11  N         16.9670  -23.0150   -4.4980 N.pl3   1  UNL1       -0.1760
     12  C         17.2970  -23.8030   -3.2860 C.3     1  UNL1        0.1360
     13  S         15.3390  -23.1620   -5.0370 S.O2    1  UNL1        0.2470
     14  O         14.6540  -21.9200   -4.7350 O.2     1  UNL1       -0.2050
     15  O         14.8070  -24.4370   -4.5990 O.2     1  UNL1       -0.2050
     16  C         15.5340  -23.2660   -6.8020 C.2     1  UNL1        0.0750
     17  C         15.8250  -22.1210   -7.5480 C.2     1  UNL1        0.0250
     18  C         15.9670  -22.2250   -8.9310 C.2     1  UNL1        0.0020
     19  C         15.8130  -23.4630   -9.5600 C.2     1  UNL1        0.0000
     20  C         15.5120  -24.6010   -8.8100 C.2     1  UNL1        0.0020
     21  C         15.3690  -24.5070   -7.4260 C.2     1  UNL1        0.0250
     22  C         22.2540  -21.9720  -10.2070 C.2     1  UNL1        0.0350
     23  C         21.9760  -21.9980  -11.5770 C.2     1  UNL1        0.0310
     24  C         22.9940  -21.7900  -12.5140 C.2     1  UNL1        0.0270
     25  C         24.3020  -21.5660  -12.0780 C.2     1  UNL1        0.0800
     26  C         24.5950  -21.5290  -10.7150 C.2     1  UNL1        0.0270
     27  C         23.5710  -21.7350   -9.7860 C.2     1  UNL1        0.0310
     28  S         25.5780  -21.2670  -13.2720 S.O2    1  UNL1        0.2640
     29  O         26.3170  -22.4890  -13.5130 O.2     1  UNL1       -0.2000
     30  O         26.2780  -20.0720  -12.8400 O.2     1  UNL1       -0.2000
     31  N         24.7600  -20.8210  -14.6580 N.pl3   1  UNL1       -0.2640
     32  H         24.6380  -19.8170  -14.7370 H       1  UNL1        0.1800
     33  C         24.8790  -21.6020  -15.8190 C.2     1  UNL1        0.1360
     34  C         25.7990  -21.2390  -16.7910 C.2     1  UNL1        0.0510
     35  C         25.8350  -21.9710  -17.9750 C.2     1  UNL1        0.0050
     36  C         24.9390  -23.0180  -18.1530 C.2     1  UNL1        0.0190
     37  C         24.0380  -23.2820  -17.1360 C.2     1  UNL1        0.1190
     38  N         23.9800  -22.5850  -15.9820 N.2     1  UNL1       -0.2430
@<TRIPOS>BOND
     1    36    35    2
     2    36    37    1
     3    35    34    1
     4    37    38    2
     5    34    33    2
     6    38    33    1
     7    33    31    1
     8    32    31    1
     9    31    28    1
    10    29    28    2
    11    28    30    2
    12    28    25    1
    13    24    25    2
    14    24    23    1
    15    25    26    1
    16    23    22    2
    17    26    27    2
    18    22    27    1
    19    22     3    1
    20    19    18    2
    21    19    20    1
    22     3     4    1
    23     3     1   am
    24     2     1    2
    25    18    17    1
    26    20    21    2
    27     1     5    1
    28     5     6    2
    29     5    10    1
    30    17    16    2
    31    21    16    1
    32     6     7    1
    33    10     9    2
    34    16    13    1
    35     7     8    2
    36     9     8    1
    37     8    11    1
    38    13    14    2
    39    13    15    2
    40    13    11    1
    41    11    12    1
