@<TRIPOS>MOLECULE
71102_out_ligand_01.pdbqt
 37 40 0 0 0
SMALL
GASTEIGER

@<TRIPOS>ATOM
      1  C         21.0320  -22.6140  -10.5010 C.2     1  UNL1        0.0340
      2  C         20.7290  -23.6200   -9.5790 C.2     1  UNL1        0.0310
      3  C         19.4200  -23.7910   -9.1150 C.2     1  UNL1        0.0270
      4  C         18.4100  -22.9400   -9.5680 C.2     1  UNL1        0.0800
      5  C         18.6910  -21.9480  -10.5090 C.2     1  UNL1        0.0270
      6  C         20.0020  -21.7810  -10.9630 C.2     1  UNL1        0.0310
      7  N         22.3240  -22.3710  -11.0040 N.am    1  UNL1       -0.3270
      8  C         23.3380  -21.6280  -10.4250 C.2     1  UNL1        0.2310
      9  O         23.2740  -21.0210   -9.3580 O.2     1  UNL1       -0.2720
     10  H         22.5780  -22.8700  -11.8520 H       1  UNL1        0.1690
     11  C         24.5980  -21.5490  -11.2760 C.3     1  UNL1        0.1820
     12  S         25.2970  -23.1930  -11.6740 S.3     1  UNL1       -0.1210
     13  C         25.1160  -23.2630  -13.4520 C.2     1  UNL1        0.0030
     14  C         25.2690  -24.5060  -14.0750 C.2     1  UNL1        0.0210
     15  C         25.1460  -24.6360  -15.4650 C.2     1  UNL1        0.0410
     16  C         24.8700  -23.5190  -16.2550 C.2     1  UNL1        0.1010
     17  C         24.7240  -22.2730  -15.6280 C.2     1  UNL1        0.1020
     18  C         24.8140  -22.1490  -14.2370 C.2     1  UNL1        0.0580
     19  O         24.7400  -23.5310  -17.6180 O.2     1  UNL1       -0.3530
     20  C         23.4370  -23.7210  -18.1520 C.3     1  UNL1        0.2100
     21  O         24.4230  -21.1750  -16.3970 O.2     1  UNL1       -0.3530
     22  C         25.4350  -20.1740  -16.2890 C.3     1  UNL1        0.2100
     23  S         16.7470  -23.1480   -8.9730 S.O2    1  UNL1        0.2630
     24  O         16.0250  -23.9270   -9.9570 O.2     1  UNL1       -0.2000
     25  O         16.2630  -21.8530   -8.5430 O.2     1  UNL1       -0.2000
     26  N         16.9340  -24.1560   -7.6310 N.pl3   1  UNL1       -0.2800
     27  H         17.7400  -24.7690   -7.7140 H       1  UNL1        0.1790
     28  C         16.5860  -23.6630   -6.3350 C.2     1  UNL1        0.0530
     29  C         15.3930  -24.1160   -5.7620 C.2     1  UNL1        0.0310
     30  C         14.9810  -23.6330   -4.5250 C.2     1  UNL1        0.0030
     31  C         15.7570  -22.6890   -3.8580 C.2     1  UNL1        0.0120
     32  C         16.9570  -22.2160   -4.4120 C.2     1  UNL1       -0.0240
     33  C         17.7220  -21.2600   -3.7240 C.2     1  UNL1        0.0120
     34  C         17.3950  -22.7010   -5.6710 C.2     1  UNL1        0.0010
     35  C         18.9120  -20.7710   -4.2620 C.2     1  UNL1        0.0010
     36  C         19.3540  -21.2310   -5.4950 C.2     1  UNL1        0.0010
     37  C         18.6070  -22.1850   -6.1910 C.2     1  UNL1        0.0140
@<TRIPOS>BOND
     1    20    19    1
     2    19    16    1
     3    21    22    1
     4    21    17    1
     5    16    17    2
     6    16    15    1
     7    17    18    1
     8    15    14    2
     9    18    13    2
    10    14    13    1
    11    13    12    1
    12    10     7    1
    13    12    11    1
    14    11     8    1
    15     7     1    1
    16     7     8   am
    17     6     5    1
    18     6     1    2
    19     5     4    2
    20     1     2    1
    21     8     9    2
    22    24    23    2
    23     2     3    2
    24     4     3    1
    25     4    23    1
    26    23    25    2
    27    23    26    1
    28    27    26    1
    29    26    28    1
    30    28    29    2
    31    28    34    1
    32    37    34    1
    33    37    36    2
    34    29    30    1
    35    34    32    2
    36    36    35    1
    37    30    31    2
    38    32    31    1
    39    32    33    1
    40    35    33    2
