@<TRIPOS>MOLECULE
71103_out_ligand_01.pdbqt
 42 46 0 0 0
SMALL
GASTEIGER

@<TRIPOS>ATOM
      1  C         20.9420  -22.7500   -8.5990 C.2     1  UNL1        0.0350
      2  C         20.1670  -23.9200   -8.6180 C.2     1  UNL1        0.0310
      3  C         19.1520  -24.1240   -7.6780 C.2     1  UNL1        0.0270
      4  C         18.9220  -23.1580   -6.6970 C.2     1  UNL1        0.0750
      5  C         19.6760  -21.9830   -6.6740 C.2     1  UNL1        0.0270
      6  C         20.6820  -21.7820   -7.6240 C.2     1  UNL1        0.0310
      7  N         21.9240  -22.6150   -9.6020 N.am    1  UNL1       -0.3230
      8  C         21.7200  -22.4000  -10.9550 C.2     1  UNL1        0.2560
      9  O         20.6500  -22.1870  -11.5090 O.2     1  UNL1       -0.2670
     10  H         22.8840  -22.6380   -9.2830 H       1  UNL1        0.1690
     11  C         22.9560  -22.4140  -11.7900 C.2     1  UNL1        0.0320
     12  C         23.0150  -21.5770  -12.9130 C.2     1  UNL1        0.0170
     13  C         24.1410  -21.5830  -13.7400 C.2     1  UNL1        0.0100
     14  C         25.2180  -22.4360  -13.4630 C.2     1  UNL1       -0.0400
     15  C         25.1520  -23.2720  -12.3360 C.2     1  UNL1        0.0100
     16  C         24.0270  -23.2710  -11.5100 C.2     1  UNL1        0.0170
     17  C         26.4410  -22.4650  -14.3650 C.3     1  UNL1        0.1610
     18  N         26.0600  -22.3430  -15.7860 N.pl3   1  UNL1       -0.3760
     19  C         24.9470  -23.2230  -16.1880 C.3     1  UNL1        0.1230
     20  C         24.7730  -23.2240  -17.6950 C.3     1  UNL1        0.0240
     21  C         24.3770  -21.8290  -18.1320 C.3     1  UNL1        0.0420
     22  C         25.3010  -20.7950  -17.5410 C.2     1  UNL1       -0.0320
     23  C         25.3270  -19.5260  -18.1530 C.2     1  UNL1        0.0090
     24  C         26.0880  -21.0740  -16.3970 C.2     1  UNL1        0.0360
     25  C         26.1640  -18.5260  -17.6760 C.2     1  UNL1        0.0010
     26  C         26.9840  -18.7900  -16.5900 C.2     1  UNL1        0.0020
     27  C         26.9500  -20.0470  -15.9690 C.2     1  UNL1        0.0300
     28  S         17.6090  -23.3790   -5.5220 S.O2    1  UNL1        0.2450
     29  O         17.9360  -22.6490   -4.3170 O.2     1  UNL1       -0.2060
     30  O         17.3030  -24.7950   -5.4800 O.2     1  UNL1       -0.2060
     31  N         16.2980  -22.6470   -6.3070 N.pl3   1  UNL1       -0.1810
     32  H         16.2020  -21.6890   -5.9730 H       1  UNL1        0.1460
     33  C         16.1730  -22.8460   -7.7100 C.2     1  UNL1        0.0230
     34  C         15.5250  -23.9710   -8.2170 C.2     1  UNL1        0.0240
     35  C         15.4610  -24.1730   -9.5960 C.2     1  UNL1        0.0030
     36  C         16.0470  -23.2510  -10.4680 C.2     1  UNL1        0.0160
     37  C         16.7090  -22.1190   -9.9680 C.2     1  UNL1        0.0490
     38  C         16.7660  -21.9240   -8.5780 C.2     1  UNL1        0.0400
     39  C         17.3260  -21.1030  -10.8960 C.3     1  UNL1        0.4170
     40  F         17.4700  -21.5660  -12.1670 F       1  UNL1       -0.1660
     41  F         18.5720  -20.7290  -10.4910 F       1  UNL1       -0.1660
     42  F         16.6070  -19.9500  -10.9970 F       1  UNL1       -0.1660
@<TRIPOS>BOND
     1    23    25    1
     2    23    22    2
     3    21    20    1
     4    21    22    1
     5    20    19    1
     6    25    26    2
     7    22    24    1
     8    26    27    1
     9    24    27    2
    10    24    18    1
    11    19    18    1
    12    18    17    1
    13    17    14    1
    14    13    14    2
    15    13    12    1
    16    14    15    1
    17    12    11    2
    18    15    16    2
    19    40    39    1
    20    11    16    1
    21    11     8    1
    22     9     8    2
    23    42    39    1
    24     8     7   am
    25    39    41    1
    26    39    37    1
    27    36    37    2
    28    36    35    1
    29    37    38    1
    30     7    10    1
    31     7     1    1
    32    35    34    2
    33     2     1    2
    34     2     3    1
    35     1     6    1
    36    38    33    2
    37    34    33    1
    38    33    31    1
    39     3     4    2
    40     6     5    2
    41     4     5    1
    42     4    28    1
    43    31    32    1
    44    31    28    1
    45    28    30    2
    46    28    29    2
