@<TRIPOS>MOLECULE
71110_out_ligand_01.pdbqt
 37 40 0 0 0
SMALL
GASTEIGER

@<TRIPOS>ATOM
      1  C         21.2370  -22.7490  -10.5950 C.2     1  UNL1        0.0340
      2  C         20.3290  -21.8670  -11.2010 C.2     1  UNL1        0.0310
      3  C         18.9910  -21.8360  -10.8020 C.2     1  UNL1        0.0270
      4  C         18.5460  -22.7200   -9.8180 C.2     1  UNL1        0.0800
      5  C         19.4390  -23.6040   -9.2090 C.2     1  UNL1        0.0270
      6  C         20.7820  -23.6160   -9.5990 C.2     1  UNL1        0.0310
      7  N         22.5750  -22.6800  -11.0290 N.am    1  UNL1       -0.3250
      8  C         23.5820  -21.8480  -10.5550 C.2     1  UNL1        0.2510
      9  O         23.4810  -21.0930   -9.5930 O.2     1  UNL1       -0.2700
     10  H         22.7990  -23.2220  -11.8550 H       1  UNL1        0.1690
     11  C         24.8910  -21.9760  -11.3770 C.3     1  UNL1        0.2200
     12  C         26.0070  -21.0870  -10.7980 C.3     1  UNL1        0.0380
     13  C         26.3670  -19.9180  -11.7020 C.3     1  UNL1        0.0080
     14  O         24.6600  -21.4940  -12.7180 O.2     1  UNL1       -0.3360
     15  C         24.9000  -22.4080  -13.7170 C.2     1  UNL1        0.0810
     16  C         25.0250  -23.7340  -13.2790 C.2     1  UNL1        0.0380
     17  C         25.3180  -24.7480  -14.1830 C.2     1  UNL1        0.0040
     18  C         25.4680  -24.4430  -15.5350 C.2     1  UNL1        0.0120
     19  C         25.2920  -23.1290  -16.0040 C.2     1  UNL1       -0.0230
     20  C         25.4110  -22.8470  -17.3760 C.2     1  UNL1        0.0120
     21  C         24.9750  -22.0880  -15.0940 C.2     1  UNL1        0.0070
     22  C         25.2000  -21.5570  -17.8650 C.2     1  UNL1        0.0010
     23  C         24.8490  -20.5350  -16.9910 C.2     1  UNL1        0.0010
     24  C         24.7300  -20.8000  -15.6260 C.2     1  UNL1        0.0150
     25  S         16.8490  -22.6680   -9.2840 S.O2    1  UNL1        0.2630
     26  O         16.1100  -21.8950  -10.2610 O.2     1  UNL1       -0.2000
     27  O         16.4480  -24.0180   -8.9480 O.2     1  UNL1       -0.2000
     28  N         16.8980  -21.7110   -7.8950 N.pl3   1  UNL1       -0.2800
     29  H         17.4190  -20.8480   -8.0360 H       1  UNL1        0.1790
     30  C         16.9090  -22.3130   -6.6030 C.2     1  UNL1        0.0490
     31  C         15.7660  -22.9800   -6.1480 C.2     1  UNL1        0.0370
     32  C         15.7490  -23.6100   -4.8980 C.2     1  UNL1       -0.0600
     33  C         14.5080  -24.3040   -4.4220 C.3     1  UNL1        0.0480
     34  C         16.8840  -23.5340   -4.0890 C.2     1  UNL1        0.0070
     35  C         18.0240  -22.8590   -4.5330 C.2     1  UNL1        0.0090
     36  C         18.0560  -22.2460   -5.7940 C.2     1  UNL1       -0.0350
     37  C         19.3050  -21.5350   -6.2320 C.3     1  UNL1        0.0500
@<TRIPOS>BOND
     1    22    20    2
     2    22    23    1
     3    20    19    1
     4    23    24    2
     5    19    18    2
     6    19    21    1
     7    24    21    1
     8    18    17    1
     9    21    15    2
    10    17    16    2
    11    15    16    1
    12    15    14    1
    13    14    11    1
    14    10     7    1
    15    13    12    1
    16    11    12    1
    17    11     8    1
    18     2     3    1
    19     2     1    2
    20     7     1    1
    21     7     8   am
    22     3     4    2
    23     1     6    1
    24     8     9    2
    25    26    25    2
    26     4    25    1
    27     4     5    1
    28     6     5    2
    29    25    27    2
    30    25    28    1
    31    29    28    1
    32    28    30    1
    33    30    31    2
    34    30    36    1
    35    37    36    1
    36    31    32    1
    37    36    35    2
    38    32    33    1
    39    32    34    2
    40    35    34    1
