@<TRIPOS>MOLECULE
71116_out_ligand_01.pdbqt
 36 39 0 0 0
SMALL
GASTEIGER

@<TRIPOS>ATOM
      1  C         22.3360  -22.5230  -10.9740 C.2     1  UNL1        0.0800
      2  C         21.1240  -21.9290  -11.3220 C.2     1  UNL1        0.0270
      3  C         19.9630  -22.2770  -10.6260 C.2     1  UNL1        0.0310
      4  C         20.0060  -23.2130   -9.5830 C.2     1  UNL1        0.0340
      5  C         21.2300  -23.7950   -9.2410 C.2     1  UNL1        0.0310
      6  C         22.3970  -23.4490   -9.9300 C.2     1  UNL1        0.0270
      7  N         18.7920  -23.4970   -8.9320 N.am    1  UNL1       -0.3250
      8  C         17.5000  -23.2550   -9.3770 C.2     1  UNL1        0.2510
      9  O         17.1920  -22.7400  -10.4470 O.2     1  UNL1       -0.2700
     10  H         18.8670  -23.8720   -7.9920 H       1  UNL1        0.1690
     11  C         16.4420  -23.7850   -8.3850 C.3     1  UNL1        0.2170
     12  C         15.2390  -24.3640   -9.1180 C.3     1  UNL1        0.0500
     13  O         15.9890  -22.7000   -7.5640 O.2     1  UNL1       -0.3360
     14  C         15.9110  -22.9550   -6.2160 C.2     1  UNL1        0.0810
     15  C         14.8820  -23.7280   -5.6690 C.2     1  UNL1        0.0380
     16  C         14.8470  -23.9710   -4.2990 C.2     1  UNL1        0.0040
     17  C         15.8310  -23.4320   -3.4700 C.2     1  UNL1        0.0120
     18  C         16.8520  -22.6230   -3.9940 C.2     1  UNL1       -0.0230
     19  C         17.8320  -22.0680   -3.1530 C.2     1  UNL1        0.0120
     20  C         16.8910  -22.3610   -5.3840 C.2     1  UNL1        0.0070
     21  C         18.8410  -21.2560   -3.6690 C.2     1  UNL1        0.0010
     22  C         18.8820  -20.9810   -5.0300 C.2     1  UNL1        0.0010
     23  C         17.9160  -21.5250   -5.8770 C.2     1  UNL1        0.0150
     24  S         23.8290  -22.0690  -11.8210 S.O2    1  UNL1        0.2760
     25  O         24.5940  -21.1630  -10.9910 O.2     1  UNL1       -0.2000
     26  O         24.4270  -23.3060  -12.2830 O.2     1  UNL1       -0.2000
     27  N         23.2950  -21.2840  -13.1810 N.pl3   1  UNL1       -0.1090
     28  H         22.4340  -21.6570  -13.5620 H       1  UNL1        0.1980
     29  C         24.2370  -20.9710  -14.1520 C.cat   1  UNL1        0.7360
     30  N         24.1160  -21.7090  -15.2590 N.2     1  UNL1       -0.0670
     31  C         24.9100  -21.3590  -16.2890 C.2     1  UNL1        0.0510
     32  C         25.7650  -20.2740  -16.2280 C.2     1  UNL1        0.0540
     33  C         24.8350  -22.1920  -17.5340 C.3     1  UNL1        0.0710
     34  C         25.7650  -19.5490  -15.0510 C.2     1  UNL1        0.0510
     35  C         26.6510  -18.3500  -14.8970 C.3     1  UNL1        0.0710
     36  N         24.9850  -19.8790  -14.0030 N.2     1  UNL1       -0.0670
@<TRIPOS>BOND
     1    33    31    1
     2    31    32    2
     3    31    30    1
     4    32    34    1
     5    30    29    2
     6    34    35    1
     7    34    36    2
     8    29    36    1
     9    29    27    1
    10    28    27    1
    11    27    24    1
    12    26    24    2
    13    24    25    2
    14    24     1    1
    15     2     1    2
    16     2     3    1
    17     1     6    1
    18     3     4    2
    19     9     8    2
    20     6     5    2
    21     4     5    1
    22     4     7    1
    23     8     7   am
    24     8    11    1
    25    12    11    1
    26     7    10    1
    27    11    13    1
    28    13    14    1
    29    14    15    2
    30    14    20    1
    31    23    20    1
    32    23    22    2
    33    15    16    1
    34    20    18    2
    35    22    21    1
    36    16    17    2
    37    18    17    1
    38    18    19    1
    39    21    19    2
