@<TRIPOS>MOLECULE
71114_out_ligand_01.pdbqt
 39 43 0 0 0
SMALL
GASTEIGER

@<TRIPOS>ATOM
      1  N         21.3980  -22.6610  -10.6060 N.am    1  UNL1       -0.3230
      2  C         22.5460  -22.1750  -10.0070 C.2     1  UNL1        0.2560
      3  O         22.6620  -21.7850   -8.8520 O.2     1  UNL1       -0.2670
      4  H         21.4400  -22.8340  -11.6020 H       1  UNL1        0.1690
      5  C         20.1380  -22.8670  -10.0050 C.2     1  UNL1        0.0350
      6  C         19.9310  -23.6650   -8.8750 C.2     1  UNL1        0.0310
      7  C         18.6500  -23.8180   -8.3360 C.2     1  UNL1        0.0270
      8  C         17.5640  -23.1850   -8.9430 C.2     1  UNL1        0.0800
      9  C         17.7520  -22.3790  -10.0660 C.2     1  UNL1        0.0270
     10  C         19.0370  -22.2250  -10.5930 C.2     1  UNL1        0.0310
     11  S         15.9460  -23.3500   -8.2340 S.O2    1  UNL1        0.2630
     12  O         15.0030  -22.8280   -9.2020 O.2     1  UNL1       -0.2000
     13  O         15.8100  -24.6960   -7.7230 O.2     1  UNL1       -0.2000
     14  N         15.9640  -22.2360   -6.9650 N.pl3   1  UNL1       -0.2800
     15  H         15.1690  -21.6030   -7.0130 H       1  UNL1        0.1790
     16  C         16.3830  -22.6590   -5.6690 C.2     1  UNL1        0.0540
     17  C         17.6860  -22.3500   -5.2330 C.2     1  UNL1       -0.0340
     18  C         18.1130  -22.8120   -3.9770 C.2     1  UNL1        0.0090
     19  C         18.6590  -21.5500   -6.0540 C.3     1  UNL1        0.0500
     20  C         17.2520  -23.5340   -3.1550 C.2     1  UNL1        0.0010
     21  C         15.9500  -23.7920   -3.5700 C.2     1  UNL1        0.0090
     22  C         15.4910  -23.3440   -4.8190 C.2     1  UNL1       -0.0340
     23  C         14.0700  -23.6640   -5.2000 C.3     1  UNL1        0.0500
     24  C         23.7400  -22.1070  -10.8980 C.2     1  UNL1        0.0320
     25  C         24.9140  -21.4450  -10.5130 C.2     1  UNL1        0.0170
     26  C         26.0090  -21.3970  -11.3810 C.2     1  UNL1        0.0090
     27  C         25.9440  -22.0020  -12.6460 C.2     1  UNL1       -0.0450
     28  C         24.7580  -22.6460  -13.0300 C.2     1  UNL1        0.0090
     29  C         23.6620  -22.6950  -12.1650 C.2     1  UNL1        0.0170
     30  C         27.1210  -21.9360  -13.5980 C.3     1  UNL1        0.1340
     31  N         26.9410  -20.8800  -14.5930 N.pl3   1  UNL1       -0.2780
     32  C         26.2760  -19.6280  -14.1700 C.3     1  UNL1        0.1010
     33  C         25.6960  -18.9620  -15.4290 C.3     1  UNL1        0.0550
     34  C         25.5080  -20.1600  -16.2940 C.2     1  UNL1       -0.0360
     35  C         24.7710  -20.2700  -17.4600 C.2     1  UNL1        0.0090
     36  C         26.2470  -21.2300  -15.7730 C.2     1  UNL1        0.0170
     37  C         24.7710  -21.4950  -18.1250 C.2     1  UNL1        0.0010
     38  C         25.5140  -22.5740  -17.6230 C.2     1  UNL1        0.0020
     39  C         26.2620  -22.4390  -16.4470 C.2     1  UNL1        0.0240
@<TRIPOS>BOND
     1    37    38    2
     2    37    35    1
     3    38    39    1
     4    35    34    2
     5    39    36    2
     6    34    36    1
     7    34    33    1
     8    36    31    1
     9    33    32    1
    10    31    32    1
    11    31    30    1
    12    30    27    1
    13    28    27    2
    14    28    29    1
    15    27    26    1
    16    29    24    2
    17     4     1    1
    18    26    25    2
    19    24    25    1
    20    24     2    1
    21     1     2   am
    22     1     5    1
    23    10     9    1
    24    10     5    2
    25     9     8    2
    26     2     3    2
    27     5     6    1
    28    12    11    2
    29     8     7    1
    30     8    11    1
    31     6     7    2
    32    11    13    2
    33    11    14    1
    34    15    14    1
    35    14    16    1
    36    19    17    1
    37    16    17    2
    38    16    22    1
    39    17    18    1
    40    23    22    1
    41    22    21    2
    42    18    20    2
    43    21    20    1
