@<TRIPOS>MOLECULE
71112_out_ligand_01.pdbqt
 35 38 0 0 0
SMALL
GASTEIGER

@<TRIPOS>ATOM
      1  C         20.9650  -22.4500  -10.8530 C.2     1  UNL1        0.0340
      2  C         19.8860  -21.6710  -11.2970 C.2     1  UNL1        0.0310
      3  C         18.6070  -21.8510  -10.7630 C.2     1  UNL1        0.0270
      4  C         18.4070  -22.8140   -9.7740 C.2     1  UNL1        0.0800
      5  C         19.4670  -23.6100   -9.3340 C.2     1  UNL1        0.0270
      6  C         20.7450  -23.4210   -9.8720 C.2     1  UNL1        0.0310
      7  S         16.7900  -23.0580   -9.0870 S.O2    1  UNL1        0.2630
      8  O         16.2730  -21.7790   -8.6500 O.2     1  UNL1       -0.2000
      9  O         16.0460  -23.8800  -10.0190 O.2     1  UNL1       -0.2000
     10  N         17.1000  -24.0390   -7.7490 N.pl3   1  UNL1       -0.2800
     11  H         16.9120  -25.0190   -7.9510 H       1  UNL1        0.1790
     12  C         16.7380  -23.5530   -6.4550 C.2     1  UNL1        0.0530
     13  C         15.5760  -24.0730   -5.8770 C.2     1  UNL1        0.0310
     14  C         15.1730  -23.6480   -4.6160 C.2     1  UNL1        0.0030
     15  C         15.9310  -22.7020   -3.9290 C.2     1  UNL1        0.0120
     16  C         17.1050  -22.1700   -4.4880 C.2     1  UNL1       -0.0240
     17  C         17.8590  -21.2180   -3.7820 C.2     1  UNL1        0.0120
     18  C         17.5320  -22.5990   -5.7700 C.2     1  UNL1        0.0010
     19  C         19.0300  -20.6860   -4.3210 C.2     1  UNL1        0.0010
     20  C         19.4650  -21.1020   -5.5720 C.2     1  UNL1        0.0010
     21  C         18.7260  -22.0460   -6.2890 C.2     1  UNL1        0.0140
     22  N         22.2160  -22.2020  -11.4430 N.am    1  UNL1       -0.3250
     23  C         23.3430  -21.6510  -10.8550 C.2     1  UNL1        0.2510
     24  O         23.4490  -21.2620   -9.6950 O.2     1  UNL1       -0.2700
     25  H         22.2940  -22.3640  -12.4430 H       1  UNL1        0.1690
     26  C         24.5450  -21.5980  -11.8170 C.3     1  UNL1        0.2170
     27  C         25.8180  -21.8050  -11.0020 C.3     1  UNL1        0.0500
     28  O         24.5160  -22.6360  -12.7990 O.2     1  UNL1       -0.3360
     29  C         24.7150  -22.3080  -14.1140 C.2     1  UNL1        0.0750
     30  C         24.4910  -21.0460  -14.6730 C.2     1  UNL1        0.0370
     31  C         24.7120  -20.8260  -16.0350 C.2     1  UNL1        0.0030
     32  C         25.1570  -21.8640  -16.8490 C.2     1  UNL1        0.0010
     33  C         25.3810  -23.1260  -16.3030 C.2     1  UNL1        0.0090
     34  C         25.1600  -23.3600  -14.9360 C.2     1  UNL1       -0.0290
     35  C         25.4130  -24.7300  -14.3670 C.3     1  UNL1        0.0510
@<TRIPOS>BOND
     1    32    33    2
     2    32    31    1
     3    33    34    1
     4    31    30    2
     5    34    35    1
     6    34    29    2
     7    30    29    1
     8    29    28    1
     9    28    26    1
    10    25    22    1
    11    26    27    1
    12    26    23    1
    13    22    23   am
    14    22     1    1
    15     2     1    2
    16     2     3    1
    17    23    24    2
    18     1     6    1
    19     3     4    2
    20     9     7    2
    21     6     5    2
    22     4     5    1
    23     4     7    1
    24     7     8    2
    25     7    10    1
    26    11    10    1
    27    10    12    1
    28    12    13    2
    29    12    18    1
    30    21    18    1
    31    21    20    2
    32    13    14    1
    33    18    16    2
    34    20    19    1
    35    14    15    2
    36    16    15    1
    37    16    17    1
    38    19    17    2
