@<TRIPOS>MOLECULE
71120_out_ligand_01.pdbqt
 34 37 0 0 0
SMALL
GASTEIGER

@<TRIPOS>ATOM
      1  C         19.1140  -22.3570  -10.1740 C.2     1  UNL1        0.0810
      2  C         20.4570  -22.7550  -10.0690 C.2     1  UNL1        0.0420
      3  C         21.4250  -22.2180  -10.9250 C.2     1  UNL1        0.0330
      4  C         21.0480  -21.2720  -11.8820 C.2     1  UNL1        0.0170
      5  C         19.7100  -20.8840  -11.9950 C.2     1  UNL1        0.0090
      6  C         18.7230  -21.4150  -11.1450 C.2     1  UNL1       -0.0390
      7  C         17.3060  -20.9530  -11.3280 C.3     1  UNL1        0.0500
      8  C         22.8370  -22.6580  -10.7600 C.2     1  UNL1        0.2520
      9  O         23.1080  -23.5500   -9.9650 O.2     1  UNL1       -0.2680
     10  N         23.7710  -22.0270  -11.5480 N.am    1  UNL1       -0.3480
     11  H         23.4810  -21.3790  -12.2670 H       1  UNL1        0.1630
     12  C         25.1830  -22.3870  -11.5100 C.3     1  UNL1        0.1180
     13  C         26.0350  -21.2360  -10.9530 C.3     1  UNL1        0.0300
     14  C         26.1760  -20.1140  -11.9770 C.3     1  UNL1        0.0070
     15  C         26.8940  -20.6150  -13.2260 C.3     1  UNL1        0.0390
     16  C         26.3820  -21.9450  -13.7250 C.2     1  UNL1       -0.0500
     17  C         26.7320  -22.3650  -15.0180 C.2     1  UNL1        0.0070
     18  C         25.6200  -22.8000  -12.9040 C.2     1  UNL1       -0.0290
     19  C         26.3190  -23.6060  -15.5020 C.2     1  UNL1        0.0010
     20  C         25.5560  -24.4460  -14.6970 C.2     1  UNL1        0.0010
     21  C         25.2090  -24.0460  -13.4070 C.2     1  UNL1        0.0100
     22  S         17.9450  -23.1120   -9.0440 S.O2    1  UNL1        0.2460
     23  O         16.7480  -23.4470   -9.7830 O.2     1  UNL1       -0.2060
     24  O         18.6660  -24.1160   -8.2860 O.2     1  UNL1       -0.2060
     25  N         17.6440  -21.8040   -7.9840 N.pl3   1  UNL1       -0.1810
     26  H         18.4750  -21.2100   -7.9880 H       1  UNL1        0.1460
     27  C         17.3240  -22.2070   -6.6390 C.2     1  UNL1        0.0290
     28  C         18.1600  -21.8600   -5.5690 C.2     1  UNL1       -0.0400
     29  C         17.7780  -22.2300   -4.2710 C.2     1  UNL1        0.0090
     30  C         19.4320  -21.0890   -5.7700 C.3     1  UNL1        0.0500
     31  C         16.5970  -22.9400   -4.0450 C.2     1  UNL1        0.0070
     32  C         15.7690  -23.2960   -5.1140 C.2     1  UNL1       -0.0600
     33  C         14.4740  -24.0130   -4.8730 C.3     1  UNL1        0.0480
     34  C         16.1350  -22.9110   -6.4100 C.2     1  UNL1        0.0310
@<TRIPOS>BOND
     1    19    17    1
     2    19    20    2
     3    17    16    2
     4    20    21    1
     5    16    15    1
     6    16    18    1
     7    21    18    2
     8    15    14    1
     9    18    12    1
    10    11    10    1
    11     5     4    2
    12     5     6    1
    13    14    13    1
    14     4     3    1
    15    10    12    1
    16    10     8   am
    17    12    13    1
    18     7     6    1
    19     6     1    2
    20     3     8    1
    21     3     2    2
    22     8     9    2
    23     1     2    1
    24     1    22    1
    25    23    22    2
    26    22    24    2
    27    22    25    1
    28    26    25    1
    29    25    27    1
    30    27    34    2
    31    27    28    1
    32    34    32    1
    33    30    28    1
    34    28    29    2
    35    32    33    1
    36    32    31    2
    37    29    31    1
