@<TRIPOS>MOLECULE
71135_out_ligand_01.pdbqt
 36 39 0 0 0
SMALL
GASTEIGER

@<TRIPOS>ATOM
      1  C         21.1820  -22.9360  -10.1910 C.2     1  UNL1        0.0340
      2  C         20.9900  -23.8700   -9.1610 C.2     1  UNL1        0.0310
      3  C         19.7360  -24.0350   -8.5730 C.2     1  UNL1        0.0270
      4  C         18.6530  -23.2850   -9.0380 C.2     1  UNL1        0.0800
      5  C         18.8320  -22.3390  -10.0490 C.2     1  UNL1        0.0270
      6  C         20.0960  -22.1710  -10.6240 C.2     1  UNL1        0.0310
      7  N         22.4760  -22.8480  -10.7410 N.am    1  UNL1       -0.3250
      8  C         23.4550  -21.9090  -10.4420 C.2     1  UNL1        0.2510
      9  O         23.3890  -21.0650   -9.5500 O.2     1  UNL1       -0.2700
     10  H         22.7170  -23.5710  -11.4080 H       1  UNL1        0.1690
     11  C         24.7070  -22.0440  -11.3400 C.3     1  UNL1        0.2200
     12  C         25.8410  -21.1770  -10.7730 C.3     1  UNL1        0.0380
     13  C         26.2750  -20.0700  -11.7230 C.3     1  UNL1        0.0080
     14  O         24.4400  -21.5810  -12.6750 O.2     1  UNL1       -0.3360
     15  C         24.7340  -22.5350  -13.6240 C.2     1  UNL1        0.0810
     16  C         24.9500  -23.8550  -13.2140 C.2     1  UNL1        0.0380
     17  C         25.2560  -24.8310  -14.1590 C.2     1  UNL1        0.0040
     18  C         25.3630  -24.4860  -15.5080 C.2     1  UNL1        0.0120
     19  C         25.1820  -23.1590  -15.9320 C.2     1  UNL1       -0.0230
     20  C         25.2990  -22.8150  -17.2910 C.2     1  UNL1        0.0120
     21  C         24.8790  -22.1560  -14.9770 C.2     1  UNL1        0.0070
     22  C         25.1310  -21.4970  -17.7140 C.2     1  UNL1        0.0010
     23  C         24.8480  -20.5030  -16.7820 C.2     1  UNL1        0.0010
     24  C         24.7240  -20.8290  -15.4290 C.2     1  UNL1        0.0150
     25  S         17.0500  -23.5030   -8.3000 S.O2    1  UNL1        0.2630
     26  O         16.0730  -23.5270   -9.3680 O.2     1  UNL1       -0.2000
     27  O         17.1510  -24.5970   -7.3540 O.2     1  UNL1       -0.2000
     28  N         16.8530  -22.1060   -7.3730 N.pl3   1  UNL1       -0.2800
     29  H         16.2310  -21.4250   -7.8080 H       1  UNL1        0.1790
     30  C         16.8950  -22.1740   -5.9490 C.2     1  UNL1        0.0480
     31  C         15.7530  -22.5790   -5.2480 C.2     1  UNL1        0.0300
     32  C         15.7630  -22.6360   -3.8560 C.2     1  UNL1        0.0020
     33  C         16.9140  -22.2880   -3.1570 C.2     1  UNL1        0.0010
     34  C         18.0610  -21.8910   -3.8500 C.2     1  UNL1        0.0090
     35  C         18.0650  -21.8240   -5.2530 C.2     1  UNL1       -0.0350
     36  C         19.3300  -21.4120   -5.9590 C.3     1  UNL1        0.0500
@<TRIPOS>BOND
     1    22    20    2
     2    22    23    1
     3    20    19    1
     4    23    24    2
     5    19    18    2
     6    19    21    1
     7    18    17    1
     8    24    21    1
     9    21    15    2
    10    17    16    2
    11    15    16    1
    12    15    14    1
    13    14    11    1
    14    13    12    1
    15    10     7    1
    16    11    12    1
    17    11     8    1
    18     7     8   am
    19     7     1    1
    20     6     1    2
    21     6     5    1
    22     8     9    2
    23     1     2    1
    24     5     4    2
    25    26    25    2
    26     2     3    2
    27     4     3    1
    28     4    25    1
    29    25    28    1
    30    25    27    2
    31    29    28    1
    32    28    30    1
    33    36    35    1
    34    30    35    2
    35    30    31    1
    36    35    34    1
    37    31    32    2
    38    32    33    1
    39    34    33    2
