@<TRIPOS>MOLECULE
71138_out_ligand_01.pdbqt
 33 35 0 0 0
SMALL
GASTEIGER

@<TRIPOS>ATOM
      1  C         21.1270  -21.9400  -10.8610 C.2     1  UNL1        0.0330
      2  C         20.7100  -20.9770  -11.7810 C.2     1  UNL1        0.0170
      3  C         19.3540  -20.6610  -11.9040 C.2     1  UNL1        0.0090
      4  C         18.3840  -21.2870  -11.1000 C.2     1  UNL1       -0.0390
      5  C         16.9460  -20.9020  -11.3060 C.3     1  UNL1        0.0500
      6  C         18.8170  -22.2400  -10.1580 C.2     1  UNL1        0.0860
      7  C         20.1830  -22.5640  -10.0430 C.2     1  UNL1        0.0420
      8  C         22.5780  -22.2530  -10.7650 C.2     1  UNL1        0.2520
      9  N         23.2060  -22.5780  -11.9480 N.am    1  UNL1       -0.3490
     10  H         22.7400  -22.3380  -12.8120 H       1  UNL1        0.1630
     11  O         23.1440  -22.1900   -9.6800 O.2     1  UNL1       -0.2680
     12  C         24.6550  -22.7040  -12.0240 C.3     1  UNL1        0.1140
     13  C         25.0250  -24.0100  -12.7310 C.3     1  UNL1        0.0370
     14  C         25.2340  -21.4590  -12.6760 C.2     1  UNL1       -0.0360
     15  C         24.7610  -21.0700  -13.9400 C.2     1  UNL1        0.0100
     16  C         25.2820  -19.9490  -14.5910 C.2     1  UNL1        0.0070
     17  C         26.2980  -19.1960  -13.9990 C.2     1  UNL1       -0.0620
     18  C         26.8660  -17.9890  -14.6850 C.3     1  UNL1        0.0480
     19  C         26.7880  -19.5860  -12.7490 C.2     1  UNL1        0.0070
     20  C         26.2680  -20.7080  -12.0970 C.2     1  UNL1        0.0100
     21  S         17.7100  -23.1260   -9.0690 S.O2    1  UNL1        0.2630
     22  O         16.6220  -23.7140   -9.8160 O.2     1  UNL1       -0.2000
     23  O         18.5410  -23.9590   -8.2220 O.2     1  UNL1       -0.2000
     24  N         17.1250  -21.9020   -8.0640 N.pl3   1  UNL1       -0.2800
     25  H         17.5990  -21.0150   -8.2270 H       1  UNL1        0.1790
     26  C         16.7680  -22.2280   -6.7260 C.2     1  UNL1        0.0490
     27  C         15.5060  -22.7940   -6.5240 C.2     1  UNL1        0.0310
     28  C         15.1040  -23.1690   -5.2460 C.2     1  UNL1        0.0030
     29  C         15.9650  -22.9870   -4.1690 C.2     1  UNL1        0.0070
     30  C         17.2390  -22.4250   -4.3530 C.2     1  UNL1       -0.0540
     31  C         18.1340  -22.2560   -3.1540 C.3     1  UNL1        0.0490
     32  C         17.6460  -22.0160   -5.6460 C.2     1  UNL1       -0.0290
     33  C         19.0170  -21.4210   -5.8470 C.3     1  UNL1        0.0510
@<TRIPOS>BOND
     1    18    17    1
     2    16    17    2
     3    16    15    1
     4    17    19    1
     5    15    14    2
     6    10     9    1
     7    19    20    2
     8    13    12    1
     9    14    20    1
    10    14    12    1
    11    12     9    1
    12     9     8   am
    13     3     2    1
    14     3     4    2
    15     2     1    2
    16     5     4    1
    17     4     6    1
    18     1     8    1
    19     1     7    1
    20     8    11    2
    21     6     7    2
    22     6    21    1
    23    22    21    2
    24    21    23    2
    25    21    24    1
    26    25    24    1
    27    24    26    1
    28    26    27    2
    29    26    32    1
    30    27    28    1
    31    33    32    1
    32    32    30    2
    33    28    29    2
    34    30    29    1
    35    30    31    1
