@<TRIPOS>MOLECULE
71147_out_ligand_01.pdbqt
 36 38 0 0 0
SMALL
GASTEIGER

@<TRIPOS>ATOM
      1  C         19.4430  -22.3550  -10.1100 C.2     1  UNL1        0.0330
      2  C         18.6270  -21.6240  -10.9780 C.2     1  UNL1        0.0170
      3  C         17.2380  -21.6660  -10.8330 C.2     1  UNL1        0.0090
      4  C         16.6340  -22.4340   -9.8230 C.2     1  UNL1       -0.0390
      5  C         15.1340  -22.4270   -9.7270 C.3     1  UNL1        0.0500
      6  C         17.4660  -23.1450   -8.9350 C.2     1  UNL1        0.0810
      7  C         18.8630  -23.0960   -9.0740 C.2     1  UNL1        0.0420
      8  C         20.9280  -22.3460  -10.2380 C.2     1  UNL1        0.2560
      9  N         21.4000  -22.3870  -11.5380 N.am    1  UNL1       -0.3230
     10  H         20.7140  -22.5190  -12.2700 H       1  UNL1        0.1690
     11  O         21.5990  -22.3470   -9.2140 O.2     1  UNL1       -0.2670
     12  C         22.7470  -22.3610  -11.9580 C.2     1  UNL1        0.0360
     13  C         23.0670  -21.5210  -13.0320 C.2     1  UNL1        0.0490
     14  C         24.3880  -21.4360  -13.5100 C.2     1  UNL1        0.0630
     15  C         25.3990  -22.1890  -12.9090 C.2     1  UNL1        0.0500
     16  C         25.0800  -23.0230  -11.8350 C.2     1  UNL1        0.0270
     17 CL         27.0350  -22.1810  -13.4600 Cl      1  UNL1       -0.0830
     18  C         23.7650  -23.1070  -11.3610 C.2     1  UNL1        0.0310
     19  C         24.6750  -20.5180  -14.6290 C.2     1  UNL1        0.2950
     20  O         25.3120  -19.4860  -14.5390 O.2     1  UNL1       -0.2590
     21  O         24.0970  -21.0210  -15.7500 O.3     1  UNL1       -0.3180
     22  C         25.0060  -21.7250  -16.6040 C.3     1  UNL1        0.1740
     23  C         24.5170  -23.1530  -16.7390 C.3     1  UNL1        0.0340
     24  S         16.8030  -24.1210   -7.5860 S.O2    1  UNL1        0.2460
     25  O         15.7380  -24.9430   -8.1210 O.2     1  UNL1       -0.2060
     26  O         17.9150  -24.6950   -6.8630 O.2     1  UNL1       -0.2060
     27  N         16.0510  -22.8950   -6.6650 N.pl3   1  UNL1       -0.1810
     28  H         15.1630  -23.2680   -6.3290 H       1  UNL1        0.1460
     29  C         16.8500  -22.3970   -5.5770 C.2     1  UNL1        0.0290
     30  C         17.9200  -21.5510   -5.8890 C.2     1  UNL1        0.0310
     31  C         18.7720  -21.0670   -4.8890 C.2     1  UNL1       -0.0600
     32  C         19.8960  -20.1350   -5.2300 C.3     1  UNL1        0.0480
     33  C         18.5330  -21.4340   -3.5630 C.2     1  UNL1        0.0070
     34  C         17.4750  -22.2890   -3.2460 C.2     1  UNL1        0.0090
     35  C         16.6160  -22.7800   -4.2440 C.2     1  UNL1       -0.0400
     36  C         15.5190  -23.7270   -3.8440 C.3     1  UNL1        0.0500
@<TRIPOS>BOND
     1    23    22    1
     2    22    21    1
     3    21    19    1
     4    19    20    2
     5    19    14    1
     6    14    13    1
     7    14    15    2
     8    17    15    1
     9    13    12    2
    10    15    16    1
    11    10     9    1
    12    12     9    1
    13    12    18    1
    14    16    18    2
    15     9     8   am
    16     2     3    1
    17     2     1    2
    18     3     4    2
    19     8     1    1
    20     8    11    2
    21     1     7    1
    22     4     5    1
    23     4     6    1
    24     7     6    2
    25     6    24    1
    26    25    24    2
    27    24    26    2
    28    24    27    1
    29    27    28    1
    30    27    29    1
    31    30    29    2
    32    30    31    1
    33    29    35    1
    34    32    31    1
    35    31    33    2
    36    35    36    1
    37    35    34    2
    38    33    34    1
