@<TRIPOS>MOLECULE
71152_out_ligand_01.pdbqt
 38 42 0 0 0
SMALL
GASTEIGER

@<TRIPOS>ATOM
      1  O         19.4970  -20.8070   -5.8370 O.2     1  UNL1       -0.2670
      2  C         19.4700  -21.9130   -6.3640 C.2     1  UNL1        0.2560
      3  N         18.5280  -22.9010   -6.1630 N.am    1  UNL1       -0.3220
      4  H         18.7120  -23.8130   -6.5860 H       1  UNL1        0.1690
      5  C         20.5660  -22.2680   -7.3130 C.2     1  UNL1        0.0320
      6  C         20.4680  -23.4700   -8.0260 C.2     1  UNL1        0.0170
      7  C         21.4700  -23.8400   -8.9270 C.2     1  UNL1        0.0100
      8  C         22.5880  -23.0160   -9.1260 C.2     1  UNL1       -0.0400
      9  C         22.6940  -21.8290   -8.3810 C.2     1  UNL1        0.0100
     10  C         21.6920  -21.4530   -7.4830 C.2     1  UNL1        0.0170
     11  C         23.6880  -23.4330  -10.0830 C.3     1  UNL1        0.1610
     12  N         24.0220  -22.3420  -11.0120 N.pl3   1  UNL1       -0.3760
     13  C         22.9190  -21.4410  -11.3730 C.3     1  UNL1        0.1230
     14  C         22.3210  -21.8220  -12.7160 C.3     1  UNL1        0.0240
     15  C         23.3900  -21.6780  -13.7910 C.3     1  UNL1        0.0420
     16  C         24.6790  -22.3410  -13.3810 C.2     1  UNL1       -0.0320
     17  C         25.6310  -22.6300  -14.3750 C.2     1  UNL1        0.0090
     18  C         24.9410  -22.6430  -12.0290 C.2     1  UNL1        0.0360
     19  C         26.8440  -23.2250  -14.0400 C.2     1  UNL1        0.0010
     20  C         27.1200  -23.5210  -12.7120 C.2     1  UNL1        0.0020
     21  C         26.1810  -23.2270  -11.7220 C.2     1  UNL1        0.0300
     22  C         17.3790  -22.8770   -5.3310 C.2     1  UNL1        0.0500
     23  C         17.4310  -22.4490   -4.0000 C.2     1  UNL1        0.0300
     24  C         16.2880  -22.4670   -3.1960 C.2     1  UNL1        0.0020
     25  C         15.0750  -22.9180   -3.7050 C.2     1  UNL1        0.0010
     26  C         14.9950  -23.3340   -5.0320 C.2     1  UNL1        0.0190
     27  C         16.1330  -23.2970   -5.8590 C.2     1  UNL1        0.0580
     28  C         16.0130  -23.7050   -7.2950 C.2     1  UNL1        0.2540
     29  O         16.2580  -24.8590   -7.6380 O.2     1  UNL1       -0.2680
     30  N         15.6780  -22.7210   -8.2000 N.am    1  UNL1       -0.3530
     31  H         15.7620  -21.7520   -7.9240 H       1  UNL1        0.1630
     32  C         15.6580  -23.0070   -9.6160 C.3     1  UNL1        0.1620
     33  C         16.7890  -22.3170  -10.3170 C.2     1  UNL1       -0.0230
     34  C         18.0620  -22.8880  -10.3950 C.2     1  UNL1        0.0120
     35  C         19.0920  -22.1950  -11.0260 C.2     1  UNL1        0.0200
     36  C         18.8150  -20.9440  -11.5530 C.2     1  UNL1        0.1160
     37  N         17.6010  -20.3560  -11.4880 N.2     1  UNL1       -0.2730
     38  C         16.6190  -21.0520  -10.8730 C.2     1  UNL1        0.1240
@<TRIPOS>BOND
     1    17    19    1
     2    17    16    2
     3    19    20    2
     4    15    16    1
     5    15    14    1
     6    16    18    1
     7    14    13    1
     8    20    21    1
     9    18    21    2
    10    18    12    1
    11    36    37    2
    12    36    35    1
    13    37    38    1
    14    13    12    1
    15    35    34    2
    16    12    11    1
    17    38    33    2
    18    34    33    1
    19    33    32    1
    20    11     8    1
    21    32    30    1
    22     8     7    2
    23     8     9    1
    24     7     6    1
    25     9    10    2
    26    30    31    1
    27    30    28   am
    28     6     5    2
    29    29    28    2
    30    10     5    1
    31     5     2    1
    32    28    27    1
    33     4     3    1
    34     2     3   am
    35     2     1    2
    36     3    22    1
    37    27    22    2
    38    27    26    1
    39    22    23    1
    40    26    25    2
    41    23    24    2
    42    25    24    1
