@<TRIPOS>MOLECULE
71150_out_ligand_01.pdbqt
 31 33 0 0 0
SMALL
GASTEIGER

@<TRIPOS>ATOM
      1  C         17.5690  -23.6350   -8.5360 C.2     1  UNL1        0.0810
      2  C         18.9470  -23.8890   -8.4920 C.2     1  UNL1        0.0420
      3  C         19.7760  -23.3640   -9.4850 C.2     1  UNL1        0.0330
      4  C         19.2520  -22.5660  -10.5020 C.2     1  UNL1        0.0170
      5  C         17.8780  -22.3190  -10.5450 C.2     1  UNL1        0.0090
      6  C         17.0150  -22.8450   -9.5650 C.2     1  UNL1       -0.0390
      7  C         15.5430  -22.5590   -9.6860 C.3     1  UNL1        0.0500
      8  S         16.5580  -24.3510   -7.2450 S.O2    1  UNL1        0.2460
      9  O         15.4740  -25.0690   -7.8780 O.2     1  UNL1       -0.2060
     10  O         17.4470  -25.0010   -6.3040 O.2     1  UNL1       -0.2060
     11  N         15.9750  -22.9390   -6.4880 N.pl3   1  UNL1       -0.1810
     12  H         15.7160  -22.2580   -7.2040 H       1  UNL1        0.1460
     13  C         16.8470  -22.3870   -5.4940 C.2     1  UNL1        0.0230
     14  C         16.6090  -22.6160   -4.1400 C.2     1  UNL1        0.0240
     15  C         17.4700  -22.0780   -3.1830 C.2     1  UNL1        0.0020
     16  C         18.5730  -21.3180   -3.5810 C.2     1  UNL1        0.0070
     17  C         18.8320  -21.1010   -4.9400 C.2     1  UNL1       -0.0600
     18  C         20.0010  -20.2610   -5.3660 C.3     1  UNL1        0.0480
     19  C         17.9550  -21.6340   -5.8950 C.2     1  UNL1        0.0310
     20  C         21.2290  -23.6100   -9.3960 C.2     1  UNL1        0.2530
     21  O         21.5770  -24.7040   -8.9560 O.2     1  UNL1       -0.2670
     22  N         22.1110  -22.6140   -9.8050 N.am    1  UNL1       -0.3480
     23  C         21.7250  -21.3860  -10.4930 C.3     1  UNL1        0.1530
     24  C         23.5420  -22.8430   -9.6170 C.3     1  UNL1        0.1640
     25  C         24.3620  -22.4630  -10.8320 C.2     1  UNL1       -0.0400
     26  C         25.2570  -21.3820  -10.7750 C.2     1  UNL1        0.0100
     27  C         26.0170  -21.0280  -11.8920 C.2     1  UNL1        0.0240
     28  C         25.8840  -21.7520  -13.0750 C.2     1  UNL1        0.0340
     29 CL         26.8170  -21.3170  -14.4530 Cl      1  UNL1       -0.0840
     30  C         25.0020  -22.8300  -13.1480 C.2     1  UNL1        0.0240
     31  C         24.2420  -23.1830  -12.0310 C.2     1  UNL1        0.0100
@<TRIPOS>BOND
     1    29    28    1
     2    30    28    2
     3    30    31    1
     4    28    27    1
     5    31    25    2
     6    27    26    2
     7    25    26    1
     8    25    24    1
     9     5     4    2
    10     5     6    1
    11     4     3    1
    12    23    22    1
    13    22    24    1
    14    22    20   am
    15     7     6    1
    16     6     1    2
    17     3    20    1
    18     3     2    2
    19    20    21    2
    20     1     2    1
    21     1     8    1
    22     9     8    2
    23     8    11    1
    24     8    10    2
    25    12    11    1
    26    11    13    1
    27    19    13    2
    28    19    17    1
    29    13    14    1
    30    18    17    1
    31    17    16    2
    32    14    15    2
    33    16    15    1
