@<TRIPOS>MOLECULE
7116_out_ligand_01.pdbqt
 33 36 0 0 0
SMALL
GASTEIGER

@<TRIPOS>ATOM
      1  C         21.3890  -21.6280  -12.1610 C.2     1  UNL1        0.0330
      2  C         20.0860  -21.1470  -12.0560 C.2     1  UNL1        0.0190
      3  C         19.2430  -21.6090  -11.0360 C.2     1  UNL1        0.0310
      4  C         19.6620  -22.5750  -10.1070 C.2     1  UNL1        0.0430
      5  C         20.9790  -23.0720  -10.2340 C.2     1  UNL1       -0.0300
      6  C         21.8280  -22.5940  -11.2530 C.2     1  UNL1        0.0260
      7  C         21.5430  -24.0940   -9.2830 C.3     1  UNL1        0.0420
      8  C         20.4370  -24.8660   -8.5990 C.3     1  UNL1        0.0250
      9  C         19.4400  -23.8860   -8.0110 C.3     1  UNL1        0.1330
     10  N         18.8120  -23.0350   -9.0340 N.am    1  UNL1       -0.3130
     11  C         17.4470  -22.6960   -8.9480 C.2     1  UNL1        0.2610
     12  O         16.7400  -22.2860   -9.8680 O.2     1  UNL1       -0.2670
     13  C         22.3300  -21.1650  -13.2220 C.2     1  UNL1        0.2560
     14  N         23.5440  -21.8190  -13.2510 N.am    1  UNL1       -0.3200
     15  H         23.6820  -22.6160  -12.6380 H       1  UNL1        0.1690
     16  O         21.9550  -20.2860  -13.9900 O.2     1  UNL1       -0.2670
     17  C         24.6460  -21.5890  -14.1090 C.2     1  UNL1        0.0710
     18  C         25.7760  -20.9670  -13.5340 C.2     1  UNL1        0.0950
     19  C         26.8960  -20.7070  -14.3240 C.2     1  UNL1        0.0420
     20  C         26.8930  -21.0620  -15.6750 C.2     1  UNL1        0.0390
     21  C         25.7790  -21.6750  -16.2520 C.2     1  UNL1        0.0700
     22  C         24.6560  -21.9350  -15.4650 C.2     1  UNL1        0.0690
     23  O         25.6650  -20.6610  -12.1970 O.2     1  UNL1       -0.3540
     24  C         26.5960  -19.7240  -11.6700 C.3     1  UNL1        0.2100
     25  O         25.9150  -21.9630  -17.5820 O.2     1  UNL1       -0.3560
     26  C         24.9420  -22.8320  -18.1510 C.3     1  UNL1        0.2100
     27  C         16.7450  -22.8770   -7.6620 C.2     1  UNL1        0.0710
     28  C         17.0710  -22.0420   -6.5850 C.2     1  UNL1        0.0200
     29  C         16.4370  -22.2200   -5.3530 C.2     1  UNL1        0.0010
     30  C         15.4950  -23.2390   -5.1920 C.2     1  UNL1        0.0030
     31  C         15.1900  -24.0860   -6.2590 C.2     1  UNL1        0.0430
     32  C         15.8220  -23.9060   -7.4870 C.2     1  UNL1        0.1320
     33  F         15.5240  -24.7420   -8.4910 F       1  UNL1       -0.2050
@<TRIPOS>BOND
     1    26    25    1
     2    25    21    1
     3    21    20    2
     4    21    22    1
     5    20    19    1
     6    22    17    2
     7    19    18    2
     8    17    18    1
     9    17    14    1
    10    16    13    2
    11    18    23    1
    12    14    13   am
    13    14    15    1
    14    13     1    1
    15    23    24    1
    16     1     2    2
    17     1     6    1
    18     2     3    1
    19     6     5    2
    20     3     4    2
    21     5     4    1
    22     5     7    1
    23     4    10    1
    24    12    11    2
    25     7     8    1
    26    10    11   am
    27    10     9    1
    28    11    27    1
    29     8     9    1
    30    33    32    1
    31    27    32    2
    32    27    28    1
    33    32    31    1
    34    28    29    2
    35    31    30    2
    36    29    30    1
