@<TRIPOS>MOLECULE
7126_out_ligand_01.pdbqt
 29 32 0 0 0
SMALL
GASTEIGER

@<TRIPOS>ATOM
      1  C         21.4990  -22.0790  -11.5830 C.2     1  UNL1        0.0320
      2  C         20.6130  -21.3780  -12.4110 C.2     1  UNL1        0.0180
      3  C         19.2740  -21.2330  -12.0370 C.2     1  UNL1        0.0190
      4  C         18.8190  -21.7700  -10.8260 C.2     1  UNL1        0.0450
      5  C         19.7070  -22.4490   -9.9810 C.2     1  UNL1       -0.0380
      6  C         21.0450  -22.6070  -10.3650 C.2     1  UNL1        0.0250
      7  C         19.1890  -23.0260   -8.6960 C.3     1  UNL1        0.0770
      8  C         18.0640  -22.1220   -8.1910 C.3     1  UNL1        0.1690
      9  O         17.0380  -21.9860   -9.1970 O.3     1  UNL1       -0.3070
     10  C         17.3820  -21.6380  -10.4630 C.2     1  UNL1        0.2940
     11  O         16.5560  -21.2630  -11.2830 O.2     1  UNL1       -0.2590
     12  C         22.9350  -22.2580  -11.9390 C.2     1  UNL1        0.2560
     13  O         23.6440  -22.8890  -11.1650 O.2     1  UNL1       -0.2670
     14  N         23.3090  -21.7080  -13.1520 N.am    1  UNL1       -0.3230
     15  H         22.5730  -21.3330  -13.7350 H       1  UNL1        0.1690
     16  C         24.6020  -21.6910  -13.7200 C.2     1  UNL1        0.0370
     17  C         25.6600  -20.9190  -13.2310 C.2     1  UNL1        0.0290
     18  C         26.9160  -20.9510  -13.8520 C.2     1  UNL1        0.0050
     19  C         27.1210  -21.7560  -14.9690 C.2     1  UNL1        0.0420
     20  C         26.0680  -22.5180  -15.4550 C.2     1  UNL1        0.1180
     21  F         26.2580  -23.2930  -16.5320 F       1  UNL1       -0.2060
     22  C         24.8170  -22.4930  -14.8450 C.2     1  UNL1        0.0710
     23  C         17.4530  -22.6810   -6.9200 C.2     1  UNL1       -0.0280
     24  C         18.0410  -22.4560   -5.6640 C.2     1  UNL1        0.0110
     25  C         17.4490  -22.9580   -4.5010 C.2     1  UNL1        0.0240
     26  C         16.2640  -23.6830   -4.5850 C.2     1  UNL1        0.0340
     27 CL         15.5350  -24.2990   -3.1530 Cl      1  UNL1       -0.0840
     28  C         15.6640  -23.9120   -5.8200 C.2     1  UNL1        0.0240
     29  C         16.2550  -23.4110   -6.9840 C.2     1  UNL1        0.0110
@<TRIPOS>BOND
     1    21    20    1
     2    20    19    2
     3    20    22    1
     4    19    18    1
     5    22    16    2
     6    18    17    2
     7    15    14    1
     8    16    17    1
     9    16    14    1
    10    14    12   am
    11     2     3    1
    12     2     1    2
    13     3     4    2
    14    12     1    1
    15    12    13    2
    16     1     6    1
    17    11    10    2
    18     4    10    1
    19     4     5    1
    20    10     9    1
    21     6     5    2
    22     5     7    1
    23     9     8    1
    24     7     8    1
    25     8    23    1
    26    29    23    2
    27    29    28    1
    28    23    24    1
    29    28    26    2
    30    24    25    2
    31    26    25    1
    32    26    27    1
