@<TRIPOS>MOLECULE
7133_out_ligand_01.pdbqt
 33 36 0 0 0
SMALL
GASTEIGER

@<TRIPOS>ATOM
      1  C         21.7800  -21.7090  -11.6130 C.2     1  UNL1        0.0360
      2  C         21.3610  -22.6480  -10.6710 C.2     1  UNL1        0.0300
      3  C         20.0080  -22.7490  -10.3220 C.2     1  UNL1        0.0190
      4  C         19.0550  -21.9190  -10.9220 C.2     1  UNL1        0.0320
      5  C         19.4720  -20.9700  -11.8610 C.2     1  UNL1        0.0190
      6  C         20.8250  -20.8730  -12.2060 C.2     1  UNL1        0.0300
      7  N         23.1160  -21.5540  -12.0340 N.am    1  UNL1       -0.3090
      8  C         24.2450  -21.4290  -11.2510 C.2     1  UNL1        0.3270
      9  N         25.4510  -21.3720  -11.9690 N.am    1  UNL1       -0.2960
     10  O         24.2280  -21.2930  -10.0290 O.2     1  UNL1       -0.2460
     11  C         26.5590  -20.6310  -11.3640 C.3     1  UNL1        0.1440
     12  C         25.6180  -21.7110  -13.3470 C.2     1  UNL1        0.0800
     13  C         26.6370  -19.2340  -11.9530 C.3     1  UNL1        0.1010
     14  S         27.0430  -19.2880  -13.7260 S.3     1  UNL1       -0.1060
     15  C         26.3000  -20.8400  -14.2210 C.2     1  UNL1        0.1210
     16  N         26.4410  -21.0870  -15.5460 N.2     1  UNL1       -0.2440
     17  C         25.9300  -22.2290  -16.0470 C.2     1  UNL1        0.0320
     18  C         26.1100  -22.4770  -17.5140 C.3     1  UNL1        0.0700
     19  C         25.2960  -23.1700  -15.2480 C.2     1  UNL1        0.0350
     20  C         25.1590  -22.9360  -13.8730 C.2     1  UNL1       -0.0300
     21  C         24.5800  -24.0480  -13.0380 C.3     1  UNL1        0.0500
     22  H         23.2510  -21.3830  -13.0190 H       1  UNL1        0.1700
     23  C         17.6280  -22.0710  -10.5230 C.2     1  UNL1        0.2510
     24  O         16.8180  -21.1860  -10.7770 O.2     1  UNL1       -0.2680
     25  N         17.3040  -23.2240   -9.8410 N.am    1  UNL1       -0.3510
     26  H         18.0480  -23.7680   -9.4260 H       1  UNL1        0.1630
     27  C         16.0050  -23.3860   -9.2250 C.3     1  UNL1        0.1870
     28  C         16.2010  -23.5070   -7.7600 C.2     1  UNL1        0.0710
     29  C         17.0170  -24.2940   -6.9770 C.2     1  UNL1        0.0370
     30  C         16.7200  -23.9660   -5.6330 C.2     1  UNL1        0.0350
     31  C         15.7360  -23.0020   -5.6770 C.2     1  UNL1        0.0490
     32  C         14.9990  -22.2540   -4.6420 C.3     1  UNL1        0.0760
     33  O         15.4120  -22.7210   -6.9700 O.2     1  UNL1       -0.3180
@<TRIPOS>BOND
     1    18    17    1
     2    17    16    2
     3    17    19    1
     4    16    15    1
     5    19    20    2
     6    15    14    1
     7    15    12    2
     8    20    12    1
     9    20    21    1
    10    14    13    1
    11    12     9    1
    12    22     7    1
    13     6     5    1
    14     6     1    2
    15     7     1    1
    16     7     8   am
    17     9    11    1
    18     9     8   am
    19    13    11    1
    20     5     4    2
    21     1     2    1
    22     8    10    2
    23     4    23    1
    24     4     3    1
    25    24    23    2
    26     2     3    2
    27    23    25   am
    28    25    26    1
    29    25    27    1
    30    27    28    1
    31    28    29    2
    32    28    33    1
    33    29    30    1
    34    33    31    1
    35    31    30    2
    36    31    32    1
