@<TRIPOS>MOLECULE
7136_out_ligand_01.pdbqt
 30 33 0 0 0
SMALL
GASTEIGER

@<TRIPOS>ATOM
      1  C         17.7190  -23.0970   -8.4100 C.3     1  UNL1        0.1690
      2  C         19.1470  -22.5750   -8.2620 C.3     1  UNL1        0.0770
      3  C         19.6710  -22.2530   -9.6310 C.2     1  UNL1       -0.0380
      4  C         21.0350  -22.3600   -9.9350 C.2     1  UNL1        0.0250
      5  C         21.5020  -22.0320  -11.2160 C.2     1  UNL1        0.0320
      6  C         20.6060  -21.5560  -12.1830 C.2     1  UNL1        0.0180
      7  C         19.2480  -21.4370  -11.8760 C.2     1  UNL1        0.0190
      8  C         18.7770  -21.7890  -10.6050 C.2     1  UNL1        0.0450
      9  C         17.3340  -21.6170  -10.2880 C.2     1  UNL1        0.2940
     10  O         16.5870  -21.0160  -11.0490 O.2     1  UNL1       -0.2590
     11  O         16.9010  -22.1350   -9.1100 O.3     1  UNL1       -0.3070
     12  C         22.9630  -22.1640  -11.4940 C.2     1  UNL1        0.2560
     13  O         23.7380  -21.9960  -10.5600 O.2     1  UNL1       -0.2670
     14  N         23.2770  -22.5100  -12.7950 N.am    1  UNL1       -0.3220
     15  H         22.5010  -22.7530  -13.3910 H       1  UNL1        0.1690
     16  C         24.5650  -22.6610  -13.3700 C.2     1  UNL1        0.0410
     17  C         25.3790  -23.7610  -13.0750 C.2     1  UNL1        0.0300
     18  C         26.6450  -23.8880  -13.6410 C.2     1  UNL1        0.0030
     19  C         27.1210  -22.9150  -14.5110 C.2     1  UNL1        0.0070
     20  C         26.3380  -21.7950  -14.8280 C.2     1  UNL1       -0.0540
     21  C         26.9130  -20.7760  -15.7760 C.3     1  UNL1        0.0490
     22  C         25.0470  -21.6580  -14.2560 C.2     1  UNL1       -0.0290
     23  C         24.1900  -20.4590  -14.5850 C.3     1  UNL1        0.0510
     24  C         17.1100  -23.3900   -7.0530 C.2     1  UNL1       -0.0290
     25  C         17.8850  -23.2470   -5.8930 C.2     1  UNL1        0.0100
     26  C         17.3320  -23.4830   -4.6320 C.2     1  UNL1        0.0070
     27  C         15.9890  -23.8520   -4.5030 C.2     1  UNL1       -0.0620
     28  C         15.4050  -24.1410   -3.1530 C.3     1  UNL1        0.0480
     29  C         15.2150  -24.0060   -5.6580 C.2     1  UNL1        0.0070
     30  C         15.7670  -23.7690   -6.9190 C.2     1  UNL1        0.0100
@<TRIPOS>BOND
     1    21    20    1
     2    20    19    2
     3    20    22    1
     4    23    22    1
     5    19    18    1
     6    22    16    2
     7    18    17    2
     8    15    14    1
     9    16    17    1
    10    16    14    1
    11    14    12   am
    12     6     7    2
    13     6     5    1
    14     7     8    1
    15    12     5    1
    16    12    13    2
    17     5     4    2
    18    10     9    2
    19     8     9    1
    20     8     3    2
    21     9    11    1
    22     4     3    1
    23     3     2    1
    24    11     1    1
    25     1     2    1
    26     1    24    1
    27    24    30    2
    28    24    25    1
    29    30    29    1
    30    25    26    2
    31    29    27    2
    32    26    27    1
    33    27    28    1
