@<TRIPOS>MOLECULE
71399_out_ligand_01.pdbqt
 35 38 0 0 0
SMALL
GASTEIGER

@<TRIPOS>ATOM
      1  C         18.5360  -22.4660   -9.9320 C.2     1  UNL1        0.0860
      2  C         19.8650  -22.9240   -9.8390 C.2     1  UNL1        0.0420
      3  C         20.8430  -22.4310  -10.7050 C.2     1  UNL1        0.0330
      4  C         20.4990  -21.4610  -11.6490 C.2     1  UNL1        0.0170
      5  C         19.1800  -21.0120  -11.7480 C.2     1  UNL1        0.0090
      6  C         18.1750  -21.5070  -10.8970 C.2     1  UNL1       -0.0390
      7  C         16.7780  -20.9840  -11.0800 C.3     1  UNL1        0.0500
      8  C         22.2560  -22.8900  -10.6410 C.2     1  UNL1        0.2510
      9  O         22.7050  -23.3380   -9.5930 O.2     1  UNL1       -0.2680
     10  N         22.9970  -22.7500  -11.7960 N.am    1  UNL1       -0.3530
     11  H         22.6200  -22.2280  -12.5740 H       1  UNL1        0.1630
     12  C         24.4130  -23.0630  -11.8240 C.3     1  UNL1        0.1630
     13  C         25.3050  -21.8840  -12.1710 C.2     1  UNL1       -0.0130
     14  C         25.6560  -20.9720  -11.1510 C.2     1  UNL1        0.0110
     15  C         26.5530  -19.9270  -11.3760 C.2     1  UNL1        0.0010
     16  C         27.1210  -19.7620  -12.6300 C.2     1  UNL1        0.0020
     17  C         26.7680  -20.6210  -13.6690 C.2     1  UNL1        0.0300
     18  C         25.8400  -21.6640  -13.4640 C.2     1  UNL1        0.0470
     19  N         25.4670  -22.4330  -14.6060 N.pl3   1  UNL1       -0.3150
     20  C         24.4750  -22.1670  -15.5250 C.2     1  UNL1        0.1170
     21  C         24.5480  -23.1640  -16.4690 C.2     1  UNL1        0.1350
     22  N         25.5620  -24.0300  -16.1830 N.2     1  UNL1       -0.2540
     23  C         26.0970  -23.5700  -15.0730 C.2     1  UNL1        0.2140
     24  S         17.3770  -23.2020   -8.7860 S.O2    1  UNL1        0.2630
     25  O         18.1410  -24.1270   -7.9710 O.2     1  UNL1       -0.2000
     26  O         16.1930  -23.6540   -9.4770 O.2     1  UNL1       -0.2000
     27  N         16.9950  -21.9120   -7.7650 N.pl3   1  UNL1       -0.2800
     28  H         17.5090  -21.0720   -8.0240 H       1  UNL1        0.1790
     29  C         16.8210  -22.1710   -6.3760 C.2     1  UNL1        0.0480
     30  C         15.6000  -22.7050   -5.9560 C.2     1  UNL1        0.0300
     31  C         15.3920  -23.0160   -4.6130 C.2     1  UNL1        0.0020
     32  C         16.4100  -22.7980   -3.6880 C.2     1  UNL1        0.0010
     33  C         17.6300  -22.2640   -4.1040 C.2     1  UNL1        0.0090
     34  C         17.8500  -21.9320   -5.4510 C.2     1  UNL1       -0.0350
     35  C         19.1910  -21.3880   -5.8560 C.3     1  UNL1        0.0500
@<TRIPOS>BOND
     1    21    22    1
     2    21    20    2
     3    22    23    2
     4    20    19    1
     5    23    19    1
     6    19    18    1
     7    17    18    1
     8    17    16    2
     9    18    13    2
    10    16    15    1
    11    11    10    1
    12    13    12    1
    13    13    14    1
    14    12    10    1
    15    10     8   am
    16     5     4    2
    17     5     6    1
    18     4     3    1
    19    15    14    2
    20     7     6    1
    21     6     1    2
    22     3     8    1
    23     3     2    2
    24     8     9    2
    25     1     2    1
    26     1    24    1
    27    26    24    2
    28    24    25    2
    29    24    27    1
    30    28    27    1
    31    27    29    1
    32    29    30    2
    33    29    34    1
    34    30    31    1
    35    35    34    1
    36    34    33    2
    37    31    32    2
    38    33    32    1
