@<TRIPOS>MOLECULE
7144_out_ligand_01.pdbqt
 33 35 0 0 0
SMALL
GASTEIGER

@<TRIPOS>ATOM
      1  C         22.6190  -23.0160  -10.2480 C.2     1  UNL1        0.2510
      2  O         23.3940  -23.2320   -9.3230 O.2     1  UNL1       -0.2680
      3  N         21.2500  -23.1320  -10.1300 N.am    1  UNL1       -0.3570
      4  H         20.6910  -23.2020  -10.9690 H       1  UNL1        0.1620
      5  C         23.1410  -22.6580  -11.5970 C.2     1  UNL1        0.0320
      6  C         22.3810  -21.7950  -12.3960 C.2     1  UNL1        0.0190
      7  C         22.8330  -21.4280  -13.6670 C.2     1  UNL1        0.0320
      8  C         24.0550  -21.9090  -14.1460 C.2     1  UNL1        0.0530
      9  C         24.7920  -22.8070  -13.3680 C.2     1  UNL1        0.0320
     10  C         24.3420  -23.1760  -12.0950 C.2     1  UNL1        0.0190
     11  N         24.4550  -21.5700  -15.4700 N.am    1  UNL1       -0.2080
     12  S         24.6150  -22.8030  -16.6090 S.O2    1  UNL1        0.2400
     13  C         25.3190  -21.7090  -17.8150 C.3     1  UNL1        0.1770
     14  O         23.3120  -23.2340  -17.0570 O.2     1  UNL1       -0.2050
     15  O         25.6410  -23.7230  -16.1720 O.2     1  UNL1       -0.2050
     16  C         26.0760  -20.6500  -17.0130 C.3     1  UNL1        0.0910
     17  C         26.1930  -19.3380  -17.7700 C.3     1  UNL1        0.0210
     18  C         25.3290  -20.4820  -15.6940 C.2     1  UNL1        0.2420
     19  O         25.5010  -19.5480  -14.9240 O.2     1  UNL1       -0.2720
     20  C         20.6430  -23.6040   -8.8960 C.3     1  UNL1        0.1270
     21  C         20.3730  -22.4790   -7.8900 C.3     1  UNL1        0.0580
     22  C         19.1810  -22.7630   -7.0040 C.2     1  UNL1       -0.0570
     23  C         18.8040  -21.8500   -6.0070 C.2     1  UNL1        0.0090
     24  C         17.6900  -22.0990   -5.2050 C.2     1  UNL1        0.0250
     25  C         16.9520  -23.2680   -5.3970 C.2     1  UNL1        0.0740
     26  C         17.3050  -24.1810   -6.3950 C.2     1  UNL1        0.0250
     27  C         18.4210  -23.9270   -7.1920 C.2     1  UNL1        0.0090
     28  S         15.5330  -23.5970   -4.3870 S.O2    1  UNL1        0.2390
     29  O         15.9420  -24.4280   -3.2810 O.2     1  UNL1       -0.2060
     30  O         14.4250  -23.9390   -5.2500 O.2     1  UNL1       -0.2060
     31  N         15.1830  -22.0630   -3.7890 N.3     1  UNL1       -0.2250
     32  H         16.0150  -21.6930   -3.3240 H       1  UNL1        0.1360
     33  H         14.3670  -22.0440   -3.1790 H       1  UNL1        0.1360
@<TRIPOS>BOND
     1    13    16    1
     2    13    12    1
     3    17    16    1
     4    14    12    2
     5    16    18    1
     6    12    15    2
     7    12    11    1
     8    18    11   am
     9    18    19    2
    10    11     8    1
    11     8     7    2
    12     8     9    1
    13     7     6    1
    14     9    10    2
    15     6     5    2
    16    10     5    1
    17     5     1    1
    18     4     3    1
    19     1     3   am
    20     1     2    2
    21     3    20    1
    22    20    21    1
    23    21    22    1
    24    27    22    2
    25    27    26    1
    26    22    23    1
    27    26    25    2
    28    23    24    2
    29    25    24    1
    30    25    28    1
    31    30    28    2
    32    28    31    1
    33    28    29    2
    34    31    32    1
    35    31    33    1
