@<TRIPOS>MOLECULE
71492_out_ligand_01.pdbqt
 35 37 0 0 0
SMALL
GASTEIGER

@<TRIPOS>ATOM
      1  C         21.2820  -23.2450   -9.8320 C.2     1  UNL1        0.0340
      2  C         20.9650  -24.1540   -8.8090 C.2     1  UNL1        0.0310
      3  C         19.6570  -24.2610   -8.3260 C.2     1  UNL1        0.0270
      4  C         18.6590  -23.4460   -8.8640 C.2     1  UNL1        0.0800
      5  C         18.9660  -22.5030   -9.8510 C.2     1  UNL1        0.0270
      6  C         20.2750  -22.4150  -10.3380 C.2     1  UNL1        0.0310
      7  N         22.6160  -23.2360  -10.2900 N.am    1  UNL1       -0.3250
      8  C         23.5560  -22.2200  -10.1410 C.2     1  UNL1        0.2510
      9  O         23.3690  -21.1720   -9.5210 O.2     1  UNL1       -0.2700
     10  H         22.9010  -24.0380  -10.8480 H       1  UNL1        0.1690
     11  C         24.9210  -22.5550  -10.8060 C.3     1  UNL1        0.2200
     12  C         25.6720  -23.6440  -10.0070 C.3     1  UNL1        0.0380
     13  C         27.0940  -23.9110  -10.5080 C.3     1  UNL1        0.0080
     14  O         25.7660  -21.3970  -10.9090 O.2     1  UNL1       -0.3360
     15  C         25.8330  -20.8430  -12.1630 C.2     1  UNL1        0.0760
     16  C         25.1440  -21.5330  -13.1700 C.2     1  UNL1        0.0440
     17  C         25.1730  -21.0830  -14.4990 C.2     1  UNL1       -0.0590
     18  C         24.5050  -21.8720  -15.5830 C.3     1  UNL1        0.0480
     19  C         25.8900  -19.9210  -14.8000 C.2     1  UNL1        0.0070
     20  C         26.5150  -19.1900  -13.7850 C.2     1  UNL1        0.0100
     21  C         26.4710  -19.6260  -12.4470 C.2     1  UNL1       -0.0290
     22  C         27.1030  -18.7690  -11.3860 C.3     1  UNL1        0.0510
     23  S         16.9930  -23.5650   -8.2670 S.O2    1  UNL1        0.2630
     24  O         16.9080  -24.7250   -7.4010 O.2     1  UNL1       -0.2000
     25  O         16.1100  -23.4280   -9.4130 O.2     1  UNL1       -0.2000
     26  N         16.8060  -22.1410   -7.3790 N.pl3   1  UNL1       -0.2800
     27  H         16.1740  -21.4710   -7.8150 H       1  UNL1        0.1790
     28  C         16.8820  -22.1670   -5.9540 C.2     1  UNL1        0.0540
     29  C         15.7410  -22.4580   -5.1760 C.2     1  UNL1       -0.0340
     30  C         14.3780  -22.7240   -5.7650 C.3     1  UNL1        0.0500
     31  C         15.8700  -22.5300   -3.7750 C.2     1  UNL1        0.0090
     32  C         17.0910  -22.2760   -3.1550 C.2     1  UNL1        0.0010
     33  C         18.1970  -21.9230   -3.9250 C.2     1  UNL1        0.0090
     34  C         18.1040  -21.8380   -5.3270 C.2     1  UNL1       -0.0340
     35  C         19.3330  -21.4040   -6.0800 C.3     1  UNL1        0.0500
@<TRIPOS>BOND
     1    18    17    1
     2    19    17    2
     3    19    20    1
     4    17    16    1
     5    20    21    2
     6    16    15    2
     7    21    15    1
     8    21    22    1
     9    15    14    1
    10    14    11    1
    11    10     7    1
    12    11     8    1
    13    11    12    1
    14    13    12    1
    15     6     5    1
    16     6     1    2
    17     7     8   am
    18     7     1    1
    19     8     9    2
    20     5     4    2
    21     1     2    1
    22    25    23    2
    23     4     3    1
    24     4    23    1
    25     2     3    2
    26    23    24    2
    27    23    26    1
    28    27    26    1
    29    26    28    1
    30    35    34    1
    31    28    34    2
    32    28    29    1
    33    30    29    1
    34    34    33    1
    35    29    31    2
    36    33    32    2
    37    31    32    1
