@<TRIPOS>MOLECULE
7150_out_ligand_01.pdbqt
 29 32 0 0 0
SMALL
GASTEIGER

@<TRIPOS>ATOM
      1  C         21.4890  -21.9910  -11.7160 C.2     1  UNL1        0.0320
      2  C         20.5650  -21.2400  -12.4540 C.2     1  UNL1        0.0180
      3  C         19.2480  -21.1170  -12.0040 C.2     1  UNL1        0.0190
      4  C         18.8530  -21.7250  -10.8050 C.2     1  UNL1        0.0450
      5  C         19.7800  -22.4510  -10.0470 C.2     1  UNL1       -0.0380
      6  C         21.0950  -22.5880  -10.5080 C.2     1  UNL1        0.0250
      7  C         19.3250  -23.1010   -8.7720 C.3     1  UNL1        0.0770
      8  C         18.2250  -22.2350   -8.1550 C.3     1  UNL1        0.1690
      9  O         17.1560  -22.0640   -9.1140 O.3     1  UNL1       -0.3070
     10  C         17.4370  -21.6150  -10.3620 C.2     1  UNL1        0.2940
     11  O         16.5740  -21.1710  -11.1070 O.2     1  UNL1       -0.2590
     12  C         22.9040  -22.1530  -12.1550 C.2     1  UNL1        0.2560
     13  O         23.6120  -22.9350  -11.5330 O.2     1  UNL1       -0.2670
     14  N         23.2600  -21.4130  -13.2680 N.am    1  UNL1       -0.3230
     15  H         22.5200  -20.9200  -13.7500 H       1  UNL1        0.1690
     16  C         24.5340  -21.3420  -13.8750 C.2     1  UNL1        0.0360
     17  C         25.4830  -20.5080  -13.2680 C.2     1  UNL1        0.0290
     18  C         26.7690  -20.3830  -13.7990 C.2     1  UNL1        0.0040
     19  C         27.1190  -21.0950  -14.9440 C.2     1  UNL1        0.0240
     20  C         26.1810  -21.9270  -15.5480 C.2     1  UNL1        0.0360
     21 CL         26.6190  -22.8100  -16.9610 Cl      1  UNL1       -0.0840
     22  C         24.8940  -22.0560  -15.0210 C.2     1  UNL1        0.0530
     23  C         17.6010  -22.7590   -6.8700 C.2     1  UNL1       -0.0280
     24  C         18.1160  -22.4920   -5.5920 C.2     1  UNL1        0.0110
     25  C         17.4840  -22.9910   -4.4470 C.2     1  UNL1        0.0240
     26  C         16.3300  -23.7600   -4.5650 C.2     1  UNL1        0.0340
     27 CL         15.5580  -24.3690   -3.1530 Cl      1  UNL1       -0.0840
     28  C         15.8000  -24.0360   -5.8200 C.2     1  UNL1        0.0240
     29  C         16.4300  -23.5360   -6.9630 C.2     1  UNL1        0.0110
@<TRIPOS>BOND
     1    21    20    1
     2    20    22    1
     3    20    19    2
     4    22    16    2
     5    19    18    1
     6    16    17    1
     7    16    14    1
     8    18    17    2
     9    15    14    1
    10    14    12   am
    11     2     3    1
    12     2     1    2
    13    12     1    1
    14    12    13    2
    15     3     4    2
    16     1     6    1
    17    11    10    2
    18     4    10    1
    19     4     5    1
    20     6     5    2
    21    10     9    1
    22     5     7    1
    23     9     8    1
    24     7     8    1
    25     8    23    1
    26    29    23    2
    27    29    28    1
    28    23    24    1
    29    28    26    2
    30    24    25    2
    31    26    25    1
    32    26    27    1
