@<TRIPOS>MOLECULE
7158_out_ligand_01.pdbqt
 31 34 0 0 0
SMALL
GASTEIGER

@<TRIPOS>ATOM
      1  C         24.2820  -21.5870  -11.1150 C.2     1  UNL1        0.0550
      2  C         23.3980  -21.6530  -10.0150 C.2     1  UNL1        0.0480
      3  C         22.0450  -21.9300  -10.1980 C.2     1  UNL1        0.0360
      4  C         21.5730  -22.1360  -11.4960 C.2     1  UNL1        0.0310
      5  C         22.4370  -22.0610  -12.5930 C.2     1  UNL1        0.0270
      6  C         23.8070  -21.7920  -12.4350 C.2     1  UNL1        0.0260
      7  N         21.1000  -22.0300   -9.1520 N.am    1  UNL1       -0.3230
      8  C         20.6660  -23.1810   -8.5190 C.2     1  UNL1        0.2560
      9  O         21.0730  -24.3200   -8.7090 O.2     1  UNL1       -0.2670
     10  H         20.7510  -21.1520   -8.7960 H       1  UNL1        0.1690
     11  C         19.6230  -22.9740   -7.4730 C.2     1  UNL1        0.0350
     12  C         19.6900  -21.8160   -6.6860 C.2     1  UNL1        0.0200
     13  C         18.7450  -21.5920   -5.6830 C.2     1  UNL1        0.0400
     14  C         17.7160  -22.5110   -5.4730 C.2     1  UNL1        0.1020
     15  C         17.6520  -23.6730   -6.2470 C.2     1  UNL1        0.1030
     16  O         16.8840  -22.2620   -4.4180 O.2     1  UNL1       -0.3480
     17  C         18.6160  -23.9170   -7.2300 C.2     1  UNL1        0.0560
     18  O         16.7460  -24.6750   -6.0280 O.2     1  UNL1       -0.3480
     19  C         15.3970  -24.2400   -6.1970 C.3     1  UNL1        0.1780
     20  C         14.8650  -23.5230   -4.9670 C.3     1  UNL1        0.0530
     21  C         15.5160  -22.1580   -4.8100 C.3     1  UNL1        0.1780
     22  C         25.7150  -21.3130  -10.7850 C.2     1  UNL1        0.2510
     23  N         26.5330  -22.3940  -10.6130 N.am    1  UNL1       -0.3660
     24  H         26.2020  -23.2890  -10.9680 H       1  UNL1        0.1590
     25  H         27.5250  -22.2190  -10.5570 H       1  UNL1        0.1590
     26  O         26.1570  -20.1770  -10.6640 O.2     1  UNL1       -0.2680
     27  N         24.6560  -21.6580  -13.5560 N.pl3   1  UNL1       -0.2830
     28  C         24.1150  -20.6780  -14.5280 C.3     1  UNL1        0.0960
     29  C         24.6100  -21.1820  -15.8790 C.3     1  UNL1        0.0160
     30  C         24.5470  -22.6880  -15.7040 C.3     1  UNL1        0.0160
     31  C         25.0580  -22.8810  -14.2800 C.3     1  UNL1        0.0960
@<TRIPOS>BOND
     1    29    30    1
     2    29    28    1
     3    30    31    1
     4    28    27    1
     5    31    27    1
     6    27     6    1
     7     5     6    1
     8     5     4    2
     9     6     1    2
    10     4     3    1
    11     1    22    1
    12     1     2    1
    13    24    23    1
    14    22    26    2
    15    22    23   am
    16    23    25    1
    17     3     2    2
    18     3     7    1
    19     7    10    1
    20     7     8   am
    21     9     8    2
    22     8    11    1
    23    11    17    2
    24    11    12    1
    25    17    15    1
    26    12    13    2
    27    15    18    1
    28    15    14    2
    29    19    18    1
    30    19    20    1
    31    13    14    1
    32    14    16    1
    33    20    21    1
    34    21    16    1
