@<TRIPOS>MOLECULE
715_out_ligand_01.pdbqt
 36 38 0 0 0
SMALL
GASTEIGER

@<TRIPOS>ATOM
      1  C         20.1570  -23.1940   -9.7240 C.2     1  UNL1        0.0330
      2  C         20.2060  -22.2970  -10.7950 C.2     1  UNL1        0.0170
      3  C         19.0380  -21.6580  -11.2160 C.2     1  UNL1        0.0030
      4  C         17.8300  -21.9110  -10.5640 C.2     1  UNL1        0.0250
      5  C         17.7970  -22.8060   -9.4880 C.2     1  UNL1        0.0750
      6  C         18.9620  -23.4400   -9.0460 C.2     1  UNL1        0.0410
      7  C         21.3830  -23.8730   -9.2620 C.2     1  UNL1        0.2530
      8  N         22.5740  -23.1480   -9.2130 N.am    1  UNL1       -0.3440
      9  C         23.8010  -23.8530   -8.8690 C.3     1  UNL1        0.1530
     10  O         21.2900  -25.0540   -8.9440 O.2     1  UNL1       -0.2670
     11  C         22.7240  -21.7610   -9.6910 C.3     1  UNL1        0.2280
     12  C         23.7720  -21.5810  -10.8040 C.2     1  UNL1        0.2400
     13  N         23.3970  -22.1480  -12.0090 N.am    1  UNL1       -0.3260
     14  H         22.4850  -22.5930  -12.0070 H       1  UNL1        0.1690
     15  O         24.8190  -20.9830  -10.5740 O.2     1  UNL1       -0.2710
     16  C         24.1210  -22.1970  -13.2150 C.2     1  UNL1        0.0370
     17  C         25.1610  -23.1330  -13.2900 C.2     1  UNL1        0.0290
     18  C         25.9340  -23.2410  -14.4450 C.2     1  UNL1        0.0050
     19  C         25.6700  -22.4140  -15.5340 C.2     1  UNL1        0.0370
     20  C         24.6340  -21.4790  -15.4780 C.2     1  UNL1        0.0700
     21  C         23.8630  -21.3730  -14.3160 C.2     1  UNL1        0.0660
     22  O         24.4820  -20.7320  -16.6160 O.2     1  UNL1       -0.3560
     23  C         24.8860  -21.3360  -17.8400 C.3     1  UNL1        0.2100
     24  S         16.2680  -23.1090   -8.6290 S.O2    1  UNL1        0.2460
     25  O         16.3790  -24.4000   -7.9830 O.2     1  UNL1       -0.2060
     26  O         15.1930  -22.8020   -9.5450 O.2     1  UNL1       -0.2060
     27  N         16.3860  -21.9370   -7.3950 N.pl3   1  UNL1       -0.1790
     28  H         17.3080  -21.5040   -7.5250 H       1  UNL1        0.1460
     29  C         16.3090  -22.4710   -6.0620 C.2     1  UNL1        0.0560
     30  C         15.0890  -22.9560   -5.5890 C.2     1  UNL1        0.0270
     31  C         15.0220  -23.5330   -4.3210 C.2     1  UNL1        0.0020
     32  C         16.1740  -23.6310   -3.5390 C.2     1  UNL1        0.0030
     33  C         17.4010  -23.1600   -4.0190 C.2     1  UNL1        0.0380
     34  C         17.4770  -22.5900   -5.2910 C.2     1  UNL1        0.0900
     35  O         18.6210  -22.0820   -5.8540 O.2     1  UNL1       -0.3540
     36  C         19.1090  -20.8790   -5.2670 C.3     1  UNL1        0.2100
@<TRIPOS>BOND
     1    23    22    1
     2    22    20    1
     3    19    20    2
     4    19    18    1
     5    20    21    1
     6    18    17    2
     7    21    16    2
     8    17    16    1
     9    16    13    1
    10    13    14    1
    11    13    12   am
    12     3     2    1
    13     3     4    2
    14    12    15    2
    15    12    11    1
    16     2     1    2
    17     4     5    1
    18     1     7    1
    19     1     6    1
    20    11     8    1
    21    26    24    2
    22     5     6    2
    23     5    24    1
    24     7     8   am
    25     7    10    2
    26     8     9    1
    27    24    25    2
    28    24    27    1
    29    28    27    1
    30    27    29    1
    31    29    30    2
    32    29    34    1
    33    35    34    1
    34    35    36    1
    35    30    31    1
    36    34    33    2
    37    31    32    2
    38    33    32    1
