@<TRIPOS>MOLECULE
7160_out_ligand_01.pdbqt
 29 32 0 0 0
SMALL
GASTEIGER

@<TRIPOS>ATOM
      1  C         17.0990  -22.5890  -10.1240 C.2     1  UNL1       -0.0280
      2  C         16.9220  -21.3580  -10.7730 C.2     1  UNL1        0.0090
      3  C         17.9990  -20.7140  -11.3830 C.2     1  UNL1        0.0030
      4  C         19.2690  -21.2900  -11.3470 C.2     1  UNL1        0.0370
      5  C         19.4570  -22.5160  -10.7070 C.2     1  UNL1        0.0800
      6  C         18.3820  -23.1540  -10.0810 C.2     1  UNL1        0.0460
      7  O         20.6880  -23.1110  -10.5780 O.3     1  UNL1       -0.2760
      8  C         21.6810  -22.5190   -9.9190 C.ar    1  UNL1        0.2860
      9  N         21.7240  -22.2700   -8.6270 N.ar    1  UNL1       -0.1160
     10  N         22.8980  -21.6060   -8.4070 N.ar    1  UNL1        0.0200
     11  N         23.5670  -21.4320   -9.5360 N.ar    1  UNL1        0.0040
     12  N         22.8220  -22.0080  -10.5180 N.ar    1  UNL1       -0.2020
     13  C         23.2650  -22.0180  -11.8690 C.2     1  UNL1        0.0580
     14  C         24.3770  -22.7640  -12.2800 C.2     1  UNL1        0.0310
     15  C         24.7800  -22.7450  -13.6200 C.2     1  UNL1        0.0020
     16  C         24.0790  -21.9860  -14.5560 C.2     1  UNL1        0.0000
     17  C         22.9750  -21.2390  -14.1560 C.2     1  UNL1        0.0020
     18  C         22.5680  -21.2520  -12.8200 C.2     1  UNL1        0.0310
     19  C         15.9340  -23.2710   -9.4480 C.3     1  UNL1        0.3080
     20  N         15.8960  -22.9310   -8.0280 N.3     1  UNL1        0.0870
     21  H         16.6150  -22.2370   -7.8290 H       1  UNL1        0.3160
     22  C         16.0630  -24.0960   -7.1560 C.3     1  UNL1        0.2740
     23  C         17.5080  -24.3100   -6.6720 C.3     1  UNL1        0.0640
     24  C         18.0620  -23.1080   -5.9380 C.2     1  UNL1       -0.0820
     25  C         19.0040  -22.3190   -6.4870 C.2     1  UNL1       -0.0240
     26  C         19.5460  -21.0840   -5.8280 C.3     1  UNL1        0.0270
     27  C         18.7020  -20.6130   -4.6440 C.3     1  UNL1        0.0040
     28  C         18.2780  -21.7880   -3.7710 C.3     1  UNL1        0.0050
     29  C         17.4770  -22.8170   -4.5740 C.3     1  UNL1        0.0340
@<TRIPOS>BOND
     1    16    17    2
     2    16    15    1
     3    17    18    1
     4    15    14    2
     5    18    13    2
     6    14    13    1
     7    13    12    1
     8     3     4    2
     9     3     2    1
    10     4     5    1
    11     2     1    2
    12     5     7    1
    13     5     6    2
    14     7     8    1
    15    12     8   ar
    16    12    11   ar
    17     1     6    1
    18     1    19    1
    19     8     9   ar
    20    11    10   ar
    21    19    20    1
    22     9    10   ar
    23    20    21    1
    24    20    22    1
    25    22    23    1
    26    23    24    1
    27    25    24    2
    28    25    26    1
    29    24    29    1
    30    26    27    1
    31    27    28    1
    32    29    28    1
