@<TRIPOS>MOLECULE
71614_out_ligand_01.pdbqt
 35 38 0 0 0
SMALL
GASTEIGER

@<TRIPOS>ATOM
      1  C         15.6180  -22.2970   -9.7740 C.3     1  UNL1        0.0500
      2  C         17.0810  -22.6360   -9.7150 C.2     1  UNL1       -0.0390
      3  C         17.9290  -22.1100  -10.7040 C.2     1  UNL1        0.0090
      4  C         19.3020  -22.3670  -10.6890 C.2     1  UNL1        0.0170
      5  C         19.8630  -23.1420   -9.6710 C.2     1  UNL1        0.0330
      6  C         19.0370  -23.6850   -8.6820 C.2     1  UNL1        0.0420
      7  C         17.6550  -23.4330   -8.7030 C.2     1  UNL1        0.0810
      8  C         21.3310  -23.3870   -9.6920 C.2     1  UNL1        0.2510
      9  O         21.7760  -24.4590   -9.2990 O.2     1  UNL1       -0.2680
     10  N         22.1110  -22.3700  -10.1970 N.am    1  UNL1       -0.3530
     11  H         21.6690  -21.6270  -10.7200 H       1  UNL1        0.1630
     12  C         23.5320  -22.5430  -10.4010 C.3     1  UNL1        0.1610
     13  C         23.8720  -22.5040  -11.8690 C.2     1  UNL1       -0.0400
     14  C         23.1620  -21.6660  -12.7360 C.2     1  UNL1        0.0110
     15  C         23.4840  -21.6060  -14.0950 C.2     1  UNL1        0.0300
     16  C         24.5370  -22.3750  -14.6140 C.2     1  UNL1        0.0400
     17  C         25.2440  -23.2180  -13.7480 C.2     1  UNL1        0.0300
     18  C         24.9170  -23.2750  -12.3880 C.2     1  UNL1        0.0110
     19  N         24.8450  -22.3060  -16.0070 N.pl3   1  UNL1       -0.3090
     20  C         24.4600  -23.2440  -16.9480 C.2     1  UNL1        0.1180
     21  C         25.0140  -22.8540  -18.1400 C.2     1  UNL1        0.1360
     22  N         25.6940  -21.6860  -17.9910 N.2     1  UNL1       -0.2460
     23  C         25.5590  -21.3420  -16.7210 C.2     1  UNL1        0.1060
     24  C         26.0280  -20.0340  -16.1940 C.3     1  UNL1        0.0910
     25  S         16.6660  -24.1510   -7.3950 S.O2    1  UNL1        0.2460
     26  O         17.5570  -24.8820   -6.5220 O.2     1  UNL1       -0.2060
     27  O         15.5210  -24.7850   -8.0160 O.2     1  UNL1       -0.2060
     28  N         16.0790  -22.7470   -6.6250 N.pl3   1  UNL1       -0.1810
     29  H         15.1220  -22.9350   -6.3230 H       1  UNL1        0.1460
     30  C         16.8870  -22.3060   -5.5250 C.2     1  UNL1        0.0220
     31  C         16.5260  -22.6360   -4.2180 C.2     1  UNL1        0.0240
     32  C         17.3360  -22.2360   -3.1540 C.2     1  UNL1        0.0020
     33  C         18.5090  -21.5210   -3.3980 C.2     1  UNL1        0.0000
     34  C         18.8760  -21.2090   -4.7070 C.2     1  UNL1        0.0020
     35  C         18.0670  -21.6080   -5.7720 C.2     1  UNL1        0.0240
@<TRIPOS>BOND
     1    21    22    1
     2    21    20    2
     3    22    23    2
     4    20    19    1
     5    23    24    1
     6    23    19    1
     7    19    16    1
     8    16    15    2
     9    16    17    1
    10    15    14    1
    11    17    18    2
    12    14    13    2
    13    18    13    1
    14    13    12    1
    15    11    10    1
    16     3     4    1
    17     3     2    2
    18     4     5    2
    19    12    10    1
    20    10     8   am
    21     1     2    1
    22     2     7    1
    23     8     5    1
    24     8     9    2
    25     5     6    1
    26     7     6    2
    27     7    25    1
    28    27    25    2
    29    25    28    1
    30    25    26    2
    31    28    29    1
    32    28    30    1
    33    35    30    2
    34    35    34    1
    35    30    31    1
    36    34    33    2
    37    31    32    2
    38    33    32    1
