@<TRIPOS>MOLECULE
7161_out_ligand_01.pdbqt
 31 34 0 0 0
SMALL
GASTEIGER

@<TRIPOS>ATOM
      1  C         19.5100  -22.6690  -10.1690 C.2     1  UNL1       -0.0330
      2  C         20.5590  -23.3690   -9.5560 C.2     1  UNL1        0.0120
      3  C         21.8900  -23.0760   -9.8710 C.2     1  UNL1        0.0180
      4  C         22.1850  -22.0910  -10.8200 C.2     1  UNL1        0.0320
      5  C         21.1420  -21.3900  -11.4340 C.2     1  UNL1        0.0180
      6  C         19.8130  -21.6850  -11.1180 C.2     1  UNL1        0.0120
      7  C         18.1030  -22.9730   -9.8820 C.2     1  UNL1        0.0540
      8  C         17.5210  -22.8900   -8.6710 C.2     1  UNL1        0.1440
      9  O         18.2370  -22.4820   -7.5520 O.2     1  UNL1       -0.3030
     10  C         16.0630  -23.2360   -8.5810 C.2     1  UNL1        0.2800
     11  C         17.5770  -22.4040   -6.3530 C.2     1  UNL1        0.1030
     12  C         18.3110  -21.9890   -5.2420 C.2     1  UNL1        0.0390
     13  C         16.2270  -22.7190   -6.2200 C.2     1  UNL1        0.0690
     14  C         17.6890  -21.8930   -3.9970 C.2     1  UNL1        0.0030
     15  C         16.3360  -22.2120   -3.8650 C.2     1  UNL1        0.0020
     16  C         15.6010  -22.6260   -4.9780 C.2     1  UNL1        0.0320
     17  N         15.5040  -23.1280   -7.3380 N.am    1  UNL1       -0.3190
     18  H         14.5240  -23.3590   -7.2670 H       1  UNL1        0.1690
     19  O         15.3930  -23.5970   -9.5450 O.2     1  UNL1       -0.2650
     20  C         23.5860  -21.7440  -11.1870 C.2     1  UNL1        0.2520
     21  O         24.3640  -21.3360  -10.3320 O.2     1  UNL1       -0.2680
     22  N         23.9160  -21.8750  -12.5220 N.am    1  UNL1       -0.3520
     23  H         23.1610  -21.9520  -13.1890 H       1  UNL1        0.1630
     24  C         25.2110  -21.4400  -13.0100 C.3     1  UNL1        0.0840
     25  C         25.0860  -20.4010  -14.2040 C.3     1  UNL1        0.0250
     26  C         24.8900  -21.0210  -15.6500 C.3     1  UNL1        0.0020
     27  C         26.0330  -21.7620  -16.4830 C.3     1  UNL1        0.0000
     28  C         27.1210  -22.8540  -16.0730 C.3     1  UNL1        0.0000
     29  C         26.8360  -24.1210  -15.1650 C.3     1  UNL1        0.0000
     30  C         26.6120  -23.8410  -13.6280 C.3     1  UNL1        0.0020
     31  C         25.9470  -22.5220  -13.7030 C.3     1  UNL1        0.0250
@<TRIPOS>BOND
     1    27    28    1
     2    27    26    1
     3    28    29    1
     4    26    25    1
     5    29    30    1
     6    25    24    1
     7    31    30    1
     8    31    24    1
     9    23    22    1
    10    24    22    1
    11    22    20   am
    12     5     6    1
    13     5     4    2
    14    20     4    1
    15    20    21    2
    16     6     1    2
    17     4     3    1
    18     1     7    1
    19     1     2    1
    20     7     8    2
    21     3     2    2
    22    19    10    2
    23     8    10    1
    24     8     9    1
    25    10    17   am
    26     9    11    1
    27    17    18    1
    28    17    13    1
    29    11    13    2
    30    11    12    1
    31    13    16    1
    32    12    14    2
    33    16    15    2
    34    14    15    1
