@<TRIPOS>MOLECULE
71626_out_ligand_01.pdbqt
 32 34 0 0 0
SMALL
GASTEIGER

@<TRIPOS>ATOM
      1  C         21.2500  -22.4630  -10.6820 C.2     1  UNL1        0.0810
      2  C         19.9130  -22.5220  -10.2610 C.2     1  UNL1        0.0420
      3  C         18.9150  -21.8560  -10.9830 C.2     1  UNL1        0.0330
      4  C         19.2660  -21.1010  -12.1050 C.2     1  UNL1        0.0170
      5  C         20.6000  -21.0350  -12.5190 C.2     1  UNL1        0.0090
      6  C         21.6110  -21.7210  -11.8240 C.2     1  UNL1       -0.0390
      7  C         23.0270  -21.5900  -12.3150 C.3     1  UNL1        0.0500
      8  C         17.5080  -21.9540  -10.5050 C.2     1  UNL1        0.2520
      9  O         16.7020  -21.0730  -10.7860 O.2     1  UNL1       -0.2680
     10  N         17.2020  -23.0420   -9.7190 N.am    1  UNL1       -0.3490
     11  H         17.9490  -23.6100   -9.3440 H       1  UNL1        0.1630
     12  C         15.8850  -23.2070   -9.1220 C.3     1  UNL1        0.1140
     13  C         15.1270  -24.3830   -9.7450 C.3     1  UNL1        0.0370
     14  C         16.0300  -23.3480   -7.6160 C.2     1  UNL1       -0.0360
     15  C         16.8510  -24.3310   -7.0410 C.2     1  UNL1        0.0100
     16  C         16.9890  -24.4250   -5.6540 C.2     1  UNL1        0.0070
     17  C         16.3090  -23.5410   -4.8120 C.2     1  UNL1       -0.0620
     18  C         16.4800  -23.6220   -3.3240 C.3     1  UNL1        0.0480
     19  C         15.5090  -22.5440   -5.3780 C.2     1  UNL1        0.0070
     20  C         15.3700  -22.4500   -6.7650 C.2     1  UNL1        0.0100
     21  S         22.4660  -23.3440   -9.7070 S.O2    1  UNL1        0.2460
     22  O         21.7950  -24.4330   -9.0340 O.2     1  UNL1       -0.2060
     23  O         23.6310  -23.5640  -10.5370 O.2     1  UNL1       -0.2060
     24  N         22.9060  -22.1300   -8.5870 N.pl3   1  UNL1       -0.1810
     25  H         23.7330  -22.4680   -8.0920 H       1  UNL1        0.1460
     26  C         21.8650  -21.8010   -7.6560 C.2     1  UNL1        0.0220
     27  C         22.0160  -20.7030   -6.8120 C.2     1  UNL1        0.0250
     28  C         20.9900  -20.3550   -5.9310 C.2     1  UNL1        0.0080
     29  C         19.7990  -21.0920   -5.9020 C.2     1  UNL1       -0.0620
     30  C         18.7110  -20.7230   -4.9380 C.3     1  UNL1        0.0480
     31  C         19.6540  -22.1880   -6.7600 C.2     1  UNL1        0.0080
     32  C         20.6800  -22.5370   -7.6430 C.2     1  UNL1        0.0250
@<TRIPOS>BOND
     1     5     4    2
     2     5     6    1
     3     7     6    1
     4     4     3    1
     5     6     1    2
     6     3     8    1
     7     3     2    2
     8     9     8    2
     9     1     2    1
    10     1    21    1
    11    23    21    2
    12     8    10   am
    13    13    12    1
    14    10    11    1
    15    10    12    1
    16    21    22    2
    17    21    24    1
    18    12    14    1
    19    24    25    1
    20    24    26    1
    21    26    32    2
    22    26    27    1
    23    32    31    1
    24    14    15    2
    25    14    20    1
    26    15    16    1
    27    27    28    2
    28    20    19    2
    29    31    29    2
    30    28    29    1
    31    29    30    1
    32    16    17    2
    33    19    17    1
    34    17    18    1
