@<TRIPOS>MOLECULE
71647_out_ligand_01.pdbqt
 32 34 0 0 0
SMALL
GASTEIGER

@<TRIPOS>ATOM
      1  C         19.7540  -23.3340   -9.6200 C.2     1  UNL1        0.0330
      2  C         19.2230  -22.5100  -10.6100 C.2     1  UNL1        0.0170
      3  C         17.8490  -22.2710  -10.6430 C.2     1  UNL1        0.0090
      4  C         16.9850  -22.8200   -9.6730 C.2     1  UNL1       -0.0390
      5  C         15.5160  -22.5280   -9.8010 C.3     1  UNL1        0.0500
      6  C         17.5470  -23.6100   -8.6500 C.2     1  UNL1        0.0860
      7  C         18.9270  -23.8770   -8.6380 C.2     1  UNL1        0.0420
      8  S         16.6040  -24.3600   -7.3260 S.O2    1  UNL1        0.2630
      9  O         15.4630  -25.0640   -7.8670 O.2     1  UNL1       -0.2000
     10  O         17.5570  -25.0560   -6.4830 O.2     1  UNL1       -0.2000
     11  N         16.0790  -23.0320   -6.4260 N.pl3   1  UNL1       -0.2800
     12  H         15.0770  -23.0530   -6.2500 H       1  UNL1        0.1790
     13  C         16.9280  -22.4310   -5.4510 C.2     1  UNL1        0.0490
     14  C         17.9900  -21.6200   -5.8700 C.2     1  UNL1        0.0370
     15  C         18.8620  -21.0370   -4.9440 C.2     1  UNL1       -0.0600
     16  C         19.9830  -20.1560   -5.4070 C.3     1  UNL1        0.0480
     17  C         18.6350  -21.2420   -3.5810 C.2     1  UNL1        0.0070
     18  C         17.5620  -22.0280   -3.1530 C.2     1  UNL1        0.0090
     19  C         16.6920  -22.6260   -4.0800 C.2     1  UNL1       -0.0350
     20  C         15.5410  -23.4450   -3.5680 C.3     1  UNL1        0.0500
     21  C         21.2100  -23.5700   -9.5300 C.2     1  UNL1        0.2530
     22  N         22.0840  -22.5950   -9.9990 N.am    1  UNL1       -0.3480
     23  C         21.6740  -21.3850  -10.7000 C.3     1  UNL1        0.1530
     24  O         21.5670  -24.6360   -9.0300 O.2     1  UNL1       -0.2670
     25  C         23.4940  -22.7040   -9.6310 C.3     1  UNL1        0.1640
     26  C         24.4040  -22.4360  -10.8060 C.2     1  UNL1       -0.0400
     27  C         24.3310  -23.2200  -11.9650 C.2     1  UNL1        0.0090
     28  C         25.1650  -22.9540  -13.0540 C.2     1  UNL1        0.0070
     29  C         26.0780  -21.8930  -13.0090 C.2     1  UNL1       -0.0620
     30  C         26.9910  -21.6360  -14.1710 C.3     1  UNL1        0.0480
     31  C         26.1560  -21.1120  -11.8510 C.2     1  UNL1        0.0070
     32  C         25.3220  -21.3760  -10.7610 C.2     1  UNL1        0.0090
@<TRIPOS>BOND
     1    30    29    1
     2    28    29    2
     3    28    27    1
     4    29    31    1
     5    27    26    2
     6    31    32    2
     7    26    32    1
     8    26    25    1
     9    23    22    1
    10     3     2    1
    11     3     4    2
    12     2     1    2
    13    22    25    1
    14    22    21   am
    15     5     4    1
    16     4     6    1
    17     1    21    1
    18     1     7    1
    19    21    24    2
    20     6     7    2
    21     6     8    1
    22     9     8    2
    23     8    10    2
    24     8    11    1
    25    11    12    1
    26    11    13    1
    27    14    13    2
    28    14    15    1
    29    13    19    1
    30    16    15    1
    31    15    17    2
    32    19    20    1
    33    19    18    2
    34    17    18    1
