@<TRIPOS>MOLECULE
71654_out_ligand_01.pdbqt
 42 46 0 0 0
SMALL
GASTEIGER

@<TRIPOS>ATOM
      1  N         21.6380  -22.6080  -10.5830 N.am    1  UNL1       -0.3230
      2  C         21.9020  -23.1410   -9.3340 C.2     1  UNL1        0.2560
      3  O         22.9360  -23.6870   -8.9710 O.2     1  UNL1       -0.2670
      4  H         20.6880  -22.3120  -10.7640 H       1  UNL1        0.1690
      5  C         20.7740  -23.0560   -8.3630 C.2     1  UNL1        0.0320
      6  C         19.9040  -24.1310   -8.1440 C.2     1  UNL1        0.0170
      7  C         18.8530  -24.0040   -7.2300 C.2     1  UNL1        0.0110
      8  C         18.6400  -22.7980   -6.5360 C.2     1  UNL1       -0.0250
      9  C         19.5160  -21.7260   -6.7720 C.2     1  UNL1        0.0110
     10  C         20.5680  -21.8510   -7.6840 C.2     1  UNL1        0.0170
     11  C         17.5030  -22.6400   -5.5470 C.3     1  UNL1        0.1830
     12  S         17.7850  -23.6340   -4.0620 S.3     1  UNL1       -0.1300
     13  C         16.1100  -24.2960   -4.0300 C.3     1  UNL1        0.1790
     14  C         15.3970  -23.7820   -5.2560 C.2     1  UNL1        0.2300
     15  O         14.2160  -24.0250   -5.4870 O.2     1  UNL1       -0.2730
     16  N         16.2090  -23.0180   -6.0760 N.am    1  UNL1       -0.3340
     17  C         15.6380  -22.3070   -7.2200 C.3     1  UNL1        0.1320
     18  C         15.6300  -23.1530   -8.4980 C.3     1  UNL1        0.0580
     19  C         16.4690  -22.5210   -9.5800 C.2     1  UNL1       -0.0570
     20  C         16.2650  -21.1860   -9.9520 C.2     1  UNL1        0.0070
     21  C         17.0650  -20.5970  -10.9330 C.2     1  UNL1        0.0010
     22  C         18.0750  -21.3360  -11.5480 C.2     1  UNL1        0.0000
     23  C         18.2880  -22.6630  -11.1810 C.2     1  UNL1        0.0010
     24  C         17.4900  -23.2540  -10.1990 C.2     1  UNL1        0.0070
     25  C         22.5270  -22.4970  -11.6730 C.2     1  UNL1        0.0350
     26  C         23.7210  -23.2170  -11.7830 C.2     1  UNL1        0.0310
     27  C         24.5570  -23.0410  -12.8900 C.2     1  UNL1        0.0270
     28  C         24.1960  -22.1460  -13.8970 C.2     1  UNL1        0.0800
     29  C         23.0180  -21.4090  -13.7960 C.2     1  UNL1        0.0270
     30  C         22.1850  -21.5910  -12.6870 C.2     1  UNL1        0.0310
     31  S         25.2960  -21.8860  -15.2690 S.O2    1  UNL1        0.2760
     32  O         24.4850  -21.3600  -16.3510 O.2     1  UNL1       -0.2000
     33  O         26.0880  -23.0800  -15.4760 O.2     1  UNL1       -0.2000
     34  N         26.2550  -20.6280  -14.7720 N.pl3   1  UNL1       -0.1090
     35  H         26.0710  -20.3250  -13.8220 H       1  UNL1        0.1980
     36  C         26.4450  -19.5740  -15.6550 C.cat   1  UNL1        0.7360
     37  N         26.6460  -19.8310  -16.9460 N.2     1  UNL1       -0.0740
     38  C         26.9620  -18.7660  -17.7020 C.2     1  UNL1        0.1380
     39  C         27.1180  -17.4960  -17.1960 C.2     1  UNL1        0.0470
     40  C         26.9420  -17.3580  -15.8330 C.2     1  UNL1        0.0510
     41  C         27.1150  -16.0190  -15.1800 C.3     1  UNL1        0.0710
     42  N         26.6210  -18.4000  -15.0400 N.2     1  UNL1       -0.0670
@<TRIPOS>BOND
     1    38    39    2
     2    38    37    1
     3    39    40    1
     4    37    36    2
     5    32    31    2
     6    40    41    1
     7    40    42    2
     8    36    42    1
     9    36    34    1
    10    33    31    2
    11    31    34    1
    12    31    28    1
    13    34    35    1
    14    28    29    2
    15    28    27    1
    16    29    30    1
    17    27    26    2
    18    30    25    2
    19    26    25    1
    20    25     1    1
    21    22    23    2
    22    22    21    1
    23    23    24    1
    24    21    20    2
    25     4     1    1
    26     1     2   am
    27    24    19    2
    28    20    19    1
    29    19    18    1
    30     2     3    2
    31     2     5    1
    32    18    17    1
    33     5     6    2
    34     5    10    1
    35     6     7    1
    36    10     9    2
    37     7     8    2
    38    17    16    1
    39     9     8    1
    40     8    11    1
    41    16    11    1
    42    16    14   am
    43    11    12    1
    44    15    14    2
    45    14    13    1
    46    12    13    1
