@<TRIPOS>MOLECULE
71667_out_ligand_01.pdbqt
 34 37 0 0 0
SMALL
GASTEIGER

@<TRIPOS>ATOM
      1  C         20.2440  -24.8310   -9.3430 C.3     1  UNL1        0.0510
      2  C         20.2270  -23.6550   -8.4010 C.2     1  UNL1       -0.0240
      3  C         19.2350  -23.4930   -7.4170 C.2     1  UNL1        0.0290
      4  C         19.2790  -22.4130   -6.5240 C.2     1  UNL1        0.0250
      5  C         20.2980  -21.4680   -6.5970 C.2     1  UNL1        0.0030
      6  C         21.2930  -21.6070   -7.5570 C.2     1  UNL1        0.0180
      7  C         21.2610  -22.6920   -8.4500 C.2     1  UNL1        0.0400
      8  C         22.3820  -22.8100   -9.4230 C.2     1  UNL1        0.2560
      9  O         23.4490  -23.2630   -9.0350 O.2     1  UNL1       -0.2670
     10  N         22.0560  -22.3900  -10.6990 N.am    1  UNL1       -0.3230
     11  H         21.0970  -22.1070  -10.8580 H       1  UNL1        0.1690
     12  C         22.9050  -22.3420  -11.8240 C.2     1  UNL1        0.0350
     13  C         22.5140  -21.5360  -12.8940 C.2     1  UNL1        0.0320
     14  C         23.3100  -21.4310  -14.0440 C.2     1  UNL1        0.0320
     15  C         24.5190  -22.1240  -14.1590 C.2     1  UNL1        0.0370
     16  C         24.8990  -22.9310  -13.0770 C.2     1  UNL1        0.0320
     17  C         24.1040  -23.0400  -11.9250 C.2     1  UNL1        0.0320
     18  N         25.3390  -22.0250  -15.3160 N.am    1  UNL1       -0.3180
     19  C         26.0210  -20.8050  -15.6850 C.3     1  UNL1        0.1330
     20  C         27.0270  -21.2360  -16.7280 C.3     1  UNL1        0.0290
     21  C         26.3470  -22.4060  -17.4100 C.3     1  UNL1        0.1050
     22  C         25.5010  -23.0030  -16.3100 C.2     1  UNL1        0.2240
     23  O         25.0360  -24.1310  -16.3750 O.2     1  UNL1       -0.2730
     24  N         18.1760  -24.4450   -7.2120 N.pl3   1  UNL1       -0.1810
     25  H         18.0640  -24.6890   -6.2280 H       1  UNL1        0.1460
     26  S         16.6470  -23.9260   -7.7740 S.O2    1  UNL1        0.2450
     27  O         16.8930  -22.8000   -8.6500 O.2     1  UNL1       -0.2060
     28  O         15.8470  -25.0620   -8.1780 O.2     1  UNL1       -0.2060
     29  C         15.9510  -23.3010   -6.2620 C.2     1  UNL1        0.0740
     30  C         14.9500  -22.3270   -6.3000 C.2     1  UNL1        0.0250
     31  C         14.4070  -21.8590   -5.1030 C.2     1  UNL1        0.0020
     32  C         14.8600  -22.3660   -3.8830 C.2     1  UNL1        0.0000
     33  C         15.8540  -23.3460   -3.8520 C.2     1  UNL1        0.0020
     34  C         16.4030  -23.8190   -5.0440 C.2     1  UNL1        0.0250
@<TRIPOS>BOND
     1    21    20    1
     2    21    22    1
     3    20    19    1
     4    23    22    2
     5    22    18   am
     6    19    18    1
     7    18    15    1
     8    15    14    2
     9    15    16    1
    10    14    13    1
    11    16    17    2
    12    13    12    2
    13    17    12    1
    14    12    10    1
    15    11    10    1
    16    10     8   am
    17     8     9    2
    18     8     7    1
    19     1     2    1
    20    27    26    2
    21     7     2    2
    22     7     6    1
    23     2     3    1
    24    28    26    2
    25    26    24    1
    26    26    29    1
    27     6     5    2
    28     3    24    1
    29     3     4    2
    30    24    25    1
    31     5     4    1
    32    30    29    2
    33    30    31    1
    34    29    34    1
    35    31    32    2
    36    34    33    2
    37    32    33    1
