@<TRIPOS>MOLECULE
7167_out_ligand_01.pdbqt
 34 38 0 0 0
SMALL
GASTEIGER

@<TRIPOS>ATOM
      1  C         16.8670  -20.9330  -11.0390 C.3     1  UNL1        0.0500
      2  C         18.3150  -21.3500  -11.0720 C.2     1  UNL1       -0.0350
      3  C         19.0890  -20.9520  -12.1770 C.2     1  UNL1        0.0100
      4  C         20.4340  -21.3040  -12.2700 C.2     1  UNL1        0.0170
      5  C         21.0210  -22.0640  -11.2570 C.2     1  UNL1        0.0340
      6  C         20.2650  -22.4520  -10.1410 C.2     1  UNL1        0.0470
      7  C         18.9110  -22.1090  -10.0380 C.2     1  UNL1        0.0420
      8  C         22.4550  -22.4520  -11.3170 C.2     1  UNL1        0.2520
      9  O         22.8970  -23.3080  -10.5620 O.2     1  UNL1       -0.2680
     10  N         23.2130  -21.8100  -12.2700 N.am    1  UNL1       -0.3480
     11  H         22.7920  -21.1390  -12.8970 H       1  UNL1        0.1630
     12  C         24.6420  -22.0560  -12.4110 C.3     1  UNL1        0.1180
     13  C         25.4000  -21.2060  -11.3800 C.3     1  UNL1        0.0300
     14  C         26.8890  -21.1620  -11.6890 C.3     1  UNL1        0.0070
     15  C         27.1210  -20.4920  -13.0390 C.3     1  UNL1        0.0390
     16  C         26.2650  -21.0810  -14.1330 C.2     1  UNL1       -0.0500
     17  C         26.6400  -20.8720  -15.4700 C.2     1  UNL1        0.0070
     18  C         25.0900  -21.8030  -13.8440 C.2     1  UNL1       -0.0290
     19  C         25.8850  -21.4060  -16.5130 C.2     1  UNL1        0.0010
     20  C         24.7480  -22.1570  -16.2330 C.2     1  UNL1        0.0010
     21  C         24.3580  -22.3590  -14.9100 C.2     1  UNL1        0.0100
     22  N         18.1060  -22.4970   -8.9420 N.am    1  UNL1       -0.3210
     23  C         18.2670  -23.5840   -8.0940 C.2     1  UNL1        0.2760
     24  O         19.1790  -24.4020   -8.1290 O.2     1  UNL1       -0.2660
     25  H         17.3340  -21.8870   -8.7130 H       1  UNL1        0.1690
     26  C         17.1870  -23.6790   -7.0940 C.ar    1  UNL1        0.1440
     27  N         16.0950  -24.3960   -7.3820 N.ar    1  UNL1       -0.2050
     28  S         15.0650  -24.3680   -6.0960 S.2     1  UNL1        0.0120
     29  C         16.0420  -23.3920   -5.0800 C.ar    1  UNL1        0.0360
     30  C         15.7940  -22.9440   -3.7720 C.2     1  UNL1        0.0210
     31  C         17.2090  -23.0650   -5.7760 C.ar    1  UNL1        0.0170
     32  C         16.7510  -22.1360   -3.1530 C.2     1  UNL1        0.0010
     33  C         17.9160  -21.7790   -3.8220 C.2     1  UNL1        0.0010
     34  C         18.1540  -22.2310   -5.1240 C.2     1  UNL1        0.0150
@<TRIPOS>BOND
     1    19    20    2
     2    19    17    1
     3    20    21    1
     4    17    16    2
     5    21    18    2
     6    16    18    1
     7    16    15    1
     8    18    12    1
     9    15    14    1
    10    11    10    1
    11    12    10    1
    12    12    13    1
    13     4     3    1
    14     4     5    2
    15    10     8   am
    16     3     2    2
    17    14    13    1
    18     8     5    1
    19     8     9    2
    20     5     6    1
    21     2     1    1
    22     2     7    1
    23     6     7    2
    24     7    22    1
    25    22    25    1
    26    22    23   am
    27    24    23    2
    28    23    26    1
    29    27    26   ar
    30    27    28   ar
    31    26    31   ar
    32    28    29   ar
    33    31    34    1
    34    31    29   ar
    35    34    33    2
    36    29    30    1
    37    33    32    1
    38    30    32    2
