@<TRIPOS>MOLECULE
71709_out_ligand_01.pdbqt
 34 37 0 0 0
SMALL
GASTEIGER

@<TRIPOS>ATOM
      1  C         18.8770  -22.4330  -10.0040 C.2     1  UNL1        0.0970
      2  C         20.2280  -22.8230  -10.0090 C.2     1  UNL1        0.0430
      3  C         21.1210  -22.2910  -10.9510 C.2     1  UNL1        0.0330
      4  C         20.6470  -21.3870  -11.9060 C.2     1  UNL1        0.0190
      5  C         19.3020  -20.9990  -11.8980 C.2     1  UNL1        0.0260
      6  C         18.4110  -21.5170  -10.9490 C.2     1  UNL1        0.0570
      7 CL         16.7870  -20.9470  -11.0380 Cl      1  UNL1       -0.0830
      8  C         22.5390  -22.7510  -10.9170 C.2     1  UNL1        0.2520
      9  O         22.9650  -23.3400   -9.9310 O.2     1  UNL1       -0.2680
     10  N         23.3160  -22.4570  -12.0140 N.am    1  UNL1       -0.3480
     11  H         22.9730  -21.8590  -12.7520 H       1  UNL1        0.1630
     12  C         24.7110  -22.8720  -12.1020 C.3     1  UNL1        0.1180
     13  C         24.9340  -23.8120  -13.2990 C.3     1  UNL1        0.0300
     14  C         24.8980  -23.0390  -14.6140 C.3     1  UNL1        0.0070
     15  C         26.0240  -22.0090  -14.6600 C.3     1  UNL1        0.0390
     16  C         26.1580  -21.2040  -13.3900 C.2     1  UNL1       -0.0500
     17  C         26.9300  -20.0320  -13.4090 C.2     1  UNL1        0.0070
     18  C         25.5860  -21.6340  -12.1760 C.2     1  UNL1       -0.0290
     19  C         27.1210  -19.2830  -12.2480 C.2     1  UNL1        0.0010
     20  C         26.5490  -19.7020  -11.0500 C.2     1  UNL1        0.0010
     21  C         25.7860  -20.8680  -11.0140 C.2     1  UNL1        0.0100
     22  S         17.7960  -23.1670   -8.8010 S.O2    1  UNL1        0.2470
     23  O         18.5980  -24.0610   -7.9900 O.2     1  UNL1       -0.2050
     24  O         16.6210  -23.6370   -9.4990 O.2     1  UNL1       -0.2050
     25  N         17.4410  -21.8340   -7.7960 N.pl3   1  UNL1       -0.1810
     26  H         18.1920  -21.1560   -7.9160 H       1  UNL1        0.1460
     27  C         17.2760  -22.1700   -6.4050 C.2     1  UNL1        0.0290
     28  C         18.2340  -21.8250   -5.4370 C.2     1  UNL1       -0.0400
     29  C         18.0290  -22.2470   -4.1120 C.2     1  UNL1        0.0090
     30  C         19.4930  -21.0670   -5.7620 C.3     1  UNL1        0.0500
     31  C         16.8930  -22.9790   -3.7560 C.2     1  UNL1        0.0070
     32  C         15.9360  -23.3100   -4.7180 C.2     1  UNL1       -0.0600
     33  C         14.7410  -24.1410   -4.3550 C.3     1  UNL1        0.0480
     34  C         16.1450  -22.9140   -6.0440 C.2     1  UNL1        0.0310
@<TRIPOS>BOND
     1    15    14    1
     2    15    16    1
     3    14    13    1
     4    17    16    2
     5    17    19    1
     6    16    18    1
     7    13    12    1
     8    11    10    1
     9    19    20    2
    10    18    12    1
    11    18    21    2
    12    12    10    1
    13    10     8   am
    14     4     5    2
    15     4     3    1
    16     5     6    1
    17    20    21    1
    18     7     6    1
    19     3     8    1
    20     3     2    2
    21     6     1    2
    22     8     9    2
    23     2     1    1
    24     1    22    1
    25    24    22    2
    26    22    23    2
    27    22    25    1
    28    26    25    1
    29    25    27    1
    30    27    34    2
    31    27    28    1
    32    34    32    1
    33    30    28    1
    34    28    29    2
    35    32    33    1
    36    32    31    2
    37    29    31    1
