@<TRIPOS>MOLECULE
71705_out_ligand_01.pdbqt
 37 41 0 0 0
SMALL
GASTEIGER

@<TRIPOS>ATOM
      1  C         19.6210  -23.2370   -9.3790 C.2     1  UNL1        0.0750
      2  C         20.6140  -23.9730   -8.7290 C.2     1  UNL1        0.0270
      3  C         21.9150  -23.9930   -9.2440 C.2     1  UNL1        0.0310
      4  C         22.2350  -23.2640  -10.3930 C.2     1  UNL1        0.0340
      5  C         21.2320  -22.5130  -11.0230 C.2     1  UNL1        0.0310
      6  C         19.9280  -22.4970  -10.5220 C.2     1  UNL1        0.0270
      7  N         23.5160  -23.2310  -10.9730 N.am    1  UNL1       -0.3260
      8  C         24.4900  -22.2570  -10.8380 C.2     1  UNL1        0.2400
      9  O         24.3700  -21.1920  -10.2380 O.2     1  UNL1       -0.2710
     10  H         23.7560  -24.0130  -11.5760 H       1  UNL1        0.1690
     11  C         25.7650  -22.5480  -11.6350 C.3     1  UNL1        0.2350
     12  N         25.5640  -22.5000  -13.0680 N.am    1  UNL1       -0.3040
     13  C         25.2250  -23.5790  -13.8790 C.2     1  UNL1        0.2590
     14  O         25.0800  -24.7420  -13.5650 O.2     1  UNL1       -0.2670
     15  C         25.1510  -23.0300  -15.2500 C.2     1  UNL1        0.0450
     16  C         24.8540  -23.6080  -16.4690 C.2     1  UNL1        0.0180
     17  C         25.4810  -21.7040  -15.1680 C.2     1  UNL1        0.0170
     18  C         24.9010  -22.7830  -17.6070 C.2     1  UNL1        0.0020
     19  C         25.2480  -21.4140  -17.5110 C.2     1  UNL1        0.0120
     20  C         25.5520  -20.8400  -16.2550 C.2     1  UNL1       -0.0230
     21  C         25.9240  -19.5150  -15.9500 C.2     1  UNL1        0.0120
     22  C         26.1960  -19.1400  -14.6110 C.2     1  UNL1        0.0030
     23  C         26.1040  -20.0650  -13.5540 C.2     1  UNL1        0.0310
     24  C         25.7380  -21.3580  -13.8660 C.2     1  UNL1        0.0500
     25  S         17.9750  -23.1800   -8.7120 S.O2    1  UNL1        0.2480
     26  O         17.7430  -24.4700   -8.0870 O.2     1  UNL1       -0.2050
     27  O         17.0590  -22.6950   -9.7260 O.2     1  UNL1       -0.2050
     28  N         18.0890  -22.0860   -7.4660 N.pl3   1  UNL1       -0.1480
     29  H         19.0430  -21.8670   -7.2120 H       1  UNL1        0.1490
     30  C         17.2710  -22.2950   -6.3640 C.cat   1  UNL1        0.2160
     31  N         17.7400  -23.0040   -5.3370 N.2     1  UNL1       -0.2230
     32  C         16.8610  -23.2790   -4.3540 C.2     1  UNL1        0.0360
     33  C         15.5340  -22.8980   -4.4240 C.2     1  UNL1        0.0530
     34  C         17.3820  -24.0080   -3.1530 C.3     1  UNL1        0.0700
     35  C         15.1440  -22.2180   -5.5650 C.2     1  UNL1        0.0360
     36  C         13.7160  -21.7990   -5.7420 C.3     1  UNL1        0.0700
     37  N         16.0030  -21.9280   -6.5630 N.2     1  UNL1       -0.2230
@<TRIPOS>BOND
     1    18    19    2
     2    18    16    1
     3    19    20    1
     4    16    15    2
     5    20    21    1
     6    20    17    2
     7    21    22    2
     8    15    17    1
     9    15    13    1
    10    17    24    1
    11    22    23    1
    12    13    14    2
    13    13    12   am
    14    24    23    2
    15    24    12    1
    16    12    11    1
    17    11     8    1
    18    10     7    1
    19     5     6    1
    20     5     4    2
    21     7     8   am
    22     7     4    1
    23     8     9    2
    24     6     1    2
    25     4     3    1
    26    27    25    2
    27     1     2    1
    28     1    25    1
    29     3     2    2
    30    25    26    2
    31    25    28    1
    32    28    29    1
    33    28    30    1
    34    37    30    1
    35    37    35    2
    36    30    31    2
    37    36    35    1
    38    35    33    1
    39    31    32    1
    40    33    32    2
    41    32    34    1
