@<TRIPOS>MOLECULE
71710_out_ligand_01.pdbqt
 37 40 0 0 0
SMALL
GASTEIGER

@<TRIPOS>ATOM
      1  C         21.0710  -22.5620  -10.7300 C.2     1  UNL1        0.0340
      2  C         20.7800  -23.5400   -9.7670 C.2     1  UNL1        0.0310
      3  C         19.4840  -23.6880   -9.2670 C.2     1  UNL1        0.0270
      4  C         18.4710  -22.8450   -9.7270 C.2     1  UNL1        0.0800
      5  C         18.7410  -21.8760  -10.6950 C.2     1  UNL1        0.0270
      6  C         20.0440  -21.7320  -11.1870 C.2     1  UNL1        0.0310
      7  N         22.4030  -22.4800  -11.1740 N.am    1  UNL1       -0.3250
      8  C         23.4560  -21.7830  -10.5990 C.2     1  UNL1        0.2510
      9  O         23.3900  -21.1000   -9.5810 O.2     1  UNL1       -0.2700
     10  H         22.6040  -22.9050  -12.0730 H       1  UNL1        0.1690
     11  C         24.7900  -22.0130  -11.3500 C.3     1  UNL1        0.2200
     12  C         25.8950  -21.1160  -10.7700 C.3     1  UNL1        0.0380
     13  C         26.3450  -20.0280  -11.7350 C.3     1  UNL1        0.0080
     14  O         24.6040  -21.6810  -12.7310 O.2     1  UNL1       -0.3360
     15  C         24.8140  -22.6440  -13.6800 C.2     1  UNL1        0.0760
     16  C         25.1720  -23.9590  -13.3800 C.2     1  UNL1        0.0370
     17  C         25.3610  -24.8860  -14.4030 C.2     1  UNL1        0.0030
     18  C         25.2040  -24.5000  -15.7320 C.2     1  UNL1        0.0070
     19  C         24.8710  -23.1780  -16.0590 C.2     1  UNL1       -0.0530
     20  C         24.7360  -22.8030  -17.5100 C.3     1  UNL1        0.0490
     21  C         24.7010  -22.2290  -15.0260 C.2     1  UNL1       -0.0230
     22  C         24.3420  -20.8000  -15.3550 C.3     1  UNL1        0.0520
     23  S         16.8160  -23.0320   -9.1110 S.O2    1  UNL1        0.2630
     24  O         16.3210  -21.7330   -8.7110 O.2     1  UNL1       -0.2000
     25  O         16.0850  -23.8400  -10.0650 O.2     1  UNL1       -0.2000
     26  N         17.0390  -24.0090   -7.7610 N.pl3   1  UNL1       -0.2800
     27  H         17.0260  -25.0070   -7.9610 H       1  UNL1        0.1790
     28  C         16.5870  -23.5680   -6.4830 C.2     1  UNL1        0.0530
     29  C         15.4070  -24.1060   -5.9630 C.2     1  UNL1        0.0310
     30  C         14.9620  -23.7250   -4.7010 C.2     1  UNL1        0.0030
     31  C         15.7090  -22.8200   -3.9450 C.2     1  UNL1        0.0120
     32  C         16.9070  -22.2820   -4.4400 C.2     1  UNL1       -0.0240
     33  C         17.6530  -21.3740   -3.6700 C.2     1  UNL1        0.0120
     34  C         17.3690  -22.6610   -5.7240 C.2     1  UNL1        0.0010
     35  C         18.8460  -20.8380   -4.1500 C.2     1  UNL1        0.0010
     36  C         19.3150  -21.2050   -5.4070 C.2     1  UNL1        0.0010
     37  C         18.5870  -22.1090   -6.1820 C.2     1  UNL1        0.0140
@<TRIPOS>BOND
     1    20    19    1
     2    19    18    2
     3    19    21    1
     4    18    17    1
     5    22    21    1
     6    21    15    2
     7    17    16    2
     8    15    16    1
     9    15    14    1
    10    14    11    1
    11    10     7    1
    12    13    12    1
    13    11    12    1
    14    11     8    1
    15     6     1    2
    16     6     5    1
    17     7     1    1
    18     7     8   am
    19     1     2    1
    20     5     4    2
    21     8     9    2
    22    25    23    2
    23     2     3    2
    24     4     3    1
    25     4    23    1
    26    23    24    2
    27    23    26    1
    28    27    26    1
    29    26    28    1
    30    28    29    2
    31    28    34    1
    32    37    34    1
    33    37    36    2
    34    29    30    1
    35    34    32    2
    36    36    35    1
    37    30    31    2
    38    32    31    1
    39    32    33    1
    40    35    33    2
