@<TRIPOS>MOLECULE
71715_out_ligand_01.pdbqt
 34 36 0 0 0
SMALL
GASTEIGER

@<TRIPOS>ATOM
      1  C         19.8640  -22.9900   -9.8640 C.2     1  UNL1        0.0330
      2  C         19.2570  -22.2120  -10.8530 C.2     1  UNL1        0.0170
      3  C         17.8720  -22.0220  -10.8390 C.2     1  UNL1        0.0090
      4  C         17.0610  -22.6250   -9.8610 C.2     1  UNL1       -0.0390
      5  C         15.5830  -22.3530   -9.9050 C.3     1  UNL1        0.0500
      6  C         17.6820  -23.4190   -8.8780 C.2     1  UNL1        0.0860
      7  C         19.0770  -23.5900   -8.8790 C.2     1  UNL1        0.0420
      8  C         21.3310  -23.2360   -9.8420 C.2     1  UNL1        0.2520
      9  N         22.0900  -22.4540  -10.6830 N.am    1  UNL1       -0.3480
     10  H         21.6490  -21.7640  -11.2710 H       1  UNL1        0.1630
     11  O         21.7970  -24.0790   -9.0830 O.2     1  UNL1       -0.2680
     12  C         23.5140  -22.6860  -10.8790 C.3     1  UNL1        0.1170
     13  C         24.3190  -21.7290   -9.9780 C.3     1  UNL1        0.0250
     14  C         25.5110  -21.0920  -10.6840 C.3     1  UNL1        0.0070
     15  C         23.8080  -22.5990  -12.3680 C.2     1  UNL1       -0.0350
     16  C         23.1620  -21.6130  -13.1310 C.2     1  UNL1        0.0100
     17  C         23.4250  -21.4680  -14.4950 C.2     1  UNL1        0.0070
     18  C         24.3510  -22.3020  -15.1290 C.2     1  UNL1       -0.0620
     19  C         24.6390  -22.1590  -16.5930 C.3     1  UNL1        0.0480
     20  C         25.0080  -23.2780  -14.3750 C.2     1  UNL1        0.0070
     21  C         24.7510  -23.4200  -13.0080 C.2     1  UNL1        0.0100
     22  S         16.7680  -24.2280   -7.5670 S.O2    1  UNL1        0.2630
     23  O         15.6360  -24.9130   -8.1570 O.2     1  UNL1       -0.2000
     24  O         17.7110  -24.9630   -6.7460 O.2     1  UNL1       -0.2000
     25  N         16.2150  -22.9460   -6.6210 N.pl3   1  UNL1       -0.2800
     26  H         15.2100  -22.9690   -6.4880 H       1  UNL1        0.1790
     27  C         17.0300  -22.3630   -5.6010 C.2     1  UNL1        0.0490
     28  C         18.1130  -21.5380   -5.9330 C.2     1  UNL1        0.0370
     29  C         18.9380  -20.9920   -4.9400 C.2     1  UNL1       -0.0600
     30  C         20.1140  -20.1390   -5.3280 C.3     1  UNL1        0.0480
     31  C         18.6330  -21.2330   -3.5980 C.2     1  UNL1        0.0070
     32  C         17.5300  -22.0170   -3.2540 C.2     1  UNL1        0.0090
     33  C         16.7180  -22.5930   -4.2460 C.2     1  UNL1       -0.0350
     34  C         15.5480  -23.4350   -3.8200 C.3     1  UNL1        0.0500
@<TRIPOS>BOND
     1    19    18    1
     2    18    17    2
     3    18    20    1
     4    17    16    1
     5    20    21    2
     6    16    15    2
     7    21    15    1
     8    15    12    1
     9    10     9    1
    10    12     9    1
    11    12    13    1
    12     2     3    1
    13     2     1    2
    14     3     4    2
    15    14    13    1
    16     9     8   am
    17     5     4    1
    18     1     8    1
    19     1     7    1
    20     4     6    1
    21     8    11    2
    22     7     6    2
    23     6    22    1
    24    23    22    2
    25    22    24    2
    26    22    25    1
    27    25    26    1
    28    25    27    1
    29    28    27    2
    30    28    29    1
    31    27    33    1
    32    30    29    1
    33    29    31    2
    34    33    34    1
    35    33    32    2
    36    31    32    1
