@<TRIPOS>MOLECULE
71711_out_ligand_01.pdbqt
 40 42 0 0 0
SMALL
GASTEIGER

@<TRIPOS>ATOM
      1  C         19.4230  -22.9590  -10.1040 C.2     1  UNL1        0.0330
      2  C         18.7620  -22.0670  -10.9500 C.2     1  UNL1        0.0170
      3  C         17.3900  -21.8460  -10.7970 C.2     1  UNL1        0.0090
      4  C         16.6520  -22.4870   -9.7830 C.2     1  UNL1       -0.0390
      5  C         15.1750  -22.2160   -9.7190 C.3     1  UNL1        0.0500
      6  C         17.3350  -23.3570   -8.9120 C.2     1  UNL1        0.0860
      7  C         18.7080  -23.6010   -9.0890 C.2     1  UNL1        0.0420
      8  C         20.8850  -23.2200  -10.2160 C.2     1  UNL1        0.2560
      9  N         21.5760  -22.3380  -11.0160 N.am    1  UNL1       -0.3200
     10  H         21.0530  -21.6600  -11.5620 H       1  UNL1        0.1690
     11  O         21.3440  -24.1910   -9.6260 O.2     1  UNL1       -0.2670
     12  C         22.9650  -22.3040  -11.2790 C.2     1  UNL1        0.0700
     13  C         23.5610  -22.9780  -12.3450 C.2     1  UNL1        0.0570
     14  C         24.9400  -22.8760  -12.5400 C.2     1  UNL1        0.0810
     15  C         25.7350  -22.1210  -11.6750 C.2     1  UNL1        0.0280
     16  C         25.1450  -21.4590  -10.5970 C.2     1  UNL1        0.0400
     17  C         23.7640  -21.5500  -10.3900 C.2     1  UNL1        0.0950
     18  S         25.6760  -23.7210  -13.9150 S.O2    1  UNL1        0.2590
     19  O         25.1680  -25.0740  -13.9130 O.2     1  UNL1       -0.2010
     20  O         27.0940  -23.4360  -13.9200 O.2     1  UNL1       -0.2010
     21  N         24.9920  -22.9450  -15.2230 N.3     1  UNL1       -0.3110
     22  H         24.3200  -22.2070  -15.0200 H       1  UNL1        0.1720
     23  C         25.3070  -23.3290  -16.5950 C.3     1  UNL1        0.0850
     24  C         26.1480  -22.2260  -17.2290 C.3     1  UNL1        0.0320
     25  C         24.0040  -23.5340  -17.3590 C.3     1  UNL1        0.0320
     26  O         23.0820  -20.9430   -9.3590 O.2     1  UNL1       -0.3540
     27  C         22.9330  -21.6880   -8.1570 C.3     1  UNL1        0.2100
     28  S         16.5600  -24.2410   -7.5630 S.O2    1  UNL1        0.2630
     29  O         17.6240  -24.8930   -6.8260 O.2     1  UNL1       -0.2000
     30  O         15.4400  -25.0110   -8.0560 O.2     1  UNL1       -0.2000
     31  N         15.9990  -23.0020   -6.5630 N.pl3   1  UNL1       -0.2800
     32  H         14.9950  -23.0470   -6.4030 H       1  UNL1        0.1790
     33  C         16.8260  -22.4600   -5.5380 C.2     1  UNL1        0.0490
     34  C         17.9050  -21.6420   -5.8870 C.2     1  UNL1        0.0370
     35  C         18.7660  -21.1280   -4.9110 C.2     1  UNL1       -0.0600
     36  C         19.9070  -20.2310   -5.2910 C.3     1  UNL1        0.0480
     37  C         18.5140  -21.4170   -3.5680 C.2     1  UNL1        0.0070
     38  C         17.4230  -22.2120   -3.2090 C.2     1  UNL1        0.0090
     39  C         16.5600  -22.7340   -4.1850 C.2     1  UNL1       -0.0350
     40  C         15.3840  -23.5600   -3.7460 C.3     1  UNL1        0.0500
@<TRIPOS>BOND
     1    25    23    1
     2    24    23    1
     3    23    21    1
     4    21    22    1
     5    21    18    1
     6    20    18    2
     7    18    19    2
     8    18    14    1
     9    14    13    1
    10    14    15    2
    11    13    12    2
    12    15    16    1
    13    10     9    1
    14    12     9    1
    15    12    17    1
    16     9     8   am
    17     2     3    1
    18     2     1    2
    19     3     4    2
    20    16    17    2
    21    17    26    1
    22     8     1    1
    23     8    11    2
    24     1     7    1
    25     4     5    1
    26     4     6    1
    27    26    27    1
    28     7     6    2
    29     6    28    1
    30    30    28    2
    31    28    29    2
    32    28    31    1
    33    31    32    1
    34    31    33    1
    35    34    33    2
    36    34    35    1
    37    33    39    1
    38    36    35    1
    39    35    37    2
    40    39    40    1
    41    39    38    2
    42    37    38    1
