@<TRIPOS>MOLECULE
71726_out_ligand_01.pdbqt
 36 39 0 0 0
SMALL
GASTEIGER

@<TRIPOS>ATOM
      1  C         21.0980  -22.6360  -10.5500 C.2     1  UNL1        0.0340
      2  C         20.7750  -23.6060   -9.5850 C.2     1  UNL1        0.0310
      3  C         19.4670  -23.7310   -9.1060 C.2     1  UNL1        0.0270
      4  C         18.4710  -22.8960   -9.6130 C.2     1  UNL1        0.0800
      5  C         18.7850  -21.9060  -10.5480 C.2     1  UNL1        0.0270
      6  C         20.0960  -21.7820  -11.0160 C.2     1  UNL1        0.0310
      7  N         22.4270  -22.6090  -11.0150 N.am    1  UNL1       -0.3250
      8  C         23.4620  -21.8020  -10.5570 C.2     1  UNL1        0.2510
      9  O         23.4160  -21.0740   -9.5710 O.2     1  UNL1       -0.2700
     10  H         22.6540  -23.2790  -11.7420 H       1  UNL1        0.1690
     11  C         24.7350  -21.9170  -11.4310 C.3     1  UNL1        0.2200
     12  C         25.8650  -21.0580  -10.8400 C.3     1  UNL1        0.0380
     13  C         26.3520  -19.9540  -11.7640 C.3     1  UNL1        0.0080
     14  O         24.5190  -21.4400  -12.7670 O.2     1  UNL1       -0.3360
     15  C         24.8110  -22.4110  -13.6930 C.2     1  UNL1        0.0750
     16  C         25.0340  -23.7150  -13.2460 C.2     1  UNL1        0.0370
     17  C         25.3200  -24.7260  -14.1620 C.2     1  UNL1        0.0030
     18  C         25.3450  -24.4400  -15.5260 C.2     1  UNL1        0.0010
     19  C         25.0690  -23.1420  -15.9740 C.2     1  UNL1        0.0090
     20  C         24.7850  -22.1120  -15.0630 C.2     1  UNL1       -0.0290
     21  C         24.4960  -20.7270  -15.5650 C.3     1  UNL1        0.0510
     22  S         16.7910  -23.0870   -9.0640 S.O2    1  UNL1        0.2630
     23  O         16.3420  -21.7920   -8.5850 O.2     1  UNL1       -0.2000
     24  O         16.0580  -23.8000  -10.0900 O.2     1  UNL1       -0.2000
     25  N         16.9180  -24.0730   -7.6970 N.pl3   1  UNL1       -0.2800
     26  H         16.7740  -25.0580   -7.9030 H       1  UNL1        0.1790
     27  C         16.4850  -23.5650   -6.4290 C.2     1  UNL1        0.0530
     28  C         15.2710  -24.0260   -5.9060 C.2     1  UNL1        0.0310
     29  C         14.8620  -23.6350   -4.6340 C.2     1  UNL1        0.0030
     30  C         15.6600  -22.7740   -3.8840 C.2     1  UNL1        0.0120
     31  C         16.8700  -22.2770   -4.3960 C.2     1  UNL1       -0.0240
     32  C         17.6510  -21.3940   -3.6300 C.2     1  UNL1        0.0120
     33  C         17.3030  -22.6680   -5.6880 C.2     1  UNL1        0.0010
     34  C         18.8490  -20.8800   -4.1220 C.2     1  UNL1        0.0010
     35  C         19.2900  -21.2520   -5.3840 C.2     1  UNL1        0.0010
     36  C         18.5330  -22.1420   -6.1560 C.2     1  UNL1        0.0140
@<TRIPOS>BOND
     1    19    18    2
     2    19    20    1
     3    21    20    1
     4    18    17    1
     5    20    15    2
     6    17    16    2
     7    15    16    1
     8    15    14    1
     9    14    11    1
    10    13    12    1
    11    10     7    1
    12    11    12    1
    13    11     8    1
    14     6     1    2
    15     6     5    1
    16     7     8   am
    17     7     1    1
    18     8     9    2
    19     1     2    1
    20     5     4    2
    21    24    22    2
    22     4     3    1
    23     4    22    1
    24     2     3    2
    25    22    23    2
    26    22    25    1
    27    26    25    1
    28    25    27    1
    29    27    28    2
    30    27    33    1
    31    36    33    1
    32    36    35    2
    33    28    29    1
    34    33    31    2
    35    35    34    1
    36    29    30    2
    37    31    30    1
    38    31    32    1
    39    34    32    2
