@<TRIPOS>MOLECULE
71723_out_ligand_01.pdbqt
 35 38 0 0 0
SMALL
GASTEIGER

@<TRIPOS>ATOM
      1  O         21.1420  -25.1120   -9.2950 O.2     1  UNL1       -0.2730
      2  C         20.7320  -24.0700   -8.7960 C.2     1  UNL1        0.2230
      3  N         21.1900  -22.7920   -9.0780 N.am    1  UNL1       -0.3270
      4  H         20.7430  -22.0290   -8.5860 H       1  UNL1        0.1690
      5  C         22.1920  -22.4200   -9.9980 C.2     1  UNL1        0.0340
      6  C         23.5110  -22.1250   -9.6420 C.2     1  UNL1        0.0310
      7  C         24.4450  -21.7560  -10.6170 C.2     1  UNL1        0.0270
      8  C         24.0590  -21.6930  -11.9570 C.2     1  UNL1        0.0800
      9  C         22.7440  -21.9740  -12.3280 C.2     1  UNL1        0.0270
     10  C         21.8170  -22.3370  -11.3470 C.2     1  UNL1        0.0310
     11  S         25.2460  -21.2030  -13.1830 S.O2    1  UNL1        0.2760
     12  O         25.9050  -19.9860  -12.7530 O.2     1  UNL1       -0.2000
     13  O         26.0310  -22.3840  -13.4840 O.2     1  UNL1       -0.2000
     14  N         24.3280  -20.9060  -14.5330 N.pl3   1  UNL1       -0.1090
     15  H         23.3290  -20.9600  -14.3700 H       1  UNL1        0.1980
     16  C         24.7280  -21.4930  -15.7250 C.cat   1  UNL1        0.7350
     17  N         25.5170  -20.8100  -16.5550 N.2     1  UNL1       -0.0740
     18  C         25.7220  -21.3770  -17.7580 C.2     1  UNL1        0.1380
     19  C         25.1380  -22.5580  -18.1480 C.2     1  UNL1        0.0400
     20  C         24.3040  -23.1420  -17.2230 C.2     1  UNL1        0.1380
     21  N         24.0620  -22.6180  -16.0070 N.2     1  UNL1       -0.0740
     22  C         19.6750  -24.0670   -7.6990 C.3     1  UNL1        0.1170
     23  C         18.9240  -22.7240   -7.6090 C.3     1  UNL1        0.0600
     24  C         18.5810  -22.4090   -6.1510 C.2     1  UNL1       -0.0490
     25  C         17.9330  -23.3390   -5.3220 C.2     1  UNL1        0.0080
     26  C         17.6500  -23.0310   -3.9900 C.2     1  UNL1        0.0010
     27  C         18.0170  -21.7940   -3.4660 C.2     1  UNL1        0.0000
     28  C         18.6680  -20.8640   -4.2710 C.2     1  UNL1        0.0010
     29  C         18.9490  -21.1680   -5.6040 C.2     1  UNL1        0.0080
     30  C         17.6970  -22.6300   -8.5230 C.2     1  UNL1       -0.0490
     31  C         17.6420  -21.7990   -9.6530 C.2     1  UNL1        0.0080
     32  C         16.4990  -21.7590  -10.4560 C.2     1  UNL1        0.0010
     33  C         15.3970  -22.5520  -10.1470 C.2     1  UNL1        0.0000
     34  C         15.4370  -23.3900   -9.0360 C.2     1  UNL1        0.0010
     35  C         16.5780  -23.4300   -8.2330 C.2     1  UNL1        0.0080
@<TRIPOS>BOND
     1    19    18    2
     2    19    20    1
     3    18    17    1
     4    20    21    2
     5    17    16    2
     6    21    16    1
     7    16    14    1
     8    14    15    1
     9    14    11    1
    10    13    11    2
    11    11    12    2
    12    11     8    1
    13     9     8    2
    14     9    10    1
    15     8     7    1
    16    10     5    2
    17     7     6    2
    18    32    33    2
    19    32    31    1
    20    33    34    1
    21     5     6    1
    22     5     3    1
    23    31    30    2
    24     1     2    2
    25     3     2   am
    26     3     4    1
    27    34    35    2
    28     2    22    1
    29    30    35    1
    30    30    23    1
    31    22    23    1
    32    23    24    1
    33    24    29    2
    34    24    25    1
    35    29    28    1
    36    25    26    2
    37    28    27    2
    38    26    27    1
