@<TRIPOS>MOLECULE
71739_out_ligand_01.pdbqt
 32 34 0 0 0
SMALL
GASTEIGER

@<TRIPOS>ATOM
      1  C         19.0170  -22.3830  -10.3260 C.2     1  UNL1        0.0390
      2  C         18.6680  -21.2810  -11.1210 C.2     1  UNL1        0.0170
      3  C         19.6080  -20.7160  -11.9780 C.2     1  UNL1        0.0030
      4  C         20.8960  -21.2450  -12.0330 C.2     1  UNL1        0.0250
      5  C         21.2450  -22.3510  -11.2460 C.2     1  UNL1        0.0290
      6  C         20.2990  -22.9690  -10.4060 C.2     1  UNL1       -0.0240
      7  C         20.6440  -24.2020   -9.6120 C.3     1  UNL1        0.0510
      8  C         17.9750  -22.8630   -9.3860 C.2     1  UNL1        0.2520
      9  N         18.4260  -23.1000   -8.1070 N.am    1  UNL1       -0.3530
     10  H         19.3710  -22.8370   -7.8660 H       1  UNL1        0.1630
     11  O         16.8120  -22.9650   -9.7530 O.2     1  UNL1       -0.2680
     12  C         17.5050  -23.3830   -7.0230 C.3     1  UNL1        0.1640
     13  C         17.8370  -22.6220   -5.7610 C.2     1  UNL1       -0.0070
     14  C         18.6550  -21.4790   -5.7930 C.2     1  UNL1        0.0110
     15  C         18.9900  -20.8020   -4.6170 C.2     1  UNL1        0.0010
     16  C         18.5320  -21.2650   -3.3880 C.2     1  UNL1        0.0030
     17  C         17.7380  -22.4080   -3.3330 C.2     1  UNL1        0.0370
     18  C         17.3850  -23.0710   -4.5120 C.2     1  UNL1        0.0760
     19  O         16.6530  -24.2270   -4.4220 O.2     1  UNL1       -0.3510
     20  C         15.3220  -23.9390   -3.9640 C.3     1  UNL1        0.1710
     21  C         14.4040  -23.9520   -5.1730 C.3     1  UNL1        0.0340
     22  N         22.5810  -22.8550  -11.3670 N.pl3   1  UNL1       -0.1810
     23  H         22.9690  -22.7960  -12.3100 H       1  UNL1        0.1460
     24  S         23.7360  -22.1960  -10.3020 S.O2    1  UNL1        0.2450
     25  O         24.4630  -23.2400   -9.6160 O.2     1  UNL1       -0.2060
     26  O         23.0450  -21.1470   -9.5810 O.2     1  UNL1       -0.2060
     27  C         24.8470  -21.4180  -11.4520 C.2     1  UNL1        0.0740
     28  C         25.9760  -20.7450  -10.9720 C.2     1  UNL1        0.0250
     29  C         26.8590  -20.1540  -11.8770 C.2     1  UNL1        0.0020
     30  C         26.6150  -20.2430  -13.2480 C.2     1  UNL1        0.0000
     31  C         25.4930  -20.9290  -13.7230 C.2     1  UNL1        0.0020
     32  C         24.6070  -21.5260  -12.8260 C.2     1  UNL1        0.0250
@<TRIPOS>BOND
     1    31    30    2
     2    31    32    1
     3    30    29    1
     4    32    27    2
     5    23    22    1
     6     4     3    2
     7     4     5    1
     8     3     2    1
     9    29    28    2
    10    27    28    1
    11    27    24    1
    12    22     5    1
    13    22    24    1
    14     5     6    2
    15     2     1    2
    16     6     1    1
    17     6     7    1
    18     1     8    1
    19    24    25    2
    20    24    26    2
    21    11     8    2
    22     8     9   am
    23     9    10    1
    24     9    12    1
    25    12    13    1
    26    14    13    2
    27    14    15    1
    28    13    18    1
    29    21    20    1
    30    15    16    2
    31    18    19    1
    32    18    17    2
    33    19    20    1
    34    16    17    1
