@<TRIPOS>MOLECULE
71741_out_ligand_01.pdbqt
 36 39 0 0 0
SMALL
GASTEIGER

@<TRIPOS>ATOM
      1  C         24.2380  -21.8920  -12.5650 C.2     1  UNL1        0.0800
      2  C         23.2210  -21.3780  -13.3730 C.2     1  UNL1        0.0270
      3  C         21.8870  -21.5010  -12.9690 C.2     1  UNL1        0.0310
      4  C         21.5660  -22.1390  -11.7680 C.2     1  UNL1        0.0340
      5  C         22.5970  -22.6670  -10.9770 C.2     1  UNL1        0.0310
      6  C         23.9320  -22.5490  -11.3730 C.2     1  UNL1        0.0270
      7  N         20.2530  -22.2910  -11.2870 N.am    1  UNL1       -0.3250
      8  C         19.1960  -21.4030  -11.3910 C.2     1  UNL1        0.2460
      9  O         19.1970  -20.3180  -11.9620 O.2     1  UNL1       -0.2710
     10  H         20.0650  -23.1230  -10.7350 H       1  UNL1        0.1690
     11  C         17.9250  -21.9340  -10.7160 C.3     1  UNL1        0.2780
     12  O         18.1610  -22.8900   -9.6900 O.2     1  UNL1       -0.3410
     13  C         17.4320  -22.8200   -8.5290 C.2     1  UNL1        0.0870
     14  C         16.0480  -22.9610   -8.4620 C.2     1  UNL1        0.0390
     15  C         15.3890  -22.8660   -7.2350 C.2     1  UNL1        0.0150
     16  C         16.0910  -22.6310   -6.0470 C.2     1  UNL1       -0.0240
     17  C         15.3930  -22.5400   -4.8300 C.2     1  UNL1        0.0120
     18  C         17.4990  -22.4830   -6.0750 C.2     1  UNL1       -0.0060
     19  C         16.0640  -22.3070   -3.6320 C.2     1  UNL1        0.0010
     20  C         17.4440  -22.1620   -3.6340 C.2     1  UNL1        0.0010
     21  C         18.1500  -22.2480   -4.8370 C.2     1  UNL1        0.0140
     22  C         18.1530  -22.5810   -7.3380 C.2     1  UNL1        0.0550
     23 BR         20.0570  -22.3600   -7.4630 Br      1  UNL1       -0.0470
     24  S         25.9280  -21.7410  -13.0910 S.O2    1  UNL1        0.2760
     25  O         26.0930  -20.5000  -13.8190 O.2     1  UNL1       -0.2000
     26  O         26.7440  -22.0100  -11.9240 O.2     1  UNL1       -0.2000
     27  N         26.1470  -23.0320  -14.1100 N.pl3   1  UNL1       -0.1090
     28  H         26.9860  -23.5660  -13.9220 H       1  UNL1        0.1980
     29  C         25.9180  -22.8250  -15.4650 C.cat   1  UNL1        0.7360
     30  N         24.7960  -23.4020  -15.9040 N.2     1  UNL1       -0.0670
     31  C         24.4460  -23.1150  -17.1740 C.2     1  UNL1        0.0510
     32  C         25.1720  -22.2400  -17.9620 C.2     1  UNL1        0.0540
     33  C         23.2140  -23.7750  -17.7160 C.3     1  UNL1        0.0710
     34  C         26.2850  -21.6600  -17.3810 C.2     1  UNL1        0.0510
     35  C         27.1200  -20.6840  -18.1530 C.3     1  UNL1        0.0710
     36  N         26.6590  -21.9310  -16.1170 N.2     1  UNL1       -0.0670
@<TRIPOS>BOND
     1    35    34    1
     2    32    34    1
     3    32    31    2
     4    33    31    1
     5    34    36    2
     6    31    30    1
     7    36    29    1
     8    30    29    2
     9    29    27    1
    10    27    28    1
    11    27    24    1
    12    25    24    2
    13     2     3    1
    14     2     1    2
    15    24     1    1
    16    24    26    2
    17     3     4    2
    18     1     6    1
    19     9     8    2
    20     4     7    1
    21     4     5    1
    22     8     7   am
    23     8    11    1
    24     6     5    2
    25     7    10    1
    26    11    12    1
    27    12    13    1
    28    13    14    2
    29    13    22    1
    30    14    15    1
    31    23    22    1
    32    22    18    2
    33    15    16    2
    34    18    16    1
    35    18    21    1
    36    16    17    1
    37    21    20    2
    38    17    19    2
    39    20    19    1
