@<TRIPOS>MOLECULE
71756_out_ligand_01.pdbqt
 37 40 0 0 0
SMALL
GASTEIGER

@<TRIPOS>ATOM
      1  C         19.0050  -22.2360  -10.1800 C.2     1  UNL1        0.0860
      2  C         20.3530  -22.6360  -10.2800 C.2     1  UNL1        0.0420
      3  C         21.1870  -22.0780  -11.2500 C.2     1  UNL1        0.0330
      4  C         20.6810  -21.1080  -12.1120 C.2     1  UNL1        0.0170
      5  C         19.3380  -20.7260  -12.0290 C.2     1  UNL1        0.0090
      6  C         18.4750  -21.2860  -11.0710 C.2     1  UNL1       -0.0390
      7  C         17.0410  -20.8330  -11.0660 C.3     1  UNL1        0.0500
      8  C         22.6150  -22.4690  -11.3750 C.2     1  UNL1        0.2520
      9  O         23.1220  -23.2010  -10.5340 O.2     1  UNL1       -0.2680
     10  N         23.2860  -21.9500  -12.4540 N.am    1  UNL1       -0.3440
     11  H         22.8640  -21.2310  -13.0220 H       1  UNL1        0.1630
     12  C         24.7070  -22.1850  -12.6610 C.3     1  UNL1        0.1520
     13  C         25.5690  -20.9580  -12.3600 C.2     1  UNL1       -0.0310
     14  C         25.9860  -20.1450  -13.4300 C.2     1  UNL1        0.0090
     15  C         26.7570  -19.0030  -13.2060 C.2     1  UNL1        0.0010
     16  C         27.1210  -18.6510  -11.9090 C.2     1  UNL1        0.0000
     17  C         26.7160  -19.4430  -10.8360 C.2     1  UNL1        0.0010
     18  C         25.9460  -20.5860  -11.0590 C.2     1  UNL1        0.0090
     19  C         24.8940  -22.7480  -14.0730 C.2     1  UNL1       -0.0250
     20  C         24.1130  -22.2580  -15.1400 C.2     1  UNL1        0.0100
     21  C         24.2380  -22.7780  -16.4290 C.2     1  UNL1        0.0010
     22  C         25.1380  -23.8060  -16.6770 C.2     1  UNL1        0.0010
     23  C         25.9080  -24.3210  -15.6350 C.2     1  UNL1        0.0070
     24  C         25.7920  -23.8130  -14.3290 C.2     1  UNL1       -0.0530
     25  C         26.6420  -24.4210  -13.2450 C.3     1  UNL1        0.0490
     26  S         18.0550  -23.0360   -8.8860 S.O2    1  UNL1        0.2630
     27  O         16.7590  -23.4320   -9.3870 O.2     1  UNL1       -0.2000
     28  O         18.9390  -24.0080   -8.2730 O.2     1  UNL1       -0.2000
     29  N         17.8620  -21.8040   -7.7460 N.pl3   1  UNL1       -0.2810
     30  H         17.4530  -20.9620   -8.1460 H       1  UNL1        0.1790
     31  C         17.5110  -22.1430   -6.4110 C.2     1  UNL1        0.0430
     32  C         18.3370  -21.7830   -5.3500 C.2     1  UNL1        0.0300
     33  C         17.9940  -22.1470   -4.0480 C.2     1  UNL1        0.0030
     34  C         16.8270  -22.8770   -3.8100 C.2     1  UNL1        0.0070
     35  C         15.9990  -23.2580   -4.8730 C.2     1  UNL1       -0.0600
     36  C         14.7320  -24.0230   -4.6160 C.3     1  UNL1        0.0480
     37  C         16.3420  -22.8730   -6.1770 C.2     1  UNL1        0.0370
@<TRIPOS>BOND
     1    22    21    2
     2    22    23    1
     3    21    20    1
     4    23    24    2
     5    20    19    2
     6    24    19    1
     7    24    25    1
     8    19    12    1
     9    14    15    1
    10    14    13    2
    11    15    16    2
    12    11    10    1
    13    12    10    1
    14    12    13    1
    15    10     8   am
    16    13    18    1
    17     4     5    2
    18     4     3    1
    19     5     6    1
    20    16    17    1
    21     8     3    1
    22     8     9    2
    23     3     2    2
    24     6     7    1
    25     6     1    2
    26    18    17    2
    27     2     1    1
    28     1    26    1
    29    27    26    2
    30    26    28    2
    31    26    29    1
    32    30    29    1
    33    29    31    1
    34    31    37    2
    35    31    32    1
    36    37    35    1
    37    32    33    2
    38    35    36    1
    39    35    34    2
    40    33    34    1
