@<TRIPOS>MOLECULE
71766_out_ligand_01.pdbqt
 34 36 0 0 0
SMALL
GASTEIGER

@<TRIPOS>ATOM
      1  C         21.0490  -22.2070  -11.0160 C.2     1  UNL1        0.0330
      2  C         20.4690  -21.3190  -11.9260 C.2     1  UNL1        0.0190
      3  C         19.1050  -21.0270  -11.8380 C.2     1  UNL1        0.0260
      4  C         18.3090  -21.6090  -10.8420 C.2     1  UNL1        0.0570
      5 CL         16.6460  -21.1510  -10.8280 Cl      1  UNL1       -0.0830
      6  C         18.8930  -22.4870   -9.9260 C.2     1  UNL1        0.0970
      7  C         20.2640  -22.7840  -10.0110 C.2     1  UNL1        0.0430
      8  C         22.5010  -22.5330  -11.0570 C.2     1  UNL1        0.2520
      9  N         23.2270  -21.9020  -12.0410 N.am    1  UNL1       -0.3490
     10  H         22.7040  -21.4680  -12.7870 H       1  UNL1        0.1630
     11  O         22.9460  -23.3350  -10.2480 O.2     1  UNL1       -0.2680
     12  C         24.6030  -22.2430  -12.3950 C.3     1  UNL1        0.1140
     13  C         24.7880  -23.6480  -12.9790 C.3     1  UNL1        0.0370
     14  C         25.2380  -21.1260  -13.2150 C.2     1  UNL1       -0.0300
     15  C         24.9400  -21.0140  -14.5850 C.2     1  UNL1        0.0100
     16  C         25.4800  -19.9930  -15.3700 C.2     1  UNL1        0.0070
     17  C         26.3250  -19.0410  -14.8020 C.2     1  UNL1       -0.0610
     18  C         26.9350  -17.9620  -15.6470 C.3     1  UNL1        0.0480
     19  C         26.6350  -19.1400  -13.4420 C.2     1  UNL1        0.0140
     20  C         26.0930  -20.1600  -12.6360 C.2     1  UNL1       -0.0530
     21  C         26.4640  -20.1840  -11.1770 C.3     1  UNL1        0.0490
     22  S         17.9440  -23.2700   -8.6460 S.O2    1  UNL1        0.2470
     23  O         16.8520  -23.9720   -9.2810 O.2     1  UNL1       -0.2050
     24  O         18.8780  -23.9620   -7.7800 O.2     1  UNL1       -0.2050
     25  N         17.3930  -21.9220   -7.7600 N.pl3   1  UNL1       -0.1810
     26  H         17.8630  -21.0940   -8.1210 H       1  UNL1        0.1460
     27  C         17.5570  -22.0470   -6.3350 C.2     1  UNL1        0.0290
     28  C         18.6070  -21.3280   -5.7560 C.2     1  UNL1        0.0250
     29  C         18.8000  -21.3440   -4.3800 C.2     1  UNL1        0.0020
     30  C         17.9270  -22.0640   -3.5700 C.2     1  UNL1        0.0070
     31  C         16.8510  -22.7750   -4.1250 C.2     1  UNL1       -0.0540
     32  C         15.9260  -23.5100   -3.1920 C.3     1  UNL1        0.0490
     33  C         16.6680  -22.7930   -5.5310 C.2     1  UNL1       -0.0340
     34  C         15.5040  -23.5400   -6.1300 C.3     1  UNL1        0.0500
@<TRIPOS>BOND
     1    18    17    1
     2    16    17    2
     3    16    15    1
     4    17    19    1
     5    15    14    2
     6    19    20    2
     7    14    20    1
     8    14    12    1
     9    13    12    1
    10    10     9    1
    11    20    21    1
    12    12     9    1
    13     9     8   am
    14     2     3    1
    15     2     1    2
    16     3     4    2
    17     8     1    1
    18     8    11    2
    19     1     7    1
    20     4     5    1
    21     4     6    1
    22     7     6    2
    23     6    22    1
    24    23    22    2
    25    22    24    2
    26    22    25    1
    27    26    25    1
    28    25    27    1
    29    27    28    2
    30    27    33    1
    31    34    33    1
    32    28    29    1
    33    33    31    2
    34    29    30    2
    35    31    30    1
    36    31    32    1
