@<TRIPOS>MOLECULE
71777_out_ligand_01.pdbqt
 33 35 0 0 0
SMALL
GASTEIGER

@<TRIPOS>ATOM
      1  C         21.2450  -22.2050  -11.1100 C.2     1  UNL1        0.0330
      2  C         20.7580  -21.2470  -12.0040 C.2     1  UNL1        0.0170
      3  C         19.4110  -20.8790  -11.9670 C.2     1  UNL1        0.0090
      4  C         18.5290  -21.4430  -11.0270 C.2     1  UNL1       -0.0390
      5  C         17.0900  -21.0070  -11.0510 C.3     1  UNL1        0.0500
      6  C         19.0360  -22.4020  -10.1260 C.2     1  UNL1        0.0810
      7  C         20.3870  -22.7770  -10.1650 C.2     1  UNL1        0.0420
      8  C         22.6750  -22.6040  -11.1030 C.2     1  UNL1        0.2520
      9  N         23.4200  -22.1910  -12.1830 N.am    1  UNL1       -0.3490
     10  H         22.9910  -21.6380  -12.9110 H       1  UNL1        0.1630
     11  O         23.1130  -23.2710  -10.1730 O.2     1  UNL1       -0.2680
     12  C         24.8660  -22.3350  -12.2290 C.3     1  UNL1        0.1140
     13  C         25.2420  -23.6510  -12.9120 C.3     1  UNL1        0.0370
     14  C         25.4540  -21.0970  -12.8850 C.2     1  UNL1       -0.0360
     15  C         25.0300  -20.7490  -14.1790 C.2     1  UNL1        0.0100
     16  C         25.5680  -19.6400  -14.8380 C.2     1  UNL1        0.0070
     17  C         26.5590  -18.8660  -14.2290 C.2     1  UNL1       -0.0620
     18  C         27.1200  -17.6590  -14.9170 C.3     1  UNL1        0.0480
     19  C         26.9900  -19.2090  -12.9430 C.2     1  UNL1        0.0070
     20  C         26.4510  -20.3180  -12.2810 C.2     1  UNL1        0.0100
     21  S         17.9940  -23.1880   -8.9000 S.O2    1  UNL1        0.2460
     22  O         16.7900  -23.6350   -9.5650 O.2     1  UNL1       -0.2060
     23  O         18.8200  -24.1040   -8.1420 O.2     1  UNL1       -0.2060
     24  N         17.6620  -21.8560   -7.8880 N.pl3   1  UNL1       -0.1810
     25  H         18.4720  -21.2360   -7.8960 H       1  UNL1        0.1460
     26  C         17.2500  -22.2000   -6.5540 C.2     1  UNL1        0.0290
     27  C         16.0560  -22.9110   -6.3910 C.2     1  UNL1        0.0310
     28  C         15.6070  -23.2830   -5.1180 C.2     1  UNL1       -0.0600
     29  C         14.3470  -24.0810   -4.9590 C.3     1  UNL1        0.0480
     30  C         16.3880  -22.9560   -4.0070 C.2     1  UNL1        0.0070
     31  C         17.5840  -22.2500   -4.1650 C.2     1  UNL1        0.0090
     32  C         18.0330  -21.8640   -5.4380 C.2     1  UNL1       -0.0400
     33  C         19.3300  -21.1150   -5.5570 C.3     1  UNL1        0.0500
@<TRIPOS>BOND
     1    18    17    1
     2    16    17    2
     3    16    15    1
     4    17    19    1
     5    15    14    2
     6    19    20    2
     7    13    12    1
     8    10     9    1
     9    14    20    1
    10    14    12    1
    11    12     9    1
    12     9     8   am
    13     2     3    1
    14     2     1    2
    15     3     4    2
    16     1     8    1
    17     1     7    1
    18     8    11    2
    19     5     4    1
    20     4     6    1
    21     7     6    2
    22     6    21    1
    23    22    21    2
    24    21    23    2
    25    21    24    1
    26    25    24    1
    27    24    26    1
    28    26    27    2
    29    26    32    1
    30    27    28    1
    31    33    32    1
    32    32    31    2
    33    28    29    1
    34    28    30    2
    35    31    30    1
