@<TRIPOS>MOLECULE
71773_out_ligand_01.pdbqt
 32 35 0 0 0
SMALL
GASTEIGER

@<TRIPOS>ATOM
      1  C         16.4480  -21.0120  -10.9650 C.3     1  UNL1        0.0500
      2  C         17.8840  -21.4540  -10.9080 C.2     1  UNL1       -0.0390
      3  C         18.7610  -20.9980  -11.9090 C.2     1  UNL1        0.0090
      4  C         20.1070  -21.3790  -11.9200 C.2     1  UNL1        0.0170
      5  C         20.5970  -22.2400  -10.9350 C.2     1  UNL1        0.0330
      6  C         19.7420  -22.7030   -9.9300 C.2     1  UNL1        0.0420
      7  C         18.3930  -22.3170   -9.9160 C.2     1  UNL1        0.0810
      8  C         22.0230  -22.6560  -10.8940 C.2     1  UNL1        0.2520
      9  O         22.3820  -23.5090  -10.0940 O.2     1  UNL1       -0.2680
     10  N         22.8620  -22.0450  -11.7980 N.am    1  UNL1       -0.3480
     11  H         22.5160  -21.3230  -12.4120 H       1  UNL1        0.1630
     12  C         24.2990  -22.2860  -11.7910 C.3     1  UNL1        0.1180
     13  C         24.9460  -21.3770  -10.7240 C.3     1  UNL1        0.0300
     14  C         26.4430  -21.1000  -10.8950 C.3     1  UNL1        0.0070
     15  C         27.1210  -21.9650  -11.9490 C.3     1  UNL1        0.0390
     16  C         26.3290  -21.9410  -13.2290 C.2     1  UNL1       -0.0500
     17  C         26.9690  -21.8260  -14.4690 C.2     1  UNL1        0.0070
     18  C         24.9300  -22.1020  -13.1610 C.2     1  UNL1       -0.0290
     19  C         26.2260  -21.8750  -15.6470 C.2     1  UNL1        0.0010
     20  C         24.8470  -22.0610  -15.5920 C.2     1  UNL1        0.0010
     21  C         24.2040  -22.1880  -14.3590 C.2     1  UNL1        0.0100
     22  S         17.3590  -22.9750   -8.6130 S.O2    1  UNL1        0.2460
     23  O         16.5820  -21.8850   -8.0670 O.2     1  UNL1       -0.2060
     24  O         16.7270  -24.1800   -9.1110 O.2     1  UNL1       -0.2060
     25  N         18.5490  -23.4820   -7.4980 N.pl3   1  UNL1       -0.1810
     26  H         18.3620  -24.4640   -7.2890 H       1  UNL1        0.1460
     27  C         18.5760  -22.7070   -6.2920 C.2     1  UNL1        0.0220
     28  C         19.2820  -21.5050   -6.2630 C.2     1  UNL1        0.0240
     29  C         19.2790  -20.7240   -5.1050 C.2     1  UNL1        0.0020
     30  C         18.5580  -21.1410   -3.9850 C.2     1  UNL1        0.0000
     31  C         17.8350  -22.3330   -4.0230 C.2     1  UNL1        0.0020
     32  C         17.8360  -23.1150   -5.1800 C.2     1  UNL1        0.0240
@<TRIPOS>BOND
     1    19    20    2
     2    19    17    1
     3    20    21    1
     4    17    16    2
     5    21    18    2
     6    16    18    1
     7    16    15    1
     8    18    12    1
     9    11    10    1
    10    15    14    1
    11     4     3    1
    12     4     5    2
    13     3     2    2
    14    10    12    1
    15    10     8   am
    16    12    13    1
    17     1     2    1
    18     5     8    1
    19     5     6    1
    20     2     7    1
    21    14    13    1
    22     8     9    2
    23     6     7    2
    24     7    22    1
    25    24    22    2
    26    22    23    2
    27    22    25    1
    28    25    26    1
    29    25    27    1
    30    27    28    2
    31    27    32    1
    32    28    29    1
    33    32    31    2
    34    29    30    2
    35    31    30    1
