@<TRIPOS>MOLECULE
71782_out_ligand_01.pdbqt
 36 40 0 0 0
SMALL
GASTEIGER

@<TRIPOS>ATOM
      1  O         19.3740  -21.1510  -12.1570 O.2     1  UNL1       -0.2670
      2  C         19.8800  -21.8930  -11.3240 C.2     1  UNL1        0.2560
      3  N         21.2120  -22.2490  -11.2220 N.am    1  UNL1       -0.3230
      4  H         21.4400  -22.9660  -10.5440 H       1  UNL1        0.1690
      5  C         18.9910  -22.5340  -10.3170 C.2     1  UNL1        0.0320
      6  C         19.5430  -23.4670   -9.4350 C.2     1  UNL1        0.0170
      7  C         18.7360  -24.0810   -8.4740 C.2     1  UNL1        0.0100
      8  C         17.3690  -23.7780   -8.3870 C.2     1  UNL1       -0.0400
      9  C         16.8190  -22.8590   -9.2950 C.2     1  UNL1        0.0100
     10  C         17.6240  -22.2380  -10.2560 C.2     1  UNL1        0.0170
     11  C         16.4860  -24.4700   -7.3650 C.3     1  UNL1        0.1610
     12  N         16.1070  -23.5440   -6.2890 N.pl3   1  UNL1       -0.3760
     13  C         14.9490  -23.9710   -5.4930 C.3     1  UNL1        0.1230
     14  C         14.4060  -22.8290   -4.6550 C.3     1  UNL1        0.0240
     15  C         15.4890  -22.3740   -3.6960 C.3     1  UNL1        0.0420
     16  C         16.7780  -22.1020   -4.4290 C.2     1  UNL1       -0.0320
     17  C         17.7220  -21.2590   -3.8110 C.2     1  UNL1        0.0090
     18  C         17.0410  -22.6980   -5.6850 C.2     1  UNL1        0.0360
     19  C         18.9190  -20.9520   -4.4450 C.2     1  UNL1        0.0010
     20  C         19.1770  -21.4810   -5.7010 C.2     1  UNL1        0.0020
     21  C         18.2460  -22.3320   -6.3110 C.2     1  UNL1        0.0300
     22  C         22.2800  -21.8080  -12.0310 C.2     1  UNL1        0.0350
     23  C         22.1150  -21.2260  -13.2900 C.2     1  UNL1        0.0310
     24  C         23.2260  -20.8190  -14.0390 C.2     1  UNL1        0.0270
     25  C         24.5100  -20.9750  -13.5150 C.2     1  UNL1        0.0790
     26  C         24.6910  -21.5730  -12.2660 C.2     1  UNL1        0.0270
     27  C         23.5770  -21.9780  -11.5260 C.2     1  UNL1        0.0310
     28  S         25.9280  -20.4950  -14.4810 S.O2    1  UNL1        0.2600
     29  O         27.1110  -20.9070  -13.7560 O.2     1  UNL1       -0.2000
     30  O         25.7330  -19.1150  -14.8720 O.2     1  UNL1       -0.2000
     31  N         25.7920  -21.4620  -15.8700 N.3     1  UNL1       -0.3070
     32  C         24.9400  -20.9560  -16.9700 C.3     1  UNL1        0.1350
     33  C         24.9900  -21.9160  -18.1520 C.3     1  UNL1        0.0210
     34  C         24.4540  -23.2970  -17.7790 C.3     1  UNL1        0.0030
     35  C         24.6140  -23.6050  -16.2910 C.3     1  UNL1        0.0210
     36  C         25.8500  -22.9340  -15.7040 C.3     1  UNL1        0.1350
@<TRIPOS>BOND
     1    33    34    1
     2    33    32    1
     3    34    35    1
     4    32    31    1
     5    35    36    1
     6    31    36    1
     7    31    28    1
     8    30    28    2
     9    28    29    2
    10    28    25    1
    11    24    25    2
    12    24    23    1
    13    25    26    1
    14    23    22    2
    15    26    27    2
    16     1     2    2
    17    22    27    1
    18    22     3    1
    19     2     3   am
    20     2     5    1
    21     3     4    1
    22     5    10    2
    23     5     6    1
    24    10     9    1
    25     6     7    2
    26     9     8    2
    27     7     8    1
    28     8    11    1
    29    11    12    1
    30    21    20    2
    31    21    18    1
    32    12    18    1
    33    12    13    1
    34    20    19    1
    35    18    16    2
    36    13    14    1
    37    14    15    1
    38    19    17    2
    39    16    17    1
    40    16    15    1
