@<TRIPOS>MOLECULE
71780_out_ligand_01.pdbqt
 32 34 0 0 0
SMALL
GASTEIGER

@<TRIPOS>ATOM
      1  C         16.6950  -20.9740  -11.0260 C.3     1  UNL1        0.0500
      2  C         18.0760  -21.5530  -10.9020 C.2     1  UNL1       -0.0390
      3  C         19.0740  -21.0590  -11.7640 C.2     1  UNL1        0.0090
      4  C         20.3900  -21.5200  -11.6890 C.2     1  UNL1        0.0170
      5  C         20.7480  -22.4720  -10.7350 C.2     1  UNL1        0.0330
      6  C         19.7720  -22.9880   -9.8800 C.2     1  UNL1        0.0420
      7  C         18.4370  -22.5450   -9.9710 C.2     1  UNL1        0.0860
      8  S         17.2930  -23.2910   -8.8100 S.O2    1  UNL1        0.2630
      9  O         17.9840  -24.2510   -7.9800 O.2     1  UNL1       -0.2000
     10  O         16.1320  -23.6930   -9.5810 O.2     1  UNL1       -0.2000
     11  N         16.7860  -21.9880   -7.8720 N.pl3   1  UNL1       -0.2800
     12  H         17.0470  -21.0790   -8.2450 H       1  UNL1        0.1790
     13  C         16.6100  -22.1330   -6.4680 C.2     1  UNL1        0.0490
     14  C         15.3600  -22.5540   -6.0050 C.2     1  UNL1        0.0310
     15  C         15.1370  -22.7350   -4.6440 C.2     1  UNL1        0.0030
     16  C         16.1630  -22.4910   -3.7370 C.2     1  UNL1        0.0070
     17  C         17.4230  -22.0580   -4.1790 C.2     1  UNL1       -0.0540
     18  C         18.4990  -21.8080   -3.1530 C.3     1  UNL1        0.0490
     19  C         17.6590  -21.8710   -5.5630 C.2     1  UNL1       -0.0290
     20  C         19.0180  -21.4020   -6.0170 C.3     1  UNL1        0.0510
     21  C         22.1600  -22.9340  -10.6810 C.2     1  UNL1        0.2510
     22  O         22.5200  -23.6960   -9.7910 O.2     1  UNL1       -0.2680
     23  N         22.9890  -22.4740  -11.6820 N.am    1  UNL1       -0.3530
     24  H         22.5750  -22.0540  -12.5040 H       1  UNL1        0.1630
     25  C         24.3410  -22.9660  -11.8240 C.3     1  UNL1        0.1610
     26  C         24.7440  -23.0020  -13.2770 C.2     1  UNL1       -0.0400
     27  C         24.4950  -21.9050  -14.1180 C.2     1  UNL1        0.0120
     28  C         24.8460  -21.9570  -15.4670 C.2     1  UNL1        0.0430
     29  C         25.4400  -23.1060  -15.9780 C.2     1  UNL1        0.1160
     30  F         25.7750  -23.1540  -17.2740 F       1  UNL1       -0.2060
     31  C         25.6870  -24.2060  -15.1660 C.2     1  UNL1        0.0430
     32  C         25.3350  -24.1570  -13.8160 C.2     1  UNL1        0.0120
@<TRIPOS>BOND
     1    30    29    1
     2    29    28    2
     3    29    31    1
     4    28    27    1
     5    31    32    2
     6    27    26    2
     7    32    26    1
     8    26    25    1
     9    24    23    1
    10    25    23    1
    11     3     4    1
    12     3     2    2
    13     4     5    2
    14    23    21   am
    15     1     2    1
    16     2     7    1
    17     5    21    1
    18     5     6    1
    19    21    22    2
    20     7     6    2
    21     7     8    1
    22    10     8    2
    23     8     9    2
    24     8    11    1
    25    12    11    1
    26    11    13    1
    27    13    14    2
    28    13    19    1
    29    20    19    1
    30    14    15    1
    31    19    17    2
    32    15    16    2
    33    17    16    1
    34    17    18    1
