@<TRIPOS>MOLECULE
71801_out_ligand_01.pdbqt
 34 37 0 0 0
SMALL
GASTEIGER

@<TRIPOS>ATOM
      1  C         18.8810  -22.2710  -10.5190 C.2     1  UNL1        0.0860
      2  C         20.1800  -22.7550  -10.2900 C.2     1  UNL1        0.0420
      3  C         21.2650  -22.2370  -11.0030 C.2     1  UNL1        0.0330
      4  C         21.0560  -21.1930  -11.9090 C.2     1  UNL1        0.0170
      5  C         19.7670  -20.6980  -12.1240 C.2     1  UNL1        0.0090
      6  C         18.6570  -21.2360  -11.4490 C.2     1  UNL1       -0.0390
      7  C         17.3020  -20.6520  -11.7380 C.3     1  UNL1        0.0500
      8  C         22.6150  -22.8110  -10.7560 C.2     1  UNL1        0.2520
      9  O         22.7830  -23.6300   -9.8610 O.2     1  UNL1       -0.2680
     10  N         23.6170  -22.3960  -11.6030 N.am    1  UNL1       -0.3480
     11  H         23.4060  -21.8170  -12.4020 H       1  UNL1        0.1630
     12  C         24.9790  -22.9010  -11.4910 C.3     1  UNL1        0.1180
     13  C         25.8570  -21.9470  -10.6640 C.3     1  UNL1        0.0300
     14  C         26.2030  -20.6950  -11.4630 C.3     1  UNL1        0.0070
     15  C         27.0160  -21.0590  -12.7030 C.3     1  UNL1        0.0390
     16  C         26.4530  -22.2300  -13.4690 C.2     1  UNL1       -0.0500
     17  C         26.9100  -22.4670  -14.7750 C.2     1  UNL1        0.0070
     18  C         25.5340  -23.1240  -12.8870 C.2     1  UNL1       -0.0290
     19  C         26.4480  -23.5630  -15.5050 C.2     1  UNL1        0.0010
     20  C         25.5300  -24.4400  -14.9350 C.2     1  UNL1        0.0010
     21  C         25.0740  -24.2220  -13.6360 C.2     1  UNL1        0.0100
     22  S         17.5520  -23.0280   -9.5860 S.O2    1  UNL1        0.2630
     23  O         16.9390  -24.0490  -10.4100 O.2     1  UNL1       -0.2000
     24  O         16.7470  -21.9750   -9.0040 O.2     1  UNL1       -0.2000
     25  N         18.3720  -23.8400   -8.3490 N.pl3   1  UNL1       -0.2810
     26  H         19.2220  -24.2910   -8.6800 H       1  UNL1        0.1790
     27  C         18.3730  -23.2800   -7.0400 C.2     1  UNL1        0.0430
     28  C         17.6450  -23.8650   -6.0100 C.2     1  UNL1        0.0300
     29  C         17.6020  -23.2550   -4.7550 C.2     1  UNL1        0.0090
     30  C         18.2870  -22.0510   -4.5170 C.2     1  UNL1       -0.0560
     31  C         18.2040  -21.4190   -3.1530 C.3     1  UNL1        0.0490
     32  C         19.0460  -21.4720   -5.5530 C.2     1  UNL1       -0.0540
     33  C         19.0760  -22.0940   -6.8140 C.2     1  UNL1        0.0370
     34  C         19.8000  -20.1820   -5.3490 C.3     1  UNL1        0.0490
@<TRIPOS>BOND
     1    19    20    2
     2    19    17    1
     3    20    21    1
     4    17    16    2
     5    21    18    2
     6    16    18    1
     7    16    15    1
     8    18    12    1
     9    15    14    1
    10    11    10    1
    11     5     4    2
    12     5     6    1
    13     4     3    1
    14     7     6    1
    15    10    12    1
    16    10     8   am
    17    12    13    1
    18    14    13    1
    19     6     1    2
    20     3     8    1
    21     3     2    2
    22     8     9    2
    23     1     2    1
    24     1    22    1
    25    23    22    2
    26    22    24    2
    27    22    25    1
    28    26    25    1
    29    25    27    1
    30    27    33    2
    31    27    28    1
    32    33    32    1
    33    28    29    2
    34    32    34    1
    35    32    30    2
    36    29    30    1
    37    30    31    1
