@<TRIPOS>MOLECULE
71805_out_ligand_01.pdbqt
 30 32 0 0 0
SMALL
GASTEIGER

@<TRIPOS>ATOM
      1  C         21.0720  -23.1610   -9.8320 C.2     1  UNL1        0.0340
      2  C         20.0710  -22.4290  -10.4730 C.2     1  UNL1        0.0310
      3  C         18.7430  -22.5080  -10.0420 C.2     1  UNL1        0.0270
      4  C         18.4160  -23.3210   -8.9600 C.2     1  UNL1        0.0750
      5  C         19.4020  -24.0630   -8.3110 C.2     1  UNL1        0.0270
      6  C         20.7270  -23.9760   -8.7480 C.2     1  UNL1        0.0310
      7  N         22.4300  -23.1410  -10.2100 N.am    1  UNL1       -0.3270
      8  C         23.3550  -22.1340   -9.9900 C.2     1  UNL1        0.2260
      9  O         23.1510  -21.0680   -9.4160 O.2     1  UNL1       -0.2730
     10  H         22.7670  -23.9590  -10.6970 H       1  UNL1        0.1690
     11  C         24.7290  -22.4680  -10.5550 C.3     1  UNL1        0.1410
     12  C         25.1750  -21.4870  -11.6080 C.2     1  UNL1       -0.0490
     13  C         26.1460  -20.5270  -11.3000 C.2     1  UNL1        0.0080
     14  C         26.5670  -19.6100  -12.2650 C.2     1  UNL1        0.0070
     15  C         26.0280  -19.6380  -13.5570 C.2     1  UNL1       -0.0620
     16  C         26.5010  -18.6550  -14.5840 C.3     1  UNL1        0.0480
     17  C         25.0780  -20.6110  -13.8730 C.2     1  UNL1        0.0070
     18  C         24.6490  -21.5260  -12.9050 C.2     1  UNL1        0.0080
     19  S         16.7290  -23.4200   -8.4160 S.O2    1  UNL1        0.2450
     20  O         16.5750  -24.5990   -7.5900 O.2     1  UNL1       -0.2060
     21  O         15.8990  -23.2040   -9.5810 O.2     1  UNL1       -0.2060
     22  N         16.5680  -22.0320   -7.4520 N.pl3   1  UNL1       -0.1800
     23  H         15.8190  -21.4550   -7.8440 H       1  UNL1        0.1460
     24  C         16.5100  -22.2340   -6.0330 C.2     1  UNL1        0.0440
     25  C         15.2950  -22.6030   -5.4510 C.2     1  UNL1        0.0260
     26  C         15.2020  -22.7520   -4.0670 C.2     1  UNL1        0.0020
     27  C         16.3180  -22.5280   -3.2590 C.2     1  UNL1        0.0020
     28  C         17.5330  -22.1550   -3.8340 C.2     1  UNL1        0.0260
     29  C         17.6290  -22.0040   -5.2180 C.2     1  UNL1        0.0560
     30 CL         19.1530  -21.5620   -5.9000 Cl      1  UNL1       -0.0820
@<TRIPOS>BOND
     1    16    15    1
     2    17    15    2
     3    17    18    1
     4    15    14    1
     5    18    12    2
     6    14    13    2
     7    12    13    1
     8    12    11    1
     9    10     7    1
    10    11     8    1
    11     2     3    1
    12     2     1    2
    13     7     8   am
    14     7     1    1
    15     3     4    2
    16     8     9    2
    17     1     6    1
    18    21    19    2
    19     4    19    1
    20     4     5    1
    21     6     5    2
    22    19    20    2
    23    19    22    1
    24    23    22    1
    25    22    24    1
    26    24    25    2
    27    24    29    1
    28    30    29    1
    29    25    26    1
    30    29    28    2
    31    26    27    2
    32    28    27    1
