@<TRIPOS>MOLECULE
71803_out_ligand_01.pdbqt
 36 39 0 0 0
SMALL
GASTEIGER

@<TRIPOS>ATOM
      1  C         20.9480  -22.5340  -10.6640 C.2     1  UNL1        0.0340
      2  C         20.6940  -23.5040   -9.6820 C.2     1  UNL1        0.0310
      3  C         19.4120  -23.6680   -9.1540 C.2     1  UNL1        0.0270
      4  C         18.3710  -22.8630   -9.6200 C.2     1  UNL1        0.0800
      5  C         18.6160  -21.8640  -10.5620 C.2     1  UNL1        0.0270
      6  C         19.9040  -21.7070  -11.0870 C.2     1  UNL1        0.0310
      7  N         22.2650  -22.4580  -11.1610 N.am    1  UNL1       -0.3250
      8  C         23.3450  -21.7900  -10.5980 C.2     1  UNL1        0.2510
      9  O         23.3200  -21.1390   -9.5560 O.2     1  UNL1       -0.2700
     10  H         22.4210  -22.9160  -12.0500 H       1  UNL1        0.1690
     11  C         24.6380  -21.9370  -11.4370 C.3     1  UNL1        0.2200
     12  C         25.7460  -21.0490  -10.8490 C.3     1  UNL1        0.0380
     13  C         26.2960  -20.0230  -11.8290 C.3     1  UNL1        0.0080
     14  O         24.4430  -21.5000  -12.7910 O.2     1  UNL1       -0.3350
     15  C         24.7890  -22.4720  -13.6960 C.2     1  UNL1        0.0910
     16  C         24.9880  -23.7660  -13.2080 C.2     1  UNL1        0.0380
     17  C         25.3040  -24.8010  -14.0890 C.2     1  UNL1        0.0030
     18  C         25.4050  -24.5500  -15.4570 C.2     1  UNL1        0.0020
     19  C         25.1780  -23.2620  -15.9500 C.2     1  UNL1        0.0260
     20  C         24.8610  -22.2230  -15.0710 C.2     1  UNL1        0.0670
     21 CL         24.5600  -20.6540  -15.7260 Cl      1  UNL1       -0.0810
     22  S         16.7220  -23.1000   -8.9980 S.O2    1  UNL1        0.2630
     23  O         16.2220  -21.8150   -8.5600 O.2     1  UNL1       -0.2000
     24  O         15.9990  -23.8940   -9.9700 O.2     1  UNL1       -0.2000
     25  N         16.9540  -24.1020   -7.6580 N.pl3   1  UNL1       -0.2800
     26  H         17.7700  -24.7040   -7.7470 H       1  UNL1        0.1790
     27  C         16.6140  -23.6140   -6.3580 C.2     1  UNL1        0.0530
     28  C         15.4160  -24.0540   -5.7900 C.2     1  UNL1        0.0310
     29  C         15.0100  -23.5760   -4.5490 C.2     1  UNL1        0.0030
     30  C         15.7970  -22.6450   -3.8760 C.2     1  UNL1        0.0120
     31  C         16.9980  -22.1760   -4.4310 C.2     1  UNL1       -0.0240
     32  C         17.7700  -21.2220   -3.7450 C.2     1  UNL1        0.0120
     33  C         17.4310  -22.6630   -5.6900 C.2     1  UNL1        0.0010
     34  C         18.9580  -20.7340   -4.2870 C.2     1  UNL1        0.0010
     35  C         19.3970  -21.2020   -5.5180 C.2     1  UNL1        0.0010
     36  C         18.6470  -22.1570   -6.2090 C.2     1  UNL1        0.0140
@<TRIPOS>BOND
     1    19    18    2
     2    19    20    1
     3    21    20    1
     4    18    17    1
     5    20    15    2
     6    17    16    2
     7    15    16    1
     8    15    14    1
     9    14    11    1
    10    10     7    1
    11    13    12    1
    12    11    12    1
    13    11     8    1
    14     7     1    1
    15     7     8   am
    16     6     1    2
    17     6     5    1
    18     1     2    1
    19     8     9    2
    20     5     4    2
    21    24    22    2
    22     2     3    2
    23     4     3    1
    24     4    22    1
    25    22    23    2
    26    22    25    1
    27    26    25    1
    28    25    27    1
    29    27    28    2
    30    27    33    1
    31    36    33    1
    32    36    35    2
    33    28    29    1
    34    33    31    2
    35    35    34    1
    36    29    30    2
    37    31    30    1
    38    31    32    1
    39    34    32    2
