@<TRIPOS>MOLECULE
7182_out_ligand_01.pdbqt
 37 40 0 0 0
SMALL
GASTEIGER

@<TRIPOS>ATOM
      1  C         16.4860  -22.8800   -8.9910 C.2     1  UNL1        0.0900
      2  C         17.7640  -22.7460   -9.3840 C.2     1  UNL1        0.1050
      3  N         18.8770  -23.3810   -8.8630 N.pl3   1  UNL1       -0.3500
      4  C         20.1480  -23.2620   -9.4400 C.2     1  UNL1        0.0590
      5  C         21.2460  -23.9320   -8.9000 C.2     1  UNL1        0.0330
      6  C         22.5160  -23.7630   -9.4590 C.2     1  UNL1        0.0190
      7  C         22.6970  -22.9200  -10.5640 C.2     1  UNL1        0.0340
      8  C         21.6070  -22.2180  -11.0920 C.2     1  UNL1        0.0490
      9  C         20.3450  -22.3910  -10.5240 C.2     1  UNL1        0.0620
     10  N         19.2490  -21.6840  -11.0380 N.am    1  UNL1       -0.3200
     11  C         17.9690  -21.7910  -10.5500 C.2     1  UNL1        0.2720
     12  O         17.0580  -21.1310  -11.0470 O.2     1  UNL1       -0.2660
     13  H         18.7290  -24.1510   -8.2220 H       1  UNL1        0.1660
     14  H         19.3650  -21.0420  -11.8100 H       1  UNL1        0.1690
     15  C         24.0700  -22.7720  -11.1200 C.2     1  UNL1        0.2510
     16  O         24.4220  -23.4520  -12.0750 O.2     1  UNL1       -0.2680
     17  N         24.8740  -21.8260  -10.5190 N.am    1  UNL1       -0.3570
     18  H         24.4600  -21.1500   -9.8910 H       1  UNL1        0.1620
     19  C         26.1980  -21.5300  -11.0430 C.3     1  UNL1        0.1270
     20  C         26.1980  -20.3140  -11.9730 C.3     1  UNL1        0.0580
     21  C         25.9910  -20.7140  -13.4130 C.2     1  UNL1       -0.0570
     22  C         27.0250  -21.3390  -14.1250 C.2     1  UNL1        0.0090
     23  C         26.8350  -21.7290  -15.4520 C.2     1  UNL1        0.0240
     24  C         25.6090  -21.4980  -16.0720 C.2     1  UNL1        0.0340
     25 CL         25.3730  -21.9790  -17.7070 Cl      1  UNL1       -0.0840
     26  C         24.5710  -20.8820  -15.3750 C.2     1  UNL1        0.0240
     27  C         24.7610  -20.4910  -14.0470 C.2     1  UNL1        0.0090
     28  C         16.0250  -23.7460   -7.8830 C.2     1  UNL1        0.1840
     29  O         15.6350  -24.8820   -8.1270 O.2     1  UNL1       -0.2880
     30  C         16.0220  -23.2330   -6.4890 C.2     1  UNL1        0.0170
     31  C         14.8980  -23.3360   -5.6630 C.2     1  UNL1        0.0150
     32  C         14.9450  -22.8290   -4.3640 C.2     1  UNL1        0.0040
     33  C         16.1130  -22.2300   -3.8820 C.2     1  UNL1        0.0370
     34  C         17.2440  -22.1420   -4.6950 C.2     1  UNL1        0.0690
     35  C         17.1950  -22.6490   -5.9950 C.2     1  UNL1        0.0520
     36  O         18.4410  -21.5830   -4.3460 O.2     1  UNL1       -0.3560
     37  C         19.1390  -20.8660   -5.3570 C.3     1  UNL1        0.2100
@<TRIPOS>BOND
     1    25    24    1
     2    24    23    2
     3    24    26    1
     4    23    22    1
     5    26    27    2
     6    22    21    2
     7    27    21    1
     8    21    20    1
     9    16    15    2
    10    20    19    1
    11    14    10    1
    12    15     7    1
    13    15    17   am
    14     8     7    2
    15     8     9    1
    16    12    11    2
    17    19    17    1
    18    10    11   am
    19    10     9    1
    20     7     6    1
    21    11     2    1
    22     9     4    2
    23    17    18    1
    24     6     5    2
    25     4     5    1
    26     4     3    1
    27     2     1    2
    28     2     3    1
    29     1    28    1
    30     3    13    1
    31    29    28    2
    32    28    30    1
    33    30    35    2
    34    30    31    1
    35    35    34    1
    36    31    32    2
    37    37    36    1
    38    34    36    1
    39    34    33    2
    40    32    33    1
