@<TRIPOS>MOLECULE
71822_out_ligand_01.pdbqt
 42 47 0 0 0
SMALL
GASTEIGER

@<TRIPOS>ATOM
      1  C         22.4630  -22.8790  -10.3000 C.2     1  UNL1        0.0860
      2  C         22.5370  -23.9550   -9.3980 C.2     1  UNL1        0.0260
      3  C         21.3950  -24.4180   -8.7760 C.2     1  UNL1        0.0020
      4  C         20.1680  -23.8330   -9.0760 C.2     1  UNL1        0.0140
      5  C         20.0260  -22.7820  -10.0200 C.2     1  UNL1       -0.0020
      6  C         18.7610  -22.2010  -10.3550 C.2     1  UNL1        0.0860
      7  C         18.6610  -21.1180  -11.2380 C.2     1  UNL1        0.0260
      8  C         19.7970  -20.6220  -11.8420 C.2     1  UNL1        0.0020
      9  C         21.0370  -21.2000  -11.5610 C.2     1  UNL1        0.0140
     10  C         21.2090  -22.2760  -10.6450 C.2     1  UNL1       -0.0020
     11  S         24.0710  -22.3460  -10.9080 S.O2    1  UNL1        0.2460
     12  O         24.2870  -21.0030  -10.4020 O.2     1  UNL1       -0.2060
     13  O         25.0780  -23.3680  -10.7170 O.2     1  UNL1       -0.2060
     14  N         23.8270  -22.2050  -12.5790 N.pl3   1  UNL1       -0.1790
     15  H         22.9560  -22.6690  -12.8660 H       1  UNL1        0.1460
     16  C         24.9280  -22.5060  -13.4650 C.2     1  UNL1        0.0530
     17  C         25.3930  -23.8170  -13.6220 C.2     1  UNL1        0.0460
     18  C         26.4270  -24.0710  -14.5190 C.2     1  UNL1        0.0130
     19 BR         27.0420  -25.8470  -14.7660 Br      1  UNL1       -0.0510
     20  C         27.0100  -23.0290  -15.2430 C.2     1  UNL1        0.0330
     21  C         26.5540  -21.7090  -15.0680 C.2     1  UNL1       -0.0040
     22  C         27.1170  -20.6360  -15.7800 C.2     1  UNL1        0.0150
     23  C         25.5020  -21.4300  -14.1630 C.2     1  UNL1        0.0880
     24  C         26.6370  -19.3440  -15.5790 C.2     1  UNL1        0.0200
     25  C         25.6050  -19.1630  -14.6720 C.2     1  UNL1        0.1170
     26  N         25.0320  -20.1710  -13.9690 N.2     1  UNL1       -0.2580
     27  S         17.2280  -22.8360   -9.6780 S.O2    1  UNL1        0.2460
     28  O         16.4250  -21.7300   -9.1970 O.2     1  UNL1       -0.2060
     29  O         16.7250  -23.7780  -10.6570 O.2     1  UNL1       -0.2060
     30  N         17.7080  -23.7550   -8.3410 N.pl3   1  UNL1       -0.1790
     31  H         17.7080  -24.7530   -8.5880 H       1  UNL1        0.1460
     32  C         17.0620  -23.5180   -7.0720 C.2     1  UNL1        0.0530
     33  C         15.8580  -24.1470   -6.7400 C.2     1  UNL1        0.0460
     34  C         15.2660  -23.8790   -5.5120 C.2     1  UNL1        0.0130
     35 BR         13.6500  -24.7400   -5.0400 Br      1  UNL1       -0.0510
     36  C         15.8550  -22.9810   -4.6240 C.2     1  UNL1        0.0330
     37  C         17.0590  -22.3420   -4.9640 C.2     1  UNL1       -0.0040
     38  C         17.6800  -21.4320   -4.0960 C.2     1  UNL1        0.0150
     39  C         17.6800  -22.6030   -6.2060 C.2     1  UNL1        0.0880
     40  C         18.8720  -20.8230   -4.4690 C.2     1  UNL1        0.0200
     41  C         19.4050  -21.1340   -5.7040 C.2     1  UNL1        0.1170
     42  N         18.8340  -21.9970   -6.5720 N.2     1  UNL1       -0.2580
@<TRIPOS>BOND
     1    22    24    2
     2    22    21    1
     3    24    25    1
     4    20    21    2
     5    20    18    1
     6    21    23    1
     7    19    18    1
     8    25    26    2
     9    18    17    2
    10    23    26    1
    11    23    16    2
    12    17    16    1
    13    16    14    1
    14    15    14    1
    15    14    11    1
    16     8     9    2
    17     8     7    1
    18     9    10    1
    19     7     6    2
    20    11    13    2
    21    11    12    2
    22    11     1    1
    23    29    27    2
    24    10     1    2
    25    10     5    1
    26     6     5    1
    27     6    27    1
    28     1     2    1
    29     5     4    2
    30    27    28    2
    31    27    30    1
    32     2     3    2
    33     4     3    1
    34    31    30    1
    35    30    32    1
    36    32    33    2
    37    32    39    1
    38    33    34    1
    39    42    39    1
    40    42    41    2
    41    39    37    2
    42    41    40    1
    43    34    35    1
    44    34    36    2
    45    37    36    1
    46    37    38    1
    47    40    38    2
