@<TRIPOS>MOLECULE
71872_out_ligand_01.pdbqt
 35 38 0 0 0
SMALL
GASTEIGER

@<TRIPOS>ATOM
      1  C         21.8530  -22.4050  -11.2600 C.2     1  UNL1        0.0800
      2  C         20.7230  -21.7770  -11.7880 C.2     1  UNL1        0.0270
      3  C         19.4780  -21.9620  -11.1800 C.2     1  UNL1        0.0310
      4  C         19.3570  -22.7610  -10.0400 C.2     1  UNL1        0.0340
      5  C         20.5020  -23.3760   -9.5140 C.2     1  UNL1        0.0310
      6  C         21.7500  -23.1980  -10.1160 C.2     1  UNL1        0.0270
      7  N         18.1430  -22.9900   -9.3650 N.am    1  UNL1       -0.3270
      8  C         16.9020  -22.4310   -9.6200 C.2     1  UNL1        0.2310
      9  O         16.6290  -21.6760  -10.5490 O.2     1  UNL1       -0.2720
     10  H         18.1880  -23.5820   -8.5420 H       1  UNL1        0.1690
     11  C         15.8120  -22.9130   -8.6650 C.3     1  UNL1        0.1820
     12  S         16.3570  -24.3310   -7.6440 S.3     1  UNL1       -0.1180
     13  C         16.3950  -23.5400   -6.0190 C.2     1  UNL1        0.0300
     14  C         15.3650  -23.8920   -5.1320 C.2     1  UNL1        0.0210
     15  C         15.3190  -23.3430   -3.8560 C.2     1  UNL1        0.0020
     16  C         16.2970  -22.4340   -3.4660 C.2     1  UNL1        0.0140
     17  C         17.3230  -22.0640   -4.3530 C.2     1  UNL1       -0.0060
     18  C         18.3030  -21.1430   -3.9600 C.2     1  UNL1        0.0150
     19  C         17.3880  -22.6100   -5.6560 C.2     1  UNL1        0.0830
     20  C         19.3090  -20.7780   -4.8440 C.2     1  UNL1        0.0200
     21  C         19.3010  -21.3510   -6.0970 C.2     1  UNL1        0.1170
     22  N         18.3740  -22.2420   -6.5100 N.2     1  UNL1       -0.2590
     23  S         23.4360  -22.1390  -12.0210 S.O2    1  UNL1        0.2760
     24  O         23.9640  -23.4070  -12.4800 O.2     1  UNL1       -0.2000
     25  O         24.2030  -21.3300  -11.0930 O.2     1  UNL1       -0.2000
     26  N         23.0980  -21.1550  -13.3120 N.pl3   1  UNL1       -0.1090
     27  H         22.6590  -20.2780  -13.0580 H       1  UNL1        0.1980
     28  C         24.0770  -21.0180  -14.2870 C.cat   1  UNL1        0.7360
     29  N         24.8730  -19.9640  -14.0900 N.2     1  UNL1       -0.0670
     30  C         25.7530  -19.6980  -15.0760 C.2     1  UNL1        0.0510
     31  C         25.8030  -20.4400  -16.2420 C.2     1  UNL1        0.0540
     32  C         26.6910  -18.5470  -14.8720 C.3     1  UNL1        0.0710
     33  C         24.8950  -21.4760  -16.3580 C.2     1  UNL1        0.0510
     34  C         24.8640  -22.3220  -17.5950 C.3     1  UNL1        0.0710
     35  N         24.0040  -21.7640  -15.3900 N.2     1  UNL1       -0.0670
@<TRIPOS>BOND
     1    34    33    1
     2    33    31    1
     3    33    35    2
     4    31    30    2
     5    35    28    1
     6    30    32    1
     7    30    29    1
     8    28    29    2
     9    28    26    1
    10    26    27    1
    11    26    23    1
    12    24    23    2
    13    23     1    1
    14    23    25    2
    15     2     1    2
    16     2     3    1
    17     1     6    1
    18     3     4    2
    19     9     8    2
    20     6     5    2
    21     4     5    1
    22     4     7    1
    23     8     7   am
    24     8    11    1
    25     7    10    1
    26    11    12    1
    27    12    13    1
    28    22    21    2
    29    22    19    1
    30    21    20    1
    31    13    19    2
    32    13    14    1
    33    19    17    1
    34    14    15    2
    35    20    18    2
    36    17    18    1
    37    17    16    2
    38    15    16    1
