@<TRIPOS>MOLECULE
71915_out_ligand_01.pdbqt
 32 35 0 0 0
SMALL
GASTEIGER

@<TRIPOS>ATOM
      1  N         27.1200  -23.9200  -10.3920 N.1     1  UNL1       -0.1910
      2  C         26.5770  -23.3780  -11.2640 C.1     1  UNL1        0.1020
      3  C         25.8760  -22.7400  -12.3370 C.2     1  UNL1        0.0740
      4  C         26.6320  -22.1260  -13.3530 C.2     1  UNL1        0.0640
      5  C         25.9490  -21.5310  -14.3890 C.2     1  UNL1        0.1060
      6  C         24.5750  -21.5350  -14.4430 C.2     1  UNL1        0.1070
      7  C         23.8030  -22.1300  -13.4640 C.2     1  UNL1        0.0710
      8  C         24.4560  -22.7330  -12.3810 C.2     1  UNL1        0.0660
      9  O         24.1030  -20.9090  -15.5550 O.2     1  UNL1       -0.3230
     10  C         25.3350  -20.4790  -16.1780 C.3     1  UNL1        0.3520
     11  O         26.5120  -20.9020  -15.4540 O.2     1  UNL1       -0.3230
     12  N         23.6950  -23.3800  -11.3490 N.pl3   1  UNL1       -0.2790
     13  H         23.8960  -24.3590  -11.1320 H       1  UNL1        0.1790
     14  S         23.3020  -22.5440   -9.9340 S.O2    1  UNL1        0.2630
     15  O         23.5740  -23.4470   -8.8380 O.2     1  UNL1       -0.2000
     16  O         23.8750  -21.2170   -9.9870 O.2     1  UNL1       -0.2000
     17  C         21.5340  -22.3980  -10.0370 C.2     1  UNL1        0.0800
     18  C         20.9670  -21.8520  -11.1930 C.2     1  UNL1        0.0250
     19  C         19.5820  -21.7220  -11.2830 C.2     1  UNL1        0.0030
     20  C         18.7740  -22.1510  -10.2290 C.2     1  UNL1        0.0170
     21  C         19.3440  -22.7280   -9.0840 C.2     1  UNL1        0.0330
     22  C         20.7350  -22.8430   -8.9800 C.2     1  UNL1        0.0420
     23  C         18.4310  -23.1770   -7.9910 C.2     1  UNL1        0.2560
     24  O         18.4080  -24.3710   -7.7190 O.2     1  UNL1       -0.2670
     25  N         17.7210  -22.1670   -7.3660 N.am    1  UNL1       -0.3230
     26  H         17.9220  -21.2160   -7.6450 H       1  UNL1        0.1690
     27  C         16.7930  -22.2980   -6.3090 C.2     1  UNL1        0.0350
     28  C         15.4150  -22.4230   -6.4870 C.2     1  UNL1        0.0290
     29  C         14.5650  -22.5510   -5.3810 C.2     1  UNL1        0.0020
     30  C         15.0830  -22.5490   -4.0910 C.2     1  UNL1        0.0000
     31  C         16.4570  -22.4200   -3.9030 C.2     1  UNL1        0.0020
     32  C         17.3070  -22.2960   -5.0070 C.2     1  UNL1        0.0290
@<TRIPOS>BOND
     1    10     9    1
     2    10    11    1
     3     9     6    1
     4    11     5    1
     5     6     5    2
     6     6     7    1
     7     5     4    1
     8     7     8    2
     9     4     3    2
    10     8     3    1
    11     8    12    1
    12     3     2    1
    13    12    13    1
    14    12    14    1
    15    19    18    1
    16    19    20    2
    17     2     1    3
    18    18    17    2
    19    20    21    1
    20    17    14    1
    21    17    22    1
    22    16    14    2
    23    14    15    2
    24    21    22    2
    25    21    23    1
    26    23    24    2
    27    23    25   am
    28    26    25    1
    29    25    27    1
    30    28    27    2
    31    28    29    1
    32    27    32    1
    33    29    30    2
    34    32    31    2
    35    30    31    1
