@<TRIPOS>MOLECULE
7191_out_ligand_01.pdbqt
 29 32 0 0 0
SMALL
GASTEIGER

@<TRIPOS>ATOM
      1  C         21.2760  -22.1390  -11.2000 C.2     1  UNL1        0.0340
      2  C         20.6860  -21.4490  -12.2630 C.2     1  UNL1        0.0170
      3  C         19.3640  -21.0170  -12.1570 C.2     1  UNL1        0.0030
      4  C         18.6250  -21.2790  -10.9990 C.2     1  UNL1        0.0290
      5  C         19.1930  -21.9860   -9.9400 C.2     1  UNL1        0.0360
      6  C         20.5220  -22.4160  -10.0490 C.2     1  UNL1        0.0460
      7  N         18.5170  -22.3000   -8.7440 N.am    1  UNL1       -0.3220
      8  C         17.2590  -22.8710   -8.6010 C.2     1  UNL1        0.2760
      9  O         16.5320  -23.2350   -9.5190 O.2     1  UNL1       -0.2660
     10  H         19.0350  -22.1450   -7.8860 H       1  UNL1        0.1690
     11  C         16.8590  -23.0220   -7.1890 C.ar    1  UNL1        0.1440
     12  N         15.8340  -23.8280   -6.8920 N.ar    1  UNL1       -0.2050
     13  S         15.6090  -23.8570   -5.2600 S.2     1  UNL1        0.0120
     14  C         16.8780  -22.7720   -4.8670 C.ar    1  UNL1        0.0360
     15  C         17.2940  -22.3100   -3.6060 C.2     1  UNL1        0.0210
     16  C         17.4940  -22.3680   -6.0550 C.ar    1  UNL1        0.0170
     17  C         18.3560  -21.4060   -3.5470 C.2     1  UNL1        0.0010
     18  C         18.9800  -20.9690   -4.7080 C.2     1  UNL1        0.0010
     19  C         18.5600  -21.4360   -5.9580 C.2     1  UNL1        0.0150
     20  C         22.6840  -22.6240  -11.2480 C.2     1  UNL1        0.2520
     21  O         23.1460  -23.2670  -10.3130 O.2     1  UNL1       -0.2680
     22  N         23.4190  -22.2780  -12.3600 N.am    1  UNL1       -0.3520
     23  H         23.0910  -21.5240  -12.9490 H       1  UNL1        0.1630
     24  C         24.8290  -22.5870  -12.4200 C.3     1  UNL1        0.1690
     25  C         25.5920  -21.3080  -12.3140 C.2     1  UNL1        0.0000
     26  C         26.0540  -20.6810  -11.1730 C.2     1  UNL1        0.0170
     27  C         26.7500  -19.4710  -11.4620 C.2     1  UNL1        0.0080
     28  C         26.7970  -19.2150  -12.8140 C.2     1  UNL1        0.0500
     29  S         26.0080  -20.4270  -13.7260 S.3     1  UNL1       -0.1050
@<TRIPOS>BOND
     1    29    28    1
     2    29    25    1
     3    23    22    1
     4    28    27    2
     5    24    22    1
     6    24    25    1
     7    22    20   am
     8    25    26    2
     9     2     3    1
    10     2     1    2
    11     3     4    2
    12    27    26    1
    13    20     1    1
    14    20    21    2
    15     1     6    1
    16     4     5    1
    17     6     5    2
    18     5     7    1
    19     9     8    2
    20     7     8   am
    21     7    10    1
    22     8    11    1
    23    11    12   ar
    24    11    16   ar
    25    12    13   ar
    26    16    19    1
    27    16    14   ar
    28    19    18    2
    29    13    14   ar
    30    14    15    1
    31    18    17    1
    32    15    17    2
