@<TRIPOS>MOLECULE
7192_out_ligand_01.pdbqt
 33 37 0 0 0
SMALL
GASTEIGER

@<TRIPOS>ATOM
      1  C         23.3660  -22.8300  -11.3850 C.2     1  UNL1        0.0360
      2  C         22.2280  -22.4330  -10.7820 C.2     1  UNL1        0.0740
      3  S         21.4490  -20.9370  -11.0900 S.3     1  UNL1       -0.0830
      4  C         19.7630  -21.4760  -10.9910 C.2     1  UNL1        0.0320
      5  C         18.8200  -20.6950  -11.6810 C.2     1  UNL1        0.0210
      6  C         17.4630  -20.9930  -11.6200 C.2     1  UNL1        0.0020
      7  C         17.0400  -22.0720  -10.8580 C.2     1  UNL1        0.0020
      8  C         17.9740  -22.8500  -10.1660 C.2     1  UNL1        0.0310
      9  C         19.3550  -22.5810  -10.2250 C.2     1  UNL1        0.0550
     10  N         20.3060  -23.3890   -9.5110 N.am    1  UNL1       -0.3080
     11  C         21.6870  -23.3220   -9.7070 C.2     1  UNL1        0.2650
     12  O         22.4770  -24.0200   -9.0620 O.2     1  UNL1       -0.2670
     13  C         24.0920  -22.1060  -12.4330 C.2     1  UNL1       -0.0350
     14  C         23.5660  -22.0550  -13.7300 C.2     1  UNL1        0.0120
     15  C         24.2420  -21.3650  -14.7400 C.2     1  UNL1        0.0180
     16  C         25.4540  -20.7210  -14.4590 C.2     1  UNL1        0.0320
     17  C         25.9680  -20.7510  -13.1560 C.2     1  UNL1        0.0180
     18  C         25.2910  -21.4430  -12.1490 C.2     1  UNL1        0.0120
     19  C         26.2120  -19.9740  -15.5000 C.2     1  UNL1        0.2520
     20  O         26.8940  -20.5830  -16.3160 O.2     1  UNL1       -0.2680
     21  N         26.0550  -18.6000  -15.4940 N.am    1  UNL1       -0.3520
     22  H         25.3340  -18.1900  -14.9160 H       1  UNL1        0.1630
     23  C         26.6870  -17.7640  -16.4650 C.3     1  UNL1        0.0840
     24  C         25.9540  -16.5970  -17.0670 C.3     1  UNL1        0.0270
     25  C         27.0860  -16.3580  -16.1130 C.3     1  UNL1        0.0270
     26  C         19.8370  -24.3680   -8.5170 C.3     1  UNL1        0.1740
     27  C         18.9440  -23.7920   -7.4410 C.2     1  UNL1       -0.0010
     28  C         17.7450  -24.4100   -7.0550 C.2     1  UNL1        0.0120
     29  C         16.9580  -23.8650   -6.0340 C.2     1  UNL1        0.0010
     30  C         17.3640  -22.7040   -5.3780 C.2     1  UNL1        0.0030
     31  C         18.5610  -22.0910   -5.7350 C.2     1  UNL1        0.0430
     32  C         19.3390  -22.6400   -6.7520 C.2     1  UNL1        0.1240
     33  F         20.4900  -22.0310   -7.0750 F       1  UNL1       -0.2050
@<TRIPOS>BOND
     1    24    23    1
     2    24    25    1
     3    23    25    1
     4    23    21    1
     5    20    19    2
     6    19    21   am
     7    19    16    1
     8    21    22    1
     9    15    16    2
    10    15    14    1
    11    16    17    1
    12    14    13    2
    13    17    18    2
    14    13    18    1
    15    13     1    1
    16     5     6    1
    17     5     4    2
    18     6     7    2
    19     1     2    2
    20     3     4    1
    21     3     2    1
    22     4     9    1
    23     7     8    1
    24     2    11    1
    25     9     8    2
    26     9    10    1
    27    11    10   am
    28    11    12    2
    29    10    26    1
    30    26    27    1
    31    27    28    2
    32    27    32    1
    33    33    32    1
    34    28    29    1
    35    32    31    2
    36    29    30    2
    37    31    30    1
