@<TRIPOS>MOLECULE
71929_out_ligand_01.pdbqt
 39 43 0 0 0
SMALL
GASTEIGER

@<TRIPOS>ATOM
      1  N         14.9290  -22.6050   -7.6560 N.1     1  UNL1       -0.1910
      2  C         16.0370  -22.5860   -8.0040 C.1     1  UNL1        0.1060
      3  C         17.4080  -22.5540   -8.3830 C.2     1  UNL1        0.1230
      4  C         18.4300  -22.4520   -7.5000 C.2     1  UNL1        0.0030
      5  C         19.8080  -22.4130   -7.9820 C.2     1  UNL1        0.0440
      6  C         20.0800  -22.4680   -9.2940 C.2     1  UNL1        0.0460
      7  N         19.0500  -22.5750  -10.1900 N.am    1  UNL1       -0.3220
      8  C         17.7220  -22.6270   -9.8420 C.2     1  UNL1        0.2670
      9  O         16.8530  -22.7270  -10.7030 O.2     1  UNL1       -0.2660
     10  H         19.2470  -22.6080  -11.1830 H       1  UNL1        0.1690
     11  C         18.1560  -22.3680   -6.0480 C.2     1  UNL1       -0.0230
     12  C         18.7360  -21.3440   -5.2840 C.2     1  UNL1        0.0120
     13  C         18.4850  -21.2620   -3.9130 C.2     1  UNL1        0.0030
     14  C         17.6600  -22.2030   -3.2970 C.2     1  UNL1        0.0240
     15  C         17.0900  -23.2260   -4.0540 C.2     1  UNL1        0.0340
     16 CL         16.0790  -24.3900   -3.2890 Cl      1  UNL1       -0.0840
     17  C         17.3360  -23.3170   -5.4250 C.2     1  UNL1        0.0360
     18  C         21.4550  -22.4300   -9.8150 C.2     1  UNL1       -0.0090
     19  C         22.5520  -22.3640   -8.9500 C.2     1  UNL1        0.0160
     20  C         23.8550  -22.2960   -9.4580 C.2     1  UNL1        0.0300
     21  C         24.0940  -22.2830  -10.8390 C.2     1  UNL1        0.0320
     22  C         22.9940  -22.3720  -11.6970 C.2     1  UNL1        0.0300
     23  C         21.6880  -22.4360  -11.1950 C.2     1  UNL1        0.0160
     24  N         25.4240  -22.2390  -11.2970 N.pl3   1  UNL1       -0.3550
     25  H         26.0330  -21.6510  -10.7430 H       1  UNL1        0.1660
     26  C         25.9910  -22.6840  -12.5140 C.2     1  UNL1        0.0460
     27  C         26.5160  -23.9740  -12.6050 C.2     1  UNL1        0.0490
     28  C         27.0580  -24.3880  -13.8040 C.2     1  UNL1        0.1190
     29  N         27.0990  -23.6220  -14.9120 N.2     1  UNL1       -0.2600
     30  C         26.5760  -22.3900  -14.8470 C.2     1  UNL1        0.0690
     31  C         26.6010  -21.6140  -15.9990 C.2     1  UNL1        0.0480
     32  C         25.9990  -21.8570  -13.6720 C.2     1  UNL1        0.0190
     33  C         26.0570  -20.3190  -16.0490 C.2     1  UNL1        0.0500
     34  C         25.4840  -19.7920  -14.8900 C.2     1  UNL1        0.0170
     35  C         25.4500  -20.5520  -13.7190 C.2     1  UNL1        0.0170
     36  C         26.1190  -19.5090  -17.3190 C.3     1  UNL1        0.4170
     37  F         26.3270  -18.1810  -17.1030 F       1  UNL1       -0.1660
     38  F         27.1210  -19.9100  -18.1530 F       1  UNL1       -0.1660
     39  F         24.9710  -19.5970  -18.0460 F       1  UNL1       -0.1660
@<TRIPOS>BOND
     1    38    36    1
     2    39    36    1
     3    36    37    1
     4    36    33    1
     5    33    31    2
     6    33    34    1
     7    31    30    1
     8    29    30    2
     9    29    28    1
    10    34    35    2
    11    30    32    1
    12    28    27    2
    13    35    32    1
    14    32    26    2
    15    27    26    1
    16    26    24    1
    17    22    23    1
    18    22    21    2
    19    24    21    1
    20    24    25    1
    21    23    18    2
    22    10     7    1
    23    21    20    1
    24     9     8    2
    25     7     8   am
    26     7     6    1
    27     8     3    1
    28    18     6    1
    29    18    19    1
    30    20    19    2
    31     6     5    2
    32     3     2    1
    33     3     4    2
    34     2     1    3
    35     5     4    1
    36     4    11    1
    37    11    17    2
    38    11    12    1
    39    17    15    1
    40    12    13    2
    41    15    14    2
    42    15    16    1
    43    13    14    1
