@<TRIPOS>MOLECULE
71935_out_ligand_01.pdbqt
 26 29 0 0 0
SMALL
GASTEIGER

@<TRIPOS>ATOM
      1  C         19.8980  -22.3790   -9.7860 C.2     1  UNL1        0.1600
      2  N         19.0590  -22.6690  -10.8000 N.2     1  UNL1       -0.2400
      3  C         17.7600  -22.8560  -10.4820 C.2     1  UNL1        0.1390
      4  C         17.2790  -22.7640   -9.1970 C.ar    1  UNL1        0.0870
      5  C         15.8640  -22.9750   -8.8910 C.ar    1  UNL1        0.3020
      6  O         15.0560  -23.2410   -9.7710 O.2     1  UNL1       -0.2590
      7  O         15.4960  -22.8560   -7.5550 O.2     1  UNL1       -0.2740
      8  C         16.4250  -22.5490   -6.5360 C.ar    1  UNL1        0.0920
      9  C         15.9250  -22.4580   -5.2370 C.2     1  UNL1        0.0380
     10  C         16.7980  -22.1570   -4.1960 C.2     1  UNL1        0.0030
     11  C         18.1530  -21.9510   -4.4620 C.2     1  UNL1        0.0010
     12  C         18.6370  -22.0470   -5.7710 C.2     1  UNL1        0.0170
     13  C         17.7740  -22.3490   -6.8340 C.ar    1  UNL1        0.0280
     14  C         18.2010  -22.4660   -8.2220 C.ar    1  UNL1        0.0900
     15  N         19.5140  -22.2710   -8.4970 N.2     1  UNL1       -0.2270
     16  C         21.3260  -22.1690  -10.1030 C.2     1  UNL1        0.0120
     17  C         22.2740  -21.9210   -9.0920 C.2     1  UNL1        0.0160
     18  C         23.6290  -21.7230   -9.3900 C.2     1  UNL1        0.0180
     19  C         24.0730  -21.7590  -10.7140 C.2     1  UNL1        0.0310
     20  C         23.1550  -22.0170  -11.7350 C.2     1  UNL1        0.0180
     21  C         21.8010  -22.2160  -11.4300 C.2     1  UNL1        0.0160
     22  C         25.5190  -21.5420  -10.9820 C.2     1  UNL1        0.2490
     23  N         26.3950  -22.4950  -10.5390 N.am    1  UNL1       -0.3660
     24  H         27.3520  -22.3870  -10.8500 H       1  UNL1        0.1590
     25  H         26.0920  -23.4270  -10.2940 H       1  UNL1        0.1590
     26  O         25.9200  -20.5680  -11.6070 O.2     1  UNL1       -0.2680
@<TRIPOS>BOND
     1    20    21    1
     2    20    19    2
     3    26    22    2
     4    21    16    2
     5    22    19    1
     6    22    23   am
     7    24    23    1
     8     2     3    1
     9     2     1    2
    10    19    18    1
    11    23    25    1
    12     3     4    2
    13    16     1    1
    14    16    17    1
    15     1    15    1
    16     6     5    2
    17    18    17    2
    18     4     5   ar
    19     4    14   ar
    20     5     7   ar
    21    15    14    2
    22    14    13   ar
    23     7     8   ar
    24    13     8   ar
    25    13    12    1
    26     8     9    1
    27    12    11    2
    28     9    10    2
    29    11    10    1
