@<TRIPOS>MOLECULE
71938_out_ligand_01.pdbqt
 27 30 0 0 0
SMALL
GASTEIGER

@<TRIPOS>ATOM
      1  C         18.0230  -22.1590  -10.5270 C.2     1  UNL1       -0.0400
      2  C         18.3270  -21.2340  -11.5330 C.2     1  UNL1        0.0100
      3  C         19.6280  -21.1350  -12.0340 C.2     1  UNL1        0.0160
      4  C         20.6560  -21.9510  -11.5390 C.2     1  UNL1        0.0170
      5  C         20.3480  -22.8680  -10.5240 C.2     1  UNL1        0.0160
      6  C         19.0460  -22.9680  -10.0190 C.2     1  UNL1        0.0100
      7  C         16.6320  -22.2430   -9.9600 C.3     1  UNL1        0.1610
      8  N         16.6570  -22.0860   -8.5260 N.am    1  UNL1       -0.3530
      9  C         16.3060  -23.1230   -7.6970 C.2     1  UNL1        0.2530
     10  O         16.0850  -24.2610   -8.0980 O.2     1  UNL1       -0.2680
     11  H         16.7340  -21.1490   -8.1500 H       1  UNL1        0.1630
     12  C         16.2650  -22.8290   -6.2420 C.2     1  UNL1        0.0490
     13  C         15.0300  -23.0430   -5.6070 C.2     1  UNL1        0.0180
     14  C         14.8830  -22.8140   -4.2380 C.2     1  UNL1        0.0010
     15  C         15.9670  -22.3590   -3.4920 C.2     1  UNL1        0.0010
     16  C         17.1930  -22.1230   -4.1160 C.2     1  UNL1        0.0200
     17  C         17.3480  -22.3490   -5.4900 C.2     1  UNL1        0.0260
     18 BR         19.0400  -21.9130   -6.2360 Br      1  UNL1       -0.0500
     19  C         22.0060  -21.8220  -12.0850 C.ar    1  UNL1        0.1800
     20  N         23.1600  -22.1470  -11.5280 N.ar    1  UNL1       -0.2200
     21  C         24.0900  -21.8130  -12.4830 C.ar    1  UNL1        0.1110
     22  C         25.4800  -21.9080  -12.5120 C.2     1  UNL1        0.1500
     23  C         23.4540  -21.2930  -13.5960 C.ar    1  UNL1        0.1090
     24  N         26.1610  -21.4910  -13.6170 N.2     1  UNL1       -0.2710
     25  C         25.4720  -20.9910  -14.6750 C.2     1  UNL1        0.1190
     26  C         24.0940  -20.8570  -14.7410 C.2     1  UNL1        0.0590
     27  O         22.1120  -21.2950  -13.3490 O.2     1  UNL1       -0.2890
@<TRIPOS>BOND
     1    26    25    2
     2    26    23    1
     3    25    24    1
     4    24    22    2
     5    23    27   ar
     6    23    21   ar
     7    27    19   ar
     8    22    21    1
     9    21    20   ar
    10    19     4    1
    11    19    20   ar
    12     3     4    2
    13     3     2    1
    14     4     5    1
    15     2     1    2
    16     1     6    1
    17     1     7    1
    18     5     6    2
    19     7     8    1
    20     8    11    1
    21     8     9   am
    22    10     9    2
    23     9    12    1
    24    12    13    2
    25    12    17    1
    26    18    17    1
    27    13    14    1
    28    17    16    2
    29    14    15    2
    30    16    15    1
