@<TRIPOS>MOLECULE
71932_out_ligand_01.pdbqt
 36 40 0 0 0
SMALL
GASTEIGER

@<TRIPOS>ATOM
      1  N         15.0520  -22.8140   -7.5010 N.1     1  UNL1       -0.1910
      2  C         16.1290  -22.7530   -7.9320 C.1     1  UNL1        0.1060
      3  C         17.4670  -22.6670   -8.4100 C.2     1  UNL1        0.1230
      4  C         18.5330  -22.4170   -7.6140 C.2     1  UNL1        0.0030
      5  C         19.8710  -22.3470   -8.1920 C.2     1  UNL1        0.0440
      6  C         20.0670  -22.5300   -9.5070 C.2     1  UNL1        0.0460
      7  N         18.9900  -22.7790  -10.3150 N.am    1  UNL1       -0.3220
      8  C         17.6920  -22.8660   -9.8740 C.2     1  UNL1        0.2670
      9  O         16.7770  -23.0980  -10.6570 O.2     1  UNL1       -0.2660
     10  H         19.1280  -22.9320  -11.3080 H       1  UNL1        0.1690
     11  C         18.3510  -22.2170   -6.1610 C.2     1  UNL1       -0.0230
     12  C         19.0010  -21.1630   -5.5050 C.2     1  UNL1        0.0120
     13  C         18.8370  -20.9810   -4.1300 C.2     1  UNL1        0.0030
     14  C         18.0300  -21.8560   -3.4020 C.2     1  UNL1        0.0240
     15  C         17.3900  -22.9100   -4.0530 C.2     1  UNL1        0.0340
     16 CL         16.4020  -23.9940   -3.1530 Cl      1  UNL1       -0.0840
     17  C         17.5460  -23.0970   -5.4260 C.2     1  UNL1        0.0360
     18  C         21.4000  -22.4560  -10.1200 C.2     1  UNL1       -0.0090
     19  C         21.5430  -22.0550  -11.4540 C.2     1  UNL1        0.0160
     20  C         22.8090  -21.9880  -12.0450 C.2     1  UNL1        0.0300
     21  C         23.9590  -22.3410  -11.3290 C.2     1  UNL1        0.0320
     22  C         23.8150  -22.7110   -9.9860 C.2     1  UNL1        0.0300
     23  C         22.5490  -22.7800   -9.3900 C.2     1  UNL1        0.0160
     24  N         25.2510  -22.2300  -11.8890 N.pl3   1  UNL1       -0.3550
     25  H         25.4450  -22.9830  -12.5460 H       1  UNL1        0.1660
     26  C         25.9070  -21.0480  -12.3380 C.2     1  UNL1        0.0460
     27  C         26.4950  -20.1670  -11.4290 C.2     1  UNL1        0.0490
     28  C         27.0490  -18.9980  -11.9070 C.2     1  UNL1        0.1190
     29  N         27.0420  -18.6410  -13.2070 N.2     1  UNL1       -0.2600
     30  C         26.4620  -19.4680  -14.0890 C.2     1  UNL1        0.0700
     31  C         26.4450  -19.0960  -15.4250 C.2     1  UNL1        0.0560
     32  C         25.8670  -20.6940  -13.7100 C.2     1  UNL1        0.0190
     33  C         25.8580  -19.9050  -16.3940 C.2     1  UNL1        0.0360
     34 CL         25.8580  -19.4060  -18.0410 Cl      1  UNL1       -0.0840
     35  C         25.2760  -21.1150  -16.0420 C.2     1  UNL1        0.0250
     36  C         25.2820  -21.5090  -14.7050 C.2     1  UNL1        0.0180
@<TRIPOS>BOND
     1    34    33    1
     2    33    35    1
     3    33    31    2
     4    35    36    2
     5    31    30    1
     6    36    32    1
     7    30    32    1
     8    30    29    2
     9    32    26    2
    10    29    28    1
    11    25    24    1
    12    26    24    1
    13    26    27    1
    14    20    19    1
    15    20    21    2
    16    28    27    2
    17    24    21    1
    18    19    18    2
    19    21    22    1
    20    10     7    1
    21     9     8    2
    22     7     8   am
    23     7     6    1
    24    18     6    1
    25    18    23    1
    26    22    23    2
    27     8     3    1
    28     6     5    2
    29     3     2    1
    30     3     4    2
    31     5     4    1
    32     2     1    3
    33     4    11    1
    34    11    12    2
    35    11    17    1
    36    12    13    1
    37    17    15    2
    38    13    14    2
    39    15    14    1
    40    15    16    1
