@<TRIPOS>MOLECULE
71942_out_ligand_01.pdbqt
 33 36 0 0 0
SMALL
GASTEIGER

@<TRIPOS>ATOM
      1  C         18.8530  -21.2990  -11.1420 C.2     1  UNL1        0.0350
      2  C         17.7300  -20.5190  -11.4580 C.2     1  UNL1        0.0170
      3  C         16.4600  -20.8970  -11.0090 C.2     1  UNL1        0.0040
      4  C         16.3040  -22.0580  -10.2560 C.2     1  UNL1        0.0370
      5  C         17.4220  -22.8440   -9.9860 C.2     1  UNL1        0.0790
      6  C         18.6980  -22.4780  -10.4060 C.2     1  UNL1        0.0540
      7  O         17.2690  -24.0050   -9.1970 O.3     1  UNL1       -0.2840
      8  C         17.0660  -23.9860   -7.8190 C.2     1  UNL1        0.2200
      9  S         15.5540  -23.9620   -7.1090 S.2     1  UNL1       -0.0330
     10  N         18.1840  -23.9150   -7.0260 N.am    1  UNL1       -0.3260
     11  H         18.3380  -24.7780   -6.5230 H       1  UNL1        0.1690
     12  C         19.1210  -22.8750   -6.8050 C.2     1  UNL1        0.0450
     13  C         18.8510  -21.8150   -5.9300 C.2     1  UNL1        0.0300
     14  C         19.7670  -20.7820   -5.7480 C.2     1  UNL1        0.0030
     15  C         20.9660  -20.7840   -6.4470 C.2     1  UNL1        0.0120
     16  C         21.2730  -21.8190   -7.3380 C.2     1  UNL1       -0.0240
     17  C         22.4950  -21.7880   -8.0310 C.2     1  UNL1        0.0120
     18  C         20.3570  -22.8880   -7.5340 C.2     1  UNL1        0.0010
     19  C         22.8450  -22.8020   -8.9190 C.2     1  UNL1        0.0010
     20  C         21.9760  -23.8630   -9.1210 C.2     1  UNL1        0.0010
     21  C         20.7560  -23.9070   -8.4400 C.2     1  UNL1        0.0140
     22  C         20.2240  -20.9210  -11.5890 C.2     1  UNL1        0.2560
     23  N         20.9290  -21.9310  -12.2180 N.am    1  UNL1       -0.3230
     24  H         20.4250  -22.7850  -12.4180 H       1  UNL1        0.1690
     25  O         20.5930  -19.7670  -11.4050 O.2     1  UNL1       -0.2670
     26  C         22.2520  -21.8790  -12.7050 C.2     1  UNL1        0.0350
     27  C         22.4940  -21.0550  -13.8080 C.2     1  UNL1        0.0300
     28  C         23.7760  -20.9520  -14.3530 C.2     1  UNL1        0.0090
     29  C         24.8460  -21.6740  -13.8080 C.2     1  UNL1       -0.0560
     30  C         26.2140  -21.5410  -14.4190 C.3     1  UNL1        0.0490
     31  C         24.6110  -22.5150  -12.7050 C.2     1  UNL1       -0.0540
     32  C         23.3130  -22.6060  -12.1640 C.2     1  UNL1        0.0370
     33  C         25.7210  -23.3170  -12.0790 C.3     1  UNL1        0.0490
@<TRIPOS>BOND
     1    30    29    1
     2    28    29    2
     3    28    27    1
     4    29    31    1
     5    27    26    2
     6    31    32    2
     7    31    33    1
     8    26    23    1
     9    26    32    1
    10    24    23    1
    11    23    22   am
    12    22    25    2
    13    22     1    1
    14     2     1    2
    15     2     3    1
    16     1     6    1
    17     3     4    2
    18     6     5    2
    19     4     5    1
    20     5     7    1
    21     7     8    1
    22    20    19    1
    23    20    21    2
    24    19    17    2
    25    21    18    1
    26    17    16    1
    27     8     9    2
    28     8    10    1
    29    18    16    1
    30    18    12    2
    31    16    15    2
    32    10    12    1
    33    10    11    1
    34    12    13    1
    35    15    14    1
    36    13    14    2
