@<TRIPOS>MOLECULE
71946_out_ligand_01.pdbqt
 32 35 0 0 0
SMALL
GASTEIGER

@<TRIPOS>ATOM
      1  C         26.9890  -24.6570  -14.5090 C.3     1  UNL1        0.1630
      2  N         25.9360  -23.6630  -14.5820 N.ar    1  UNL1       -0.2860
      3  C         25.6110  -23.0590  -15.7930 C.ar    1  UNL1        0.3300
      4  O         26.1670  -23.3160  -16.8630 O.2     1  UNL1       -0.2460
      5  N         24.6020  -22.1130  -15.7750 N.ar    1  UNL1       -0.2730
      6  C         23.8810  -21.6810  -14.6850 C.ar    1  UNL1        0.2800
      7  O         23.0240  -20.8100  -14.7730 O.2     1  UNL1       -0.2650
      8  C         24.2570  -22.3470  -13.4850 C.ar    1  UNL1        0.1660
      9  C         25.2480  -23.2840  -13.4490 C.ar    1  UNL1        0.1860
     10  N         25.4560  -23.7540  -12.1940 N.ar    1  UNL1       -0.0420
     11  C         24.5740  -23.1260  -11.4380 C.ar    1  UNL1        0.7250
     12  N         23.8110  -22.2470  -12.1890 N.ar    1  UNL1       -0.1710
     13  H         24.3910  -21.6760  -16.6570 H       1  UNL1        0.1730
     14  N         24.4520  -23.3060  -10.0970 N.pl3   1  UNL1       -0.1070
     15  H         24.9550  -24.1330   -9.7600 H       1  UNL1        0.2080
     16  N         23.3790  -22.9210   -9.3490 N.3     1  UNL1       -0.1720
     17  C         22.4590  -23.8370   -9.2580 C.3     1  UNL1        0.1500
     18  C         21.2170  -23.6330   -8.4860 C.2     1  UNL1       -0.0170
     19  C         21.0260  -22.3980   -7.8550 C.2     1  UNL1        0.0130
     20  C         19.8550  -22.1600   -7.1380 C.2     1  UNL1        0.0010
     21  C         18.8770  -23.1650   -7.0390 C.2     1  UNL1        0.0000
     22  C         19.0770  -24.3980   -7.6640 C.2     1  UNL1        0.0010
     23  C         20.2510  -24.6350   -8.3880 C.2     1  UNL1        0.0130
     24  C         22.7860  -21.3290  -11.7290 C.3     1  UNL1        0.1480
     25  C         21.3780  -21.8230  -12.0610 C.3     1  UNL1        0.0250
     26  C         20.3610  -20.6870  -11.9310 C.3     1  UNL1        0.0400
     27  C         19.0420  -21.1800  -11.3860 C.2     1  UNL1       -0.0580
     28  C         18.9200  -22.4950  -10.9180 C.2     1  UNL1        0.0070
     29  C         17.6990  -22.9610  -10.4250 C.2     1  UNL1        0.0010
     30  C         16.5880  -22.1210  -10.4010 C.2     1  UNL1        0.0000
     31  C         16.6930  -20.8130  -10.8810 C.2     1  UNL1        0.0010
     32  C         17.9140  -20.3440  -11.3740 C.2     1  UNL1        0.0070
@<TRIPOS>BOND
     1     4     3    2
     2    13     5    1
     3     3     5   ar
     4     3     2   ar
     5     5     6   ar
     6     7     6    2
     7     6     8   ar
     8     2     1    1
     9     2     9   ar
    10     8     9   ar
    11     8    12   ar
    12     9    10   ar
    13    10    11   ar
    14    12    24    1
    15    12    11   ar
    16    25    26    1
    17    25    24    1
    18    26    27    1
    19    11    14    1
    20    27    32    2
    21    27    28    1
    22    32    31    1
    23    28    29    2
    24    31    30    2
    25    29    30    1
    26    14    15    1
    27    14    16    1
    28    16    17    1
    29    17    18    1
    30    18    23    2
    31    18    19    1
    32    23    22    1
    33    19    20    2
    34    22    21    2
    35    20    21    1
