@<TRIPOS>MOLECULE
71948_out_ligand_01.pdbqt
 32 34 0 0 0
SMALL
GASTEIGER

@<TRIPOS>ATOM
      1  C         18.5140  -22.2090  -10.3200 C.2     1  UNL1        0.0860
      2  C         19.7790  -22.8150  -10.2290 C.2     1  UNL1        0.0420
      3  C         20.8530  -22.3340  -10.9800 C.2     1  UNL1        0.0330
      4  C         20.6670  -21.2440  -11.8330 C.2     1  UNL1        0.0170
      5  C         19.4020  -20.6610  -11.9490 C.2     1  UNL1        0.0090
      6  C         18.3030  -21.1340  -11.2050 C.2     1  UNL1       -0.0390
      7  C         16.9770  -20.4520  -11.4020 C.3     1  UNL1        0.0500
      8  S         17.2490  -22.8990   -9.2570 S.O2    1  UNL1        0.2630
      9  O         16.3810  -21.8520   -8.7720 O.2     1  UNL1       -0.2000
     10  O         16.7080  -24.0510   -9.9490 O.2     1  UNL1       -0.2000
     11  N         18.1350  -23.5110   -7.9550 N.pl3   1  UNL1       -0.2800
     12  H         19.0240  -23.9080   -8.2540 H       1  UNL1        0.1790
     13  C         18.0360  -22.9390   -6.6510 C.2     1  UNL1        0.0510
     14  C         16.9720  -23.2810   -5.8090 C.2     1  UNL1        0.0660
     15  C         16.8750  -22.7020   -4.5380 C.2     1  UNL1        0.1050
     16  C         17.8420  -21.7960   -4.0900 C.2     1  UNL1        0.0370
     17  C         18.9190  -21.4830   -4.9180 C.2     1  UNL1        0.0110
     18  C         19.0360  -22.0550   -6.1980 C.2     1  UNL1       -0.0350
     19  C         20.2270  -21.6860   -7.0420 C.3     1  UNL1        0.0500
     20  N         15.7450  -23.0430   -3.6650 N.pl3   1  UNL1       -0.1160
     21  O         15.7260  -24.1730   -3.1570 O.2     1  UNL1       -0.5320
     22  O         14.8700  -22.1820   -3.4950 O.2     1  UNL1       -0.5320
     23  C         22.1850  -22.9700  -10.7960 C.2     1  UNL1        0.2560
     24  O         22.3320  -23.7080   -9.8290 O.2     1  UNL1       -0.2670
     25  N         23.1150  -22.6690  -11.7730 N.am    1  UNL1       -0.3230
     26  H         22.7890  -22.1380  -12.5710 H       1  UNL1        0.1690
     27  C         24.4620  -23.0830  -11.8280 C.2     1  UNL1        0.0350
     28  C         25.3800  -22.8920  -10.7940 C.2     1  UNL1        0.0290
     29  C         26.7040  -23.3210  -10.9320 C.2     1  UNL1        0.0020
     30  C         27.1210  -23.9470  -12.1050 C.2     1  UNL1        0.0000
     31  C         26.2130  -24.1440  -13.1420 C.2     1  UNL1        0.0020
     32  C         24.8910  -23.7110  -13.0040 C.2     1  UNL1        0.0290
@<TRIPOS>BOND
     1    31    32    1
     2    31    30    2
     3    32    27    2
     4    26    25    1
     5    30    29    1
     6     5     4    2
     7     5     6    1
     8     4     3    1
     9    27    25    1
    10    27    28    1
    11    25    23   am
    12     7     6    1
    13     6     1    2
    14     3    23    1
    15     3     2    2
    16    29    28    2
    17    23    24    2
    18     1     2    1
    19     1     8    1
    20    10     8    2
    21     8     9    2
    22     8    11    1
    23    12    11    1
    24    11    13    1
    25    19    18    1
    26    13    18    2
    27    13    14    1
    28    18    17    1
    29    14    15    2
    30    17    16    2
    31    15    16    1
    32    15    20    1
    33    20    22    2
    34    20    21    2
