@<TRIPOS>MOLECULE
71952_out_ligand_01.pdbqt
 29 32 0 0 0
SMALL
GASTEIGER

@<TRIPOS>ATOM
      1  C         20.8200  -22.8920   -8.8100 C.2     1  UNL1        0.0460
      2  C         20.0170  -24.0400   -8.6810 C.2     1  UNL1        0.0320
      3  C         19.0890  -24.1820   -7.6400 C.2     1  UNL1        0.0270
      4  C         18.9410  -23.1610   -6.7050 C.2     1  UNL1        0.0800
      5  C         19.7310  -22.0190   -6.7900 C.2     1  UNL1        0.0270
      6  C         20.6560  -21.8900   -7.8360 C.2     1  UNL1        0.0320
      7  S         17.7700  -23.3250   -5.3840 S.O2    1  UNL1        0.2630
      8  O         18.1470  -22.3820   -4.3520 O.2     1  UNL1       -0.2000
      9  O         17.5930  -24.7280   -5.0820 O.2     1  UNL1       -0.2000
     10  N         16.3490  -22.7160   -6.0740 N.pl3   1  UNL1       -0.2810
     11  H         15.5630  -22.8370   -5.4360 H       1  UNL1        0.1790
     12  C         16.1200  -22.9710   -7.4540 C.2     1  UNL1        0.0430
     13  C         15.5110  -24.1620   -7.8490 C.2     1  UNL1        0.0300
     14  C         15.3290  -24.4320   -9.2070 C.2     1  UNL1        0.0040
     15  C         15.7620  -23.5140  -10.1650 C.2     1  UNL1        0.0190
     16  C         16.3770  -22.3300   -9.7600 C.2     1  UNL1        0.0130
     17 BR         16.9730  -21.0910  -11.0560 Br      1  UNL1       -0.0510
     18  C         16.5600  -22.0530   -8.4070 C.2     1  UNL1        0.0490
     19  N         21.7630  -22.7520   -9.8780 N.am    1  UNL1       -0.2440
     20  C         23.0680  -23.2080   -9.8510 C.2     1  UNL1        0.2660
     21  C         23.6760  -22.8640  -11.1330 C.2     1  UNL1        0.0480
     22  O         23.7160  -23.7860   -8.9970 O.2     1  UNL1       -0.2670
     23  C         24.9530  -23.0960  -11.6090 C.2     1  UNL1        0.0180
     24  C         22.7260  -22.2110  -11.8850 C.2     1  UNL1        0.0480
     25  C         25.2510  -22.6400  -12.8960 C.2     1  UNL1        0.0010
     26  C         24.2790  -21.9720  -13.6670 C.2     1  UNL1        0.0010
     27  C         22.9940  -21.7510  -13.1600 C.2     1  UNL1        0.0180
     28  C         21.5050  -22.1360  -11.0900 C.2     1  UNL1        0.2660
     29  O         20.5090  -21.6000  -11.5400 O.2     1  UNL1       -0.2670
@<TRIPOS>BOND
     1    26    27    2
     2    26    25    1
     3    27    24    1
     4    25    23    2
     5    24    21    2
     6    24    28    1
     7    23    21    1
     8    29    28    2
     9    21    20    1
    10    28    19   am
    11    17    16    1
    12    15    16    2
    13    15    14    1
    14    19    20   am
    15    19     1    1
    16    20    22    2
    17    16    18    1
    18    14    13    2
    19     1     2    2
    20     1     6    1
    21     2     3    1
    22    18    12    2
    23    13    12    1
    24     6     5    2
    25     3     4    2
    26    12    10    1
    27     5     4    1
    28     4     7    1
    29    10    11    1
    30    10     7    1
    31     7     9    2
    32     7     8    2
