@<TRIPOS>MOLECULE
71966_out_ligand_01.pdbqt
 30 32 0 0 0
SMALL
GASTEIGER

@<TRIPOS>ATOM
      1  C         20.4980  -21.8100  -11.5250 C.2     1  UNL1        0.0350
      2  C         19.4390  -21.0160  -11.9930 C.2     1  UNL1        0.0170
      3  C         18.1740  -21.1180  -11.4050 C.2     1  UNL1        0.0040
      4  C         17.9600  -22.0180  -10.3630 C.2     1  UNL1        0.0370
      5  C         19.0170  -22.8170   -9.9310 C.2     1  UNL1        0.0790
      6  C         20.2870  -22.7210  -10.4880 C.2     1  UNL1        0.0540
      7  O         18.8110  -23.7370   -8.8830 O.3     1  UNL1       -0.2840
      8  C         18.8420  -23.3470   -7.5350 C.2     1  UNL1        0.2200
      9  S         20.0380  -22.2360   -7.2050 S.2     1  UNL1       -0.0330
     10  N         17.9490  -23.9940   -6.7080 N.am    1  UNL1       -0.3270
     11  H         18.0150  -25.0000   -6.7620 H       1  UNL1        0.1690
     12  C         17.0210  -23.5250   -5.7440 C.2     1  UNL1        0.0410
     13  C         17.2400  -23.6470   -4.3690 C.2     1  UNL1        0.0300
     14  C         16.3240  -23.1420   -3.4480 C.2     1  UNL1        0.0030
     15  C         15.1800  -22.4890   -3.8880 C.2     1  UNL1        0.0070
     16  C         14.9340  -22.3250   -5.2580 C.2     1  UNL1       -0.0540
     17  C         13.6830  -21.5960   -5.6710 C.3     1  UNL1        0.0490
     18  C         15.8530  -22.8530   -6.2010 C.2     1  UNL1       -0.0290
     19  C         15.5900  -22.7010   -7.6830 C.3     1  UNL1        0.0510
     20  C         21.8500  -21.7390  -12.1400 C.2     1  UNL1        0.2560
     21  N         22.8380  -22.4050  -11.4390 N.am    1  UNL1       -0.3230
     22  H         22.5440  -22.9530  -10.6410 H       1  UNL1        0.1690
     23  O         21.9630  -21.1330  -13.1980 O.2     1  UNL1       -0.2670
     24  C         24.2100  -22.4840  -11.7570 C.2     1  UNL1        0.0350
     25  C         25.0700  -21.5990  -11.0980 C.2     1  UNL1        0.0290
     26  C         26.4430  -21.6140  -11.3530 C.2     1  UNL1        0.0030
     27  C         26.9690  -22.5150  -12.2760 C.2     1  UNL1        0.0070
     28  C         26.1250  -23.3960  -12.9590 C.2     1  UNL1       -0.0600
     29  C         26.6890  -24.3910  -13.9290 C.3     1  UNL1        0.0480
     30  C         24.7470  -23.3800  -12.6850 C.2     1  UNL1        0.0360
@<TRIPOS>BOND
     1    29    28    1
     2    23    20    2
     3    28    30    1
     4    28    27    2
     5    30    24    2
     6    27    26    1
     7    20     1    1
     8    20    21   am
     9     2     1    2
    10     2     3    1
    11    24    21    1
    12    24    25    1
    13     1     6    1
    14    21    22    1
    15     3     4    2
    16    26    25    2
    17     6     5    2
    18     4     5    1
    19     5     7    1
    20     7     8    1
    21    19    18    1
    22     8     9    2
    23     8    10    1
    24    11    10    1
    25    10    12    1
    26    18    12    2
    27    18    16    1
    28    12    13    1
    29    17    16    1
    30    16    15    2
    31    13    14    2
    32    15    14    1
