@<TRIPOS>MOLECULE
71977_out_ligand_01.pdbqt
 28 30 0 0 0
SMALL
GASTEIGER

@<TRIPOS>ATOM
      1  N         20.7430  -25.5050   -8.6070 N.1     1  UNL1       -0.1910
      2  C         20.4410  -24.4550   -8.9990 C.1     1  UNL1        0.1020
      3  C         20.1110  -23.1550   -9.4980 C.2     1  UNL1        0.0770
      4  C         19.1090  -22.4280   -8.9600 C.2     1  UNL1        0.0370
      5  C         20.9340  -22.6290  -10.5610 C.ar    1  UNL1        0.1220
      6  N         22.2410  -22.9210  -10.6710 N.ar    1  UNL1       -0.1680
      7  N         22.6530  -22.2490  -11.7710 N.ar    1  UNL1       -0.2500
      8  C         21.6510  -21.5280  -12.3770 C.ar    1  UNL1        0.1410
      9  C         20.5320  -21.7390  -11.5950 C.ar    1  UNL1        0.1210
     10  C         19.2560  -21.1340  -11.8010 C.1     1  UNL1        0.1060
     11  N         18.2310  -20.6170  -11.9700 N.1     1  UNL1       -0.1910
     12  C         24.0540  -22.3590  -12.1530 C.3     1  UNL1        0.1790
     13  C         24.9280  -21.4030  -11.3490 C.3     1  UNL1        0.1860
     14  O         24.4390  -21.2430  -10.0180 O.3     1  UNL1       -0.3990
     15  H         25.0180  -21.7860   -9.4410 H       1  UNL1        0.2090
     16  N         21.8260  -20.7780  -13.4880 N.pl3   1  UNL1       -0.3830
     17  H         21.0990  -20.5970  -14.1760 H       1  UNL1        0.1570
     18  H         22.5950  -20.1100  -13.5570 H       1  UNL1        0.1570
     19  C         18.2370  -22.8720   -7.8610 C.2     1  UNL1       -0.0240
     20  C         17.2950  -23.8710   -8.1500 C.2     1  UNL1        0.0120
     21  C         16.4300  -24.3280   -7.1620 C.2     1  UNL1        0.0020
     22  C         16.4990  -23.7930   -5.8770 C.2     1  UNL1        0.0120
     23  C         17.4330  -22.7950   -5.5600 C.2     1  UNL1       -0.0250
     24  C         17.4880  -22.2660   -4.2600 C.2     1  UNL1        0.0120
     25  C         18.3230  -22.3190   -6.5560 C.2     1  UNL1       -0.0160
     26  C         18.4100  -21.2740   -3.9260 C.2     1  UNL1        0.0010
     27  C         19.2890  -20.7970   -4.8890 C.2     1  UNL1        0.0010
     28  C         19.2480  -21.3130   -6.1870 C.2     1  UNL1        0.0130
@<TRIPOS>BOND
     1    17    16    1
     2    18    16    1
     3    16     8    1
     4     8     7   ar
     5     8     9   ar
     6    12     7    1
     7    12    13    1
     8    11    10    3
     9    10     9    1
    10     7     6   ar
    11     9     5   ar
    12    13    14    1
    13     6     5   ar
    14     5     3    1
    15    14    15    1
    16     3     2    1
    17     3     4    2
    18     2     1    3
    19     4    19    1
    20    20    19    2
    21    20    21    1
    22    19    25    1
    23    21    22    2
    24    25    28    1
    25    25    23    2
    26    28    27    2
    27    22    23    1
    28    23    24    1
    29    27    26    1
    30    24    26    2
