@<TRIPOS>MOLECULE
71983_out_ligand_01.pdbqt
 32 35 0 0 0
SMALL
GASTEIGER

@<TRIPOS>ATOM
      1  N         23.9670  -23.5010   -8.9510 N.1     1  UNL1       -0.1910
      2  C         23.7900  -22.9300   -9.9470 C.1     1  UNL1        0.1030
      3  C         23.6830  -22.3160  -11.2400 C.ar    1  UNL1        0.0850
      4  C         22.5200  -21.8810  -11.8430 C.ar    1  UNL1        0.0980
      5  S         22.7650  -21.3840  -13.4590 S.2     1  UNL1       -0.0750
      6  C         24.4410  -21.6280  -13.3420 C.ar    1  UNL1       -0.0070
      7  C         24.8150  -22.1510  -12.1180 C.ar    1  UNL1       -0.0210
      8  C         26.2510  -22.4750  -11.8060 C.3     1  UNL1        0.0410
      9  C         27.1210  -22.5190  -13.0730 C.3     1  UNL1        0.0050
     10  C         26.8250  -21.3400  -14.0080 C.3     1  UNL1        0.0050
     11  C         25.3650  -21.3490  -14.4870 C.3     1  UNL1        0.0470
     12  N         21.1950  -21.7620  -11.4810 N.am    1  UNL1       -0.3160
     13  C         20.4920  -22.7290  -10.8000 C.2     1  UNL1        0.2560
     14  O         20.9340  -23.7820  -10.3620 O.2     1  UNL1       -0.2670
     15  H         20.8220  -20.8200  -11.5050 H       1  UNL1        0.1690
     16  C         19.0730  -22.3820  -10.5210 C.2     1  UNL1        0.0330
     17  C         18.3660  -21.4900  -11.3390 C.2     1  UNL1        0.0170
     18  C         17.0290  -21.1950  -11.0620 C.2     1  UNL1        0.0030
     19  C         16.3920  -21.7950   -9.9770 C.2     1  UNL1        0.0250
     20  C         17.0960  -22.7010   -9.1790 C.2     1  UNL1        0.0800
     21  C         18.4370  -22.9960   -9.4380 C.2     1  UNL1        0.0420
     22  S         16.2880  -23.4930   -7.8050 S.O2    1  UNL1        0.2630
     23  O         15.5120  -22.4760   -7.1260 O.2     1  UNL1       -0.2000
     24  O         15.6660  -24.7070   -8.2910 O.2     1  UNL1       -0.2000
     25  N         17.5710  -23.8910   -6.7830 N.pl3   1  UNL1       -0.2810
     26  H         17.6120  -24.8890   -6.5870 H       1  UNL1        0.1790
     27  C         17.9220  -23.0000   -5.7280 C.2     1  UNL1        0.0420
     28  C         17.5370  -23.3180   -4.4240 C.2     1  UNL1        0.0300
     29  C         17.8450  -22.4480   -3.3770 C.2     1  UNL1        0.0020
     30  C         18.5390  -21.2650   -3.6320 C.2     1  UNL1        0.0000
     31  C         18.9190  -20.9470   -4.9350 C.2     1  UNL1        0.0020
     32  C         18.6110  -21.8150   -5.9840 C.2     1  UNL1        0.0300
@<TRIPOS>BOND
     1    11    10    1
     2    11     6    1
     3    10     9    1
     4     5     6   ar
     5     5     4   ar
     6     6     7   ar
     7     9     8    1
     8     7     8    1
     9     7     3   ar
    10     4    12    1
    11     4     3   ar
    12    15    12    1
    13    12    13   am
    14    17    18    1
    15    17    16    2
    16     3     2    1
    17    18    19    2
    18    13    16    1
    19    13    14    2
    20    16    21    1
    21    19    20    1
    22     2     1    3
    23    21    20    2
    24    20    22    1
    25    24    22    2
    26    22    23    2
    27    22    25    1
    28    25    26    1
    29    25    27    1
    30    32    27    2
    31    32    31    1
    32    27    28    1
    33    31    30    2
    34    28    29    2
    35    30    29    1
