@<TRIPOS>MOLECULE
71995_out_ligand_01.pdbqt
 29 31 0 0 0
SMALL
GASTEIGER

@<TRIPOS>ATOM
      1  C         19.4230  -22.6290  -10.2250 C.2     1  UNL1        0.0330
      2  C         18.8330  -21.7770  -11.1700 C.2     1  UNL1        0.0170
      3  C         17.4700  -21.4770  -11.0880 C.2     1  UNL1        0.0030
      4  C         16.6960  -22.0100  -10.0570 C.2     1  UNL1        0.0250
      5  C         17.2960  -22.8370   -9.1030 C.2     1  UNL1        0.0800
      6  C         18.6530  -23.1590   -9.1840 C.2     1  UNL1        0.0420
      7  S         16.3320  -23.5040   -7.7660 S.O2    1  UNL1        0.2630
      8  O         15.5270  -22.4350   -7.2170 O.2     1  UNL1       -0.2000
      9  O         15.7280  -24.7280   -8.2460 O.2     1  UNL1       -0.2000
     10  N         17.5110  -23.9550   -6.6430 N.pl3   1  UNL1       -0.2810
     11  H         18.2570  -24.5010   -7.0720 H       1  UNL1        0.1790
     12  C         17.8580  -23.0550   -5.5960 C.2     1  UNL1        0.0450
     13  C         17.4940  -23.3190   -4.2740 C.2     1  UNL1        0.0300
     14  C         17.8160  -22.4130   -3.2610 C.2     1  UNL1        0.0050
     15  C         18.5020  -21.2410   -3.5730 C.2     1  UNL1        0.0420
     16  C         18.8620  -20.9900   -4.8930 C.2     1  UNL1        0.1180
     17  F         19.5200  -19.8620   -5.1910 F       1  UNL1       -0.2060
     18  C         18.5480  -21.8860   -5.9100 C.2     1  UNL1        0.0720
     19  C         20.8740  -22.9530  -10.2630 C.2     1  UNL1        0.2560
     20  O         21.2740  -23.8580   -9.5410 O.2     1  UNL1       -0.2670
     21  N         21.6160  -22.1990  -11.1520 N.am    1  UNL1       -0.3230
     22  H         21.1050  -21.5800  -11.7670 H       1  UNL1        0.1690
     23  C         23.0100  -22.2610  -11.3680 C.2     1  UNL1        0.0350
     24  C         23.8250  -21.5250  -10.4970 C.2     1  UNL1        0.0320
     25  C         25.2150  -21.5380  -10.6410 C.2     1  UNL1        0.0440
     26  C         25.7890  -22.2910  -11.6560 C.2     1  UNL1        0.1160
     27  F         27.1210  -22.3060  -11.7940 F       1  UNL1       -0.2060
     28  C         24.9990  -23.0300  -12.5260 C.2     1  UNL1        0.0440
     29  C         23.6080  -23.0160  -12.3820 C.2     1  UNL1        0.0320
@<TRIPOS>BOND
     1    28    29    1
     2    28    26    2
     3    29    23    2
     4    27    26    1
     5    22    21    1
     6    26    25    1
     7    23    21    1
     8    23    24    1
     9     2     3    1
    10     2     1    2
    11    21    19   am
    12     3     4    2
    13    25    24    2
    14    19     1    1
    15    19    20    2
    16     1     6    1
    17     4     5    1
    18     6     5    2
    19     5     7    1
    20     9     7    2
    21     7     8    2
    22     7    10    1
    23    11    10    1
    24    10    12    1
    25    18    12    2
    26    18    16    1
    27    12    13    1
    28    17    16    1
    29    16    15    2
    30    13    14    2
    31    15    14    1
