@<TRIPOS>MOLECULE
72032_out_ligand_01.pdbqt
 27 30 0 0 0
SMALL
GASTEIGER

@<TRIPOS>ATOM
      1  C         17.7390  -22.3670  -10.1620 C.2     1  UNL1       -0.0400
      2  C         17.9700  -21.4610  -11.2050 C.2     1  UNL1        0.0100
      3  C         19.2520  -21.3130  -11.7460 C.2     1  UNL1        0.0160
      4  C         20.3280  -22.0720  -11.2630 C.2     1  UNL1        0.0170
      5  C         20.0860  -22.9850  -10.2270 C.2     1  UNL1        0.0160
      6  C         18.8060  -23.1350   -9.6840 C.2     1  UNL1        0.0100
      7  C         16.3540  -22.5500   -9.6040 C.3     1  UNL1        0.1610
      8  N         16.3560  -22.3760   -8.1700 N.am    1  UNL1       -0.3530
      9  C         16.0800  -23.4280   -7.3300 C.2     1  UNL1        0.2550
     10  O         15.7290  -24.5280   -7.7450 O.2     1  UNL1       -0.2680
     11  H         16.7120  -21.5010   -7.8030 H       1  UNL1        0.1630
     12  C         16.1640  -23.1970   -5.8680 C.2     1  UNL1        0.0720
     13  C         17.2750  -23.7290   -5.1960 C.2     1  UNL1        0.0220
     14  C         17.4130  -23.5510   -3.8220 C.2     1  UNL1        0.0200
     15  C         16.4350  -22.8370   -3.1530 C.2     1  UNL1        0.1180
     16  N         15.3580  -22.3000   -3.7620 N.2     1  UNL1       -0.2480
     17  C         15.2490  -22.4840   -5.1030 C.2     1  UNL1        0.1410
     18 CL         13.8600  -21.6820   -5.7340 Cl      1  UNL1       -0.0610
     19  C         21.6770  -21.9400  -11.8090 C.ar    1  UNL1        0.1800
     20  N         22.8280  -22.3010  -11.2700 N.ar    1  UNL1       -0.2200
     21  C         23.7600  -21.9430  -12.2160 C.ar    1  UNL1        0.1110
     22  C         25.1480  -22.0550  -12.2550 C.2     1  UNL1        0.1500
     23  C         23.1260  -21.3720  -13.3050 C.ar    1  UNL1        0.1090
     24  N         25.8310  -21.6060  -13.3460 N.2     1  UNL1       -0.2710
     25  C         25.1450  -21.0560  -14.3800 C.2     1  UNL1        0.1190
     26  C         23.7680  -20.9010  -14.4360 C.2     1  UNL1        0.0590
     27  O         21.7860  -21.3660  -13.0530 O.2     1  UNL1       -0.2890
@<TRIPOS>BOND
     1    26    25    2
     2    26    23    1
     3    25    24    1
     4    24    22    2
     5    23    27   ar
     6    23    21   ar
     7    27    19   ar
     8    22    21    1
     9    21    20   ar
    10    19    20   ar
    11    19     4    1
    12     3     4    2
    13     3     2    1
    14     4     5    1
    15     2     1    2
    16     5     6    2
    17     1     6    1
    18     1     7    1
    19     7     8    1
    20     8    11    1
    21     8     9   am
    22    10     9    2
    23     9    12    1
    24    12    13    2
    25    12    17    1
    26    18    17    1
    27    13    14    1
    28    17    16    2
    29    14    15    2
    30    16    15    1
