@<TRIPOS>MOLECULE
72031_out_ligand_01.pdbqt
 30 34 0 0 0
SMALL
GASTEIGER

@<TRIPOS>ATOM
      1  C         17.6750  -22.3880  -10.3680 C.2     1  UNL1       -0.0400
      2  C         18.7240  -23.1450   -9.8330 C.2     1  UNL1        0.0100
      3  C         20.0290  -22.9780  -10.3070 C.2     1  UNL1        0.0160
      4  C         20.3150  -22.0590  -11.3280 C.2     1  UNL1        0.0170
      5  C         19.2600  -21.3100  -11.8650 C.2     1  UNL1        0.0160
      6  C         17.9540  -21.4740  -11.3920 C.2     1  UNL1        0.0100
      7  C         16.2580  -22.5900   -9.8980 C.3     1  UNL1        0.1610
      8  N         16.1770  -22.4440   -8.4640 N.am    1  UNL1       -0.3530
      9  C         16.0510  -23.5300   -7.6280 C.2     1  UNL1        0.2520
     10  O         15.8370  -24.6760   -8.0020 O.2     1  UNL1       -0.2680
     11  H         16.3990  -21.5410   -8.0640 H       1  UNL1        0.1630
     12  C         16.1370  -23.2190   -6.1830 C.2     1  UNL1        0.0430
     13  C         15.1190  -23.7510   -5.3790 C.2     1  UNL1        0.0180
     14  C         15.0890  -23.4640   -4.0200 C.2     1  UNL1        0.0020
     15  C         16.0760  -22.6500   -3.4630 C.2     1  UNL1        0.0120
     16  C         17.1190  -22.1290   -4.2490 C.2     1  UNL1       -0.0250
     17  C         18.1120  -21.3280   -3.6610 C.2     1  UNL1        0.0120
     18  C         17.1740  -22.4200   -5.6340 C.2     1  UNL1       -0.0100
     19  C         19.1690  -20.8220   -4.4170 C.2     1  UNL1        0.0010
     20  C         19.2530  -21.1190   -5.7700 C.2     1  UNL1        0.0010
     21  C         18.2730  -21.9110   -6.3710 C.2     1  UNL1        0.0130
     22  C         21.6900  -21.9140  -11.8030 C.ar    1  UNL1        0.1800
     23  N         22.8190  -22.1980  -11.1760 N.ar    1  UNL1       -0.2200
     24  C         23.7920  -21.8680  -12.0880 C.ar    1  UNL1        0.1110
     25  C         25.1830  -21.9300  -12.0400 C.2     1  UNL1        0.1500
     26  C         23.2070  -21.3920  -13.2480 C.ar    1  UNL1        0.1090
     27  N         25.9150  -21.5300  -13.1180 N.2     1  UNL1       -0.2710
     28  C         25.2730  -21.0730  -14.2250 C.2     1  UNL1        0.1190
     29  C         23.8990  -20.9730  -14.3690 C.2     1  UNL1        0.0590
     30  O         21.8540  -21.4190  -13.0740 O.2     1  UNL1       -0.2890
@<TRIPOS>BOND
     1    29    28    2
     2    29    26    1
     3    28    27    1
     4    26    30   ar
     5    26    24   ar
     6    27    25    2
     7    30    22   ar
     8    24    25    1
     9    24    23   ar
    10     5     6    1
    11     5     4    2
    12    22     4    1
    13    22    23   ar
    14     6     1    2
    15     4     3    1
    16     1     7    1
    17     1     2    1
    18     3     2    2
    19     7     8    1
    20     8    11    1
    21     8     9   am
    22    10     9    2
    23     9    12    1
    24    21    20    2
    25    21    18    1
    26    12    18    2
    27    12    13    1
    28    20    19    1
    29    18    16    1
    30    13    14    2
    31    19    17    2
    32    16    17    1
    33    16    15    2
    34    14    15    1
