@<TRIPOS>MOLECULE
72036_out_ligand_01.pdbqt
 27 30 0 0 0
SMALL
GASTEIGER

@<TRIPOS>ATOM
      1  C         17.7420  -22.2950  -10.3630 C.2     1  UNL1       -0.0400
      2  C         18.0210  -21.3440  -11.3520 C.2     1  UNL1        0.0100
      3  C         19.3170  -21.2030  -11.8580 C.2     1  UNL1        0.0160
      4  C         20.3640  -22.0030  -11.3820 C.2     1  UNL1        0.0170
      5  C         20.0820  -22.9460  -10.3830 C.2     1  UNL1        0.0160
      6  C         18.7870  -23.0890   -9.8750 C.2     1  UNL1        0.0100
      7  C         16.3540  -22.4230   -9.7970 C.3     1  UNL1        0.1610
      8  N         16.3730  -22.3130   -8.3580 N.am    1  UNL1       -0.3530
      9  C         16.0770  -23.3920   -7.5590 C.2     1  UNL1        0.2550
     10  O         15.7310  -24.4760   -8.0210 O.2     1  UNL1       -0.2680
     11  H         16.7210  -21.4550   -7.9450 H       1  UNL1        0.1630
     12  C         16.1890  -23.2120   -6.0850 C.2     1  UNL1        0.0700
     13  C         17.3230  -23.7250   -5.4360 C.2     1  UNL1        0.0200
     14  C         17.4780  -23.5840   -4.0540 C.2     1  UNL1        0.0010
     15  C         16.5020  -22.9270   -3.3060 C.2     1  UNL1        0.0030
     16  C         15.3720  -22.4120   -3.9400 C.2     1  UNL1        0.0430
     17  C         15.2220  -22.5550   -5.3200 C.2     1  UNL1        0.1320
     18  F         14.1190  -22.0410   -5.8850 F       1  UNL1       -0.2050
     19  C         21.7290  -21.8780  -11.8880 C.ar    1  UNL1        0.1800
     20  N         22.8680  -22.2000  -11.2970 N.ar    1  UNL1       -0.2200
     21  C         23.8260  -21.8720  -12.2260 C.ar    1  UNL1        0.1110
     22  C         25.2150  -21.9660  -12.2140 C.2     1  UNL1        0.1500
     23  C         23.2220  -21.3540  -13.3590 C.ar    1  UNL1        0.1090
     24  N         25.9280  -21.5550  -13.3000 N.2     1  UNL1       -0.2710
     25  C         25.2710  -21.0580  -14.3790 C.2     1  UNL1        0.1190
     26  C         23.8960  -20.9230  -14.4860 C.2     1  UNL1        0.0590
     27  O         21.8740  -21.3530  -13.1510 O.2     1  UNL1       -0.2890
@<TRIPOS>BOND
     1    26    25    2
     2    26    23    1
     3    25    24    1
     4    23    27   ar
     5    23    21   ar
     6    24    22    2
     7    27    19   ar
     8    21    22    1
     9    21    20   ar
    10    19     4    1
    11    19    20   ar
    12     3     4    2
    13     3     2    1
    14     4     5    1
    15     2     1    2
    16     5     6    2
    17     1     6    1
    18     1     7    1
    19     7     8    1
    20     8    11    1
    21     8     9   am
    22    10     9    2
    23     9    12    1
    24    12    13    2
    25    12    17    1
    26    18    17    1
    27    13    14    1
    28    17    16    2
    29    14    15    2
    30    16    15    1
