@<TRIPOS>MOLECULE
72043_out_ligand_01.pdbqt
 31 35 0 0 0
SMALL
GASTEIGER

@<TRIPOS>ATOM
      1  C         23.3780  -23.6440   -9.1820 C.3     1  UNL1        0.1610
      2  N         22.1260  -23.1360   -8.6780 N.am    1  UNL1       -0.3560
      3  C         20.9610  -23.8730   -8.7060 C.2     1  UNL1        0.2310
      4  O         20.9250  -25.0410   -9.0880 O.2     1  UNL1       -0.2720
      5  H         22.0950  -22.1790   -8.3540 H       1  UNL1        0.1620
      6  C         19.7090  -23.1010   -8.2240 C.3     1  UNL1        0.0680
      7  C         20.0750  -22.0590   -7.1420 C.3     1  UNL1        0.0240
      8  C         18.7900  -21.8610   -6.3460 C.3     1  UNL1        0.0020
      9  C         18.0880  -23.2140   -6.3680 C.3     1  UNL1        0.0020
     10  C         18.8420  -24.0720   -7.3850 C.3     1  UNL1        0.0240
     11  C         19.0160  -22.4150   -9.4130 C.2     1  UNL1       -0.0400
     12  C         17.6250  -22.4290   -9.6100 C.2     1  UNL1        0.0080
     13  C         17.0490  -21.7950  -10.7160 C.2     1  UNL1        0.0010
     14  C         17.8490  -21.1360  -11.6450 C.2     1  UNL1        0.0000
     15  C         19.2280  -21.1080  -11.4690 C.2     1  UNL1        0.0010
     16  C         19.8040  -21.7390  -10.3660 C.2     1  UNL1        0.0080
     17  C         23.8040  -22.8680  -10.4010 C.2     1  UNL1       -0.0400
     18  C         23.0190  -22.8580  -11.5610 C.2     1  UNL1        0.0100
     19  C         23.4370  -22.1540  -12.6950 C.2     1  UNL1        0.0160
     20  C         24.6500  -21.4500  -12.6990 C.2     1  UNL1        0.0170
     21  C         25.4360  -21.4700  -11.5370 C.2     1  UNL1        0.0160
     22  C         25.0210  -22.1730  -10.4030 C.2     1  UNL1        0.0100
     23  C         25.1130  -20.7080  -13.8690 C.ar    1  UNL1        0.1800
     24  N         25.0050  -21.0200  -15.1490 N.ar    1  UNL1       -0.2200
     25  C         25.6100  -19.9710  -15.7970 C.ar    1  UNL1        0.1110
     26  C         25.8240  -19.6990  -17.1460 C.2     1  UNL1        0.1500
     27  C         26.0670  -19.0500  -14.8720 C.ar    1  UNL1        0.1090
     28  N         26.4680  -18.5540  -17.5110 N.2     1  UNL1       -0.2710
     29  C         26.8910  -17.6950  -16.5490 C.2     1  UNL1        0.1190
     30  C         26.7250  -17.8740  -15.1840 C.2     1  UNL1        0.0590
     31  O         25.7520  -19.5140  -13.6280 O.2     1  UNL1       -0.2890
@<TRIPOS>BOND
     1    28    26    1
     2    28    29    2
     3    26    25    2
     4    29    30    1
     5    25    24   ar
     6    25    27   ar
     7    30    27    2
     8    24    23   ar
     9    27    31   ar
    10    23    31   ar
    11    23    20    1
    12    20    19    2
    13    20    21    1
    14    19    18    1
    15    14    15    2
    16    14    13    1
    17    18    17    2
    18    21    22    2
    19    15    16    1
    20    13    12    2
    21    22    17    1
    22    17     1    1
    23    16    11    2
    24    12    11    1
    25    11     6    1
    26     1     2    1
    27     4     3    2
    28     3     2   am
    29     3     6    1
    30     2     5    1
    31     6    10    1
    32     6     7    1
    33    10     9    1
    34     7     8    1
    35     9     8    1
