@<TRIPOS>MOLECULE
72060_out_ligand_01.pdbqt
 26 29 0 0 0
SMALL
GASTEIGER

@<TRIPOS>ATOM
      1  O         21.2220  -24.4230   -8.7560 O.2     1  UNL1       -0.2670
      2  C         20.7310  -23.4120   -9.2430 C.2     1  UNL1        0.2560
      3  N         19.5950  -22.7500   -8.8070 N.am    1  UNL1       -0.3230
      4  H         19.2430  -22.0140   -9.4060 H       1  UNL1        0.1690
      5  C         18.8130  -23.0490   -7.6710 C.2     1  UNL1        0.0360
      6  C         17.9860  -24.1900   -7.5680 C.2     1  UNL1        0.0300
      7  C         17.2300  -24.4460   -6.4140 C.2     1  UNL1        0.0200
      8  C         17.3280  -23.5400   -5.3810 C.2     1  UNL1        0.0480
      9  C         18.1380  -22.4240   -5.4730 C.2     1  UNL1        0.0500
     10  C         16.6880  -23.5130   -4.0660 C.2     1  UNL1        0.2590
     11  C         18.8920  -22.1490   -6.5980 C.2     1  UNL1        0.0470
     12  C         18.0140  -21.6860   -4.2170 C.2     1  UNL1        0.2590
     13  O         18.5930  -20.6540   -3.9500 O.2     1  UNL1       -0.2670
     14  N         17.1410  -22.3900   -3.4440 N.am    1  UNL1       -0.2890
     15  H         16.8660  -22.1150   -2.5140 H       1  UNL1        0.1720
     16  O         15.9100  -24.3420   -3.6400 O.2     1  UNL1       -0.2670
     17  C         21.3650  -22.8280  -10.4580 C.2     1  UNL1        0.0320
     18  C         20.6240  -21.9210  -11.2270 C.2     1  UNL1        0.0170
     19  C         21.1790  -21.3530  -12.3740 C.2     1  UNL1        0.0090
     20  C         22.4800  -21.6880  -12.7580 C.2     1  UNL1       -0.0520
     21  C         23.2200  -22.6140  -12.0030 C.2     1  UNL1       -0.0510
     22  C         23.1030  -21.1340  -14.0120 C.3     1  UNL1        0.0390
     23  C         22.6570  -23.1920  -10.8600 C.2     1  UNL1        0.0240
     24  C         24.5850  -23.0060  -12.5020 C.3     1  UNL1        0.0390
     25  C         25.3780  -21.7850  -12.9740 C.3     1  UNL1        0.0050
     26  C         24.5670  -20.7570  -13.7780 C.3     1  UNL1        0.0050
@<TRIPOS>BOND
     1    22    26    1
     2    22    20    1
     3    26    25    1
     4    25    24    1
     5    20    19    2
     6    20    21    1
     7    24    21    1
     8    19    18    1
     9    21    23    2
    10    18    17    2
    11    23    17    1
    12    17     2    1
    13     4     3    1
    14     2     3   am
    15     2     1    2
    16     3     5    1
    17     5     6    2
    18     5    11    1
    19     6     7    1
    20    11     9    2
    21     7     8    2
    22     9     8    1
    23     9    12    1
    24     8    10    1
    25    12    13    2
    26    12    14   am
    27    10    16    2
    28    10    14   am
    29    14    15    1
