@<TRIPOS>MOLECULE
7210_out_ligand_01.pdbqt
 26 28 0 0 0
SMALL
GASTEIGER

@<TRIPOS>ATOM
      1  C         21.9490  -21.6530  -12.2690 C.2     1  UNL1        0.0320
      2  C         20.6170  -21.2460  -12.2920 C.2     1  UNL1        0.0190
      3  C         19.7150  -21.7330  -11.3330 C.2     1  UNL1        0.0310
      4  C         20.1050  -22.6510  -10.3450 C.2     1  UNL1        0.0430
      5  C         21.4530  -23.0740  -10.3450 C.2     1  UNL1       -0.0300
      6  C         22.3590  -22.5700  -11.2990 C.2     1  UNL1        0.0260
      7  C         21.9850  -24.0430   -9.3240 C.3     1  UNL1        0.0420
      8  C         20.8650  -24.8710   -8.7300 C.3     1  UNL1        0.0250
      9  C         19.7640  -23.9430   -8.2510 C.3     1  UNL1        0.1330
     10  N         19.1920  -23.1310   -9.3360 N.am    1  UNL1       -0.3130
     11  C         17.8080  -22.8710   -9.3790 C.2     1  UNL1        0.2580
     12  O         17.1590  -22.5390  -10.3670 O.2     1  UNL1       -0.2670
     13  C         17.0290  -23.0170   -8.1240 C.2     1  UNL1        0.0320
     14  C         16.1910  -24.1200   -7.9320 C.2     1  UNL1        0.0170
     15  C         15.4810  -24.2500   -6.7370 C.2     1  UNL1        0.0070
     16  C         15.6070  -23.2840   -5.7280 C.2     1  UNL1       -0.0620
     17  C         14.8720  -23.4450   -4.4300 C.3     1  UNL1        0.0480
     18  C         16.4800  -22.2040   -5.9170 C.2     1  UNL1        0.0070
     19  C         17.1930  -22.0700   -7.1100 C.2     1  UNL1        0.0170
     20  C         22.9540  -21.1640  -13.2550 C.2     1  UNL1        0.2510
     21  N         24.2790  -21.3800  -12.9370 N.am    1  UNL1       -0.3530
     22  H         24.5100  -21.9800  -12.1610 H       1  UNL1        0.1630
     23  O         22.5790  -20.6290  -14.2920 O.2     1  UNL1       -0.2680
     24  C         25.3390  -21.0490  -13.8560 C.3     1  UNL1        0.1490
     25  C         26.1590  -19.9610  -13.2350 C.2     1  UNL1       -0.0180
     26  C         26.4200  -19.8720  -11.9250 C.2     1  UNL1        0.0080
@<TRIPOS>BOND
     1    23    20    2
     2    24    25    1
     3    24    21    1
     4    20    21   am
     5    20     1    1
     6    25    26    2
     7    21    22    1
     8     2     1    2
     9     2     3    1
    10     1     6    1
    11     3     4    2
    12     6     5    2
    13    12    11    2
    14     4     5    1
    15     4    10    1
    16     5     7    1
    17    11    10   am
    18    11    13    1
    19    10     9    1
    20     7     8    1
    21     8     9    1
    22    13    14    2
    23    13    19    1
    24    14    15    1
    25    19    18    2
    26    15    16    2
    27    18    16    1
    28    16    17    1
