@<TRIPOS>MOLECULE
72145_out_ligand_01.pdbqt
 32 35 0 0 0
SMALL
GASTEIGER

@<TRIPOS>ATOM
      1  C         22.6660  -22.9320  -10.3570 C.2     1  UNL1        0.0340
      2  C         22.5620  -23.8220   -9.2780 C.2     1  UNL1        0.0180
      3  C         21.3140  -24.0710   -8.7020 C.2     1  UNL1        0.0200
      4  C         20.1750  -23.4320   -9.2050 C.ar    1  UNL1        0.0590
      5  C         18.8430  -23.6700   -8.6180 C.ar    1  UNL1        0.2640
      6  O         18.7400  -24.4460   -7.6700 O.2     1  UNL1       -0.2670
      7  N         17.7720  -22.9850   -9.1850 N.ar    1  UNL1       -0.2650
      8  C         17.8820  -22.1290  -10.2710 C.ar    1  UNL1        0.3290
      9  O         16.9340  -21.5640  -10.8150 O.2     1  UNL1       -0.2460
     10  N         19.1400  -21.9280  -10.7690 N.ar    1  UNL1       -0.3070
     11  C         20.2820  -22.5460  -10.2710 C.ar    1  UNL1        0.0530
     12  C         21.5240  -22.2840  -10.8470 C.2     1  UNL1        0.0470
     13  H         19.1940  -21.2870  -11.5500 H       1  UNL1        0.1700
     14  C         23.9730  -22.6290  -10.9980 C.2     1  UNL1        0.2520
     15  O         24.4590  -21.5110  -10.8880 O.2     1  UNL1       -0.2680
     16  N         24.5440  -23.6520  -11.7250 N.am    1  UNL1       -0.3530
     17  H         23.9830  -24.4610  -11.9500 H       1  UNL1        0.1630
     18  C         25.7200  -23.4210  -12.5390 C.3     1  UNL1        0.1620
     19  C         25.3560  -23.3230  -13.9910 C.2     1  UNL1       -0.0230
     20  C         24.8810  -22.1270  -14.5430 C.2     1  UNL1        0.0120
     21  C         24.5250  -22.0810  -15.8880 C.2     1  UNL1        0.0200
     22  C         24.6510  -23.2380  -16.6390 C.2     1  UNL1        0.1160
     23  N         25.1160  -24.4060  -16.1470 N.2     1  UNL1       -0.2730
     24  C         25.4560  -24.4220  -14.8380 C.2     1  UNL1        0.1240
     25  C         16.4530  -23.1700   -8.5840 C.3     1  UNL1        0.1420
     26  C         16.1290  -22.1300   -7.4980 C.3     1  UNL1        0.0590
     27  C         16.1060  -22.6920   -6.0960 C.2     1  UNL1       -0.0570
     28  C         17.1940  -22.4900   -5.2340 C.2     1  UNL1        0.0070
     29  C         17.1680  -22.9950   -3.9310 C.2     1  UNL1        0.0010
     30  C         16.0570  -23.7040   -3.4790 C.2     1  UNL1        0.0000
     31  C         14.9720  -23.9120   -4.3280 C.2     1  UNL1        0.0010
     32  C         14.9960  -23.4100   -5.6320 C.2     1  UNL1        0.0070
@<TRIPOS>BOND
     1    22    23    2
     2    22    21    1
     3    23    24    1
     4    21    20    2
     5    24    19    2
     6    20    19    1
     7    19    18    1
     8    18    16    1
     9    17    16    1
    10    16    14   am
    11    13    10    1
    12    14    15    2
    13    14     1    1
    14    12     1    2
    15    12    11    1
    16     9     8    2
    17    10     8   ar
    18    10    11   ar
    19     1     2    1
    20     8     7   ar
    21    11     4   ar
    22     2     3    2
    23     4     3    1
    24     4     5   ar
    25     7     5   ar
    26     7    25    1
    27     5     6    2
    28    25    26    1
    29    26    27    1
    30    27    32    2
    31    27    28    1
    32    32    31    1
    33    28    29    2
    34    31    30    2
    35    29    30    1
