@<TRIPOS>MOLECULE
72144_out_ligand_01.pdbqt
 34 37 0 0 0
SMALL
GASTEIGER

@<TRIPOS>ATOM
      1  N         20.3630  -22.8650   -9.2080 N.pl3   1  UNL1       -0.3310
      2  C         21.6710  -22.6280   -9.5930 C.2     1  UNL1        0.1130
      3  C         22.0590  -21.9160  -10.6620 C.2     1  UNL1        0.0810
      4  C         20.9870  -21.3970  -11.5460 C.2     1  UNL1        0.2010
      5  O         21.2310  -20.7930  -12.5860 O.2     1  UNL1       -0.2860
      6  C         19.5820  -21.6410  -11.1460 C.2     1  UNL1        0.0610
      7  C         18.5370  -21.1500  -11.9300 C.2     1  UNL1        0.0210
      8  C         17.2270  -21.3830  -11.5350 C.2     1  UNL1        0.0280
      9  C         17.0020  -22.0970  -10.3640 C.2     1  UNL1        0.0330
     10  C         15.5930  -22.3640   -9.9130 C.3     1  UNL1        0.0700
     11  N         18.0090  -22.6000   -9.6010 N.2     1  UNL1       -0.2350
     12  C         19.2950  -22.3700   -9.9860 C.2     1  UNL1        0.1440
     13  C         20.0100  -23.6950   -8.0460 C.3     1  UNL1        0.2330
     14  C         19.1770  -22.9060   -7.0290 C.2     1  UNL1        0.2400
     15  N         17.9840  -23.5360   -6.7130 N.am    1  UNL1       -0.3260
     16  H         17.9320  -24.5120   -7.0090 H       1  UNL1        0.1690
     17  O         19.5810  -21.8330   -6.5740 O.2     1  UNL1       -0.2710
     18  C         16.9520  -23.0760   -5.8710 C.2     1  UNL1        0.0370
     19  C         17.0980  -22.8870   -4.4970 C.2     1  UNL1        0.0290
     20  C         16.0250  -22.4300   -3.7300 C.2     1  UNL1        0.0050
     21  C         14.8070  -22.1420   -4.3370 C.2     1  UNL1        0.0370
     22  C         14.6490  -22.2970   -5.7160 C.2     1  UNL1        0.0700
     23  C         15.7200  -22.7740   -6.4770 C.2     1  UNL1        0.0660
     24  O         13.4140  -21.9470   -6.1960 O.2     1  UNL1       -0.3560
     25  C         12.9120  -20.6710   -5.8190 C.3     1  UNL1        0.2100
     26  C         23.5190  -21.7470  -10.8860 C.2     1  UNL1        0.1970
     27  O         24.2280  -21.1790  -10.0490 O.2     1  UNL1       -0.2860
     28  C         24.1380  -22.2120  -12.1540 C.2     1  UNL1        0.0150
     29  C         24.4610  -23.5710  -12.2710 C.2     1  UNL1        0.0160
     30  C         25.1060  -24.0450  -13.4150 C.2     1  UNL1        0.0070
     31  C         25.4540  -23.1660  -14.4490 C.2     1  UNL1       -0.0620
     32  C         26.1290  -23.6870  -15.6860 C.3     1  UNL1        0.0480
     33  C         25.1260  -21.8100  -14.3330 C.2     1  UNL1        0.0070
     34  C         24.4840  -21.3310  -13.1870 C.2     1  UNL1        0.0160
@<TRIPOS>BOND
     1    32    31    1
     2    31    33    2
     3    31    30    1
     4    33    34    1
     5    30    29    2
     6    34    28    2
     7     5     4    2
     8    29    28    1
     9    28    26    1
    10     7     8    1
    11     7     6    2
    12     4     6    1
    13     4     3    1
    14     8     9    2
    15     6    12    1
    16    26     3    1
    17    26    27    2
    18     3     2    2
    19     9    10    1
    20     9    11    1
    21    12    11    2
    22    12     1    1
    23     2     1    1
    24     1    13    1
    25    13    14    1
    26    14    15   am
    27    14    17    2
    28    16    15    1
    29    15    18    1
    30    23    18    2
    31    23    22    1
    32    24    25    1
    33    24    22    1
    34    18    19    1
    35    22    21    2
    36    19    20    2
    37    21    20    1
