@<TRIPOS>MOLECULE
72147_out_ligand_01.pdbqt
 23 25 0 0 0
SMALL
GASTEIGER

@<TRIPOS>ATOM
      1  C         18.3540  -22.2890   -7.4410 C.2     1  UNL1        0.0360
      2  C         17.0080  -22.6560   -7.6640 C.2     1  UNL1        0.0300
      3  C         16.0740  -22.6960   -6.6170 C.2     1  UNL1        0.0200
      4  C         16.5240  -22.3650   -5.3600 C.2     1  UNL1        0.0480
      5  C         17.8410  -22.0080   -5.1310 C.2     1  UNL1        0.0500
      6  C         18.7790  -21.9610   -6.1450 C.2     1  UNL1        0.0470
      7  C         17.9780  -21.7250   -3.7050 C.2     1  UNL1        0.2590
      8  O         19.0050  -21.3840   -3.1530 O.2     1  UNL1       -0.2670
      9  N         16.7490  -21.9230   -3.1540 N.am    1  UNL1       -0.2890
     10  C         15.8250  -22.3070   -4.0750 C.2     1  UNL1        0.2590
     11  O         14.6520  -22.5610   -3.8980 O.2     1  UNL1       -0.2670
     12  H         16.5460  -21.8000   -2.1740 H       1  UNL1        0.1720
     13  N         19.3280  -22.2380   -8.4590 N.am    1  UNL1       -0.3230
     14  C         19.9920  -23.3020   -9.0430 C.2     1  UNL1        0.2560
     15  O         19.8360  -24.4920   -8.8100 O.2     1  UNL1       -0.2670
     16  H         19.5320  -21.3200   -8.8390 H       1  UNL1        0.1690
     17  C         20.9820  -22.8930  -10.0780 C.2     1  UNL1        0.0380
     18  C         22.3150  -23.3100   -9.9290 C.2     1  UNL1        0.0170
     19  C         23.2690  -22.9510  -10.8790 C.2     1  UNL1        0.0010
     20  C         22.8970  -22.1840  -11.9810 C.2     1  UNL1        0.0010
     21  C         21.5700  -21.7760  -12.1370 C.2     1  UNL1        0.0070
     22  C         20.5960  -22.1180  -11.1870 C.2     1  UNL1       -0.0460
     23  C         19.1740  -21.6750  -11.3950 C.3     1  UNL1        0.0490
@<TRIPOS>BOND
     1    21    20    2
     2    21    22    1
     3    20    19    1
     4    23    22    1
     5    22    17    2
     6    19    18    2
     7    17    18    1
     8    17    14    1
     9    14    15    2
    10    14    13   am
    11    16    13    1
    12    13     1    1
    13     2     1    2
    14     2     3    1
    15     1     6    1
    16     3     4    2
    17     6     5    2
    18     4     5    1
    19     4    10    1
    20     5     7    1
    21    10    11    2
    22    10     9   am
    23     7     9   am
    24     7     8    2
    25     9    12    1
