@<TRIPOS>MOLECULE
72153_out_ligand_01.pdbqt
 26 29 0 0 0
SMALL
GASTEIGER

@<TRIPOS>ATOM
      1  O         21.3260  -24.1030   -8.7940 O.2     1  UNL1       -0.2670
      2  C         20.7040  -23.1700   -9.2870 C.2     1  UNL1        0.2560
      3  N         19.5710  -22.5650   -8.7710 N.am    1  UNL1       -0.3230
      4  H         19.2600  -21.7170   -9.2300 H       1  UNL1        0.1690
      5  C         18.8520  -22.9380   -7.6170 C.2     1  UNL1        0.0360
      6  C         18.0980  -24.1310   -7.5150 C.2     1  UNL1        0.0300
      7  C         17.3930  -24.4560   -6.3460 C.2     1  UNL1        0.0200
      8  C         17.4630  -23.5650   -5.2990 C.2     1  UNL1        0.0480
      9  C         18.1950  -22.3950   -5.3910 C.2     1  UNL1        0.0500
     10  C         16.8570  -23.6000   -3.9680 C.2     1  UNL1        0.2590
     11  C         18.8960  -22.0520   -6.5310 C.2     1  UNL1        0.0470
     12  C         18.0530  -21.6880   -4.1210 C.2     1  UNL1        0.2590
     13  O         18.5610  -20.6180   -3.8540 O.2     1  UNL1       -0.2670
     14  N         17.2540  -22.4620   -3.3360 N.am    1  UNL1       -0.2890
     15  H         16.9820  -22.2200   -2.3970 H       1  UNL1        0.1720
     16  O         16.1430  -24.4830   -3.5390 O.2     1  UNL1       -0.2670
     17  C         21.2140  -22.5700  -10.5510 C.2     1  UNL1        0.0350
     18  C         20.4000  -21.7660  -11.3640 C.2     1  UNL1        0.0200
     19  C         20.9120  -21.2270  -12.5470 C.2     1  UNL1        0.0400
     20  C         22.2260  -21.5000  -12.9240 C.2     1  UNL1        0.1020
     21  C         23.0400  -22.2940  -12.1090 C.2     1  UNL1        0.1030
     22  O         22.6510  -20.9550  -14.1080 O.2     1  UNL1       -0.3460
     23  C         22.5310  -22.8460  -10.9370 C.2     1  UNL1        0.0560
     24  O         24.3490  -22.5790  -12.4070 O.2     1  UNL1       -0.3460
     25  C         24.8560  -21.7100  -13.4270 C.3     1  UNL1        0.2020
     26  C         23.8570  -21.5780  -14.5660 C.3     1  UNL1        0.2020
@<TRIPOS>BOND
     1    26    22    1
     2    26    25    1
     3    22    20    1
     4    25    24    1
     5    20    19    2
     6    20    21    1
     7    19    18    1
     8    24    21    1
     9    21    23    2
    10    18    17    2
    11    23    17    1
    12    17     2    1
    13     2     1    2
    14     2     3   am
    15     4     3    1
    16     3     5    1
    17     5     6    2
    18     5    11    1
    19     6     7    1
    20    11     9    2
    21     7     8    2
    22     9     8    1
    23     9    12    1
    24     8    10    1
    25    12    13    2
    26    12    14   am
    27    10    16    2
    28    10    14   am
    29    14    15    1
