@<TRIPOS>MOLECULE
7216_out_ligand_01.pdbqt
 32 35 0 0 0
SMALL
GASTEIGER

@<TRIPOS>ATOM
      1  C         21.6950  -22.3720   -8.9470 C.2     1  UNL1        0.1060
      2  C         21.4700  -22.1600   -7.5640 C.2     1  UNL1        0.0670
      3  C         20.1060  -21.9860   -7.4000 C.2     1  UNL1        0.1060
      4  O         19.5040  -22.0900   -8.6290 O.2     1  UNL1       -0.3110
      5  C         20.4660  -22.3340   -9.5610 C.2     1  UNL1        0.0720
      6  C         20.0040  -22.4870  -10.9560 C.3     1  UNL1        0.0780
      7  C         19.3540  -21.7360   -6.2100 C.2     1  UNL1        0.1010
      8  N         19.5860  -20.6790   -5.3700 N.pl3   1  UNL1       -0.2750
      9  N         18.7460  -20.6170   -4.3220 N.2     1  UNL1       -0.1860
     10  H         20.2960  -19.9600   -5.4520 H       1  UNL1        0.1890
     11  C         17.9330  -21.6590   -4.5170 C.2     1  UNL1        0.1580
     12  C         18.2820  -22.4160   -5.6550 C.2     1  UNL1        0.0820
     13  C         17.6100  -23.5930   -6.1630 C.2     1  UNL1        0.2570
     14  O         17.8030  -24.6820   -5.6290 O.2     1  UNL1       -0.2670
     15  N         16.7920  -23.4380   -7.2910 N.am    1  UNL1       -0.3480
     16  C         16.4370  -22.1390   -7.8680 C.3     1  UNL1        0.1260
     17  C         15.9090  -24.5510   -7.6260 C.3     1  UNL1        0.1260
     18  C         16.1850  -22.2280   -9.3710 C.3     1  UNL1        0.0200
     19  C         15.1860  -23.3270   -9.7040 C.3     1  UNL1        0.0030
     20  C         15.6540  -24.6580   -9.1260 C.3     1  UNL1        0.0200
     21  S         23.2060  -22.6310   -9.7180 S.O2    1  UNL1        0.2480
     22  O         23.8430  -23.6280   -8.8890 O.2     1  UNL1       -0.2050
     23  O         23.7360  -21.2970   -9.8970 O.2     1  UNL1       -0.2050
     24  N         22.8640  -23.2620  -11.2590 N.pl3   1  UNL1       -0.1810
     25  H         21.8500  -23.2690  -11.3820 H       1  UNL1        0.1460
     26  C         23.5250  -22.5770  -12.3290 C.2     1  UNL1        0.0220
     27  C         22.8290  -21.6250  -13.0730 C.2     1  UNL1        0.0250
     28  C         23.4550  -20.9870  -14.1450 C.2     1  UNL1        0.0080
     29  C         24.7790  -21.2960  -14.4800 C.2     1  UNL1       -0.0620
     30  C         25.4380  -20.6370  -15.6560 C.3     1  UNL1        0.0480
     31  C         25.4580  -22.2780  -13.7460 C.2     1  UNL1        0.0080
     32  C         24.8320  -22.9180  -12.6740 C.2     1  UNL1        0.0250
@<TRIPOS>BOND
     1    30    29    1
     2    29    28    2
     3    29    31    1
     4    28    27    1
     5    31    32    2
     6    27    26    2
     7    32    26    1
     8    26    24    1
     9    25    24    1
    10    24    21    1
    11     6     5    1
    12    23    21    2
    13    21     1    1
    14    21    22    2
    15    19    18    1
    16    19    20    1
    17     5     1    2
    18     5     4    1
    19    18    16    1
    20    20    17    1
    21     1     2    1
    22     4     3    1
    23    16    15    1
    24    17    15    1
    25     2     3    2
    26     3     7    1
    27    15    13   am
    28     7    12    2
    29     7     8    1
    30    13    12    1
    31    13    14    2
    32    12    11    1
    33    10     8    1
    34     8     9    1
    35    11     9    2
