@<TRIPOS>MOLECULE
72184_out_ligand_01.pdbqt
 31 34 0 0 0
SMALL
GASTEIGER

@<TRIPOS>ATOM
      1  N         20.1640  -22.1100  -10.6890 N.pl3   1  UNL1       -0.2810
      2  C         19.4540  -21.1870  -11.4720 C.2     1  UNL1        0.0920
      3  C         18.1130  -21.1940  -11.3950 C.2     1  UNL1        0.1190
      4  C         17.4050  -22.1480  -10.5150 C.2     1  UNL1        0.2720
      5  O         16.1790  -22.1400  -10.5120 O.2     1  UNL1       -0.2660
      6  N         18.1510  -22.9880   -9.7340 N.am    1  UNL1       -0.1850
      7  C         19.4410  -22.9600   -9.8500 C.2     1  UNL1        0.1780
      8  S         20.2850  -24.0870   -8.7670 S.3     1  UNL1       -0.0820
      9  C         19.2350  -23.9160   -7.2920 C.3     1  UNL1        0.1850
     10  C         19.3280  -22.5140   -6.6900 C.2     1  UNL1        0.2340
     11  O         20.2690  -21.7690   -6.9920 O.2     1  UNL1       -0.2720
     12  N         18.4230  -22.1550   -5.6890 N.am    1  UNL1       -0.3170
     13  C         18.8900  -21.1910   -4.6910 C.3     1  UNL1        0.1320
     14  C         17.0480  -22.5340   -5.5920 C.2     1  UNL1        0.0430
     15  C         18.5380  -21.6690   -3.2930 C.3     1  UNL1        0.0250
     16  C         17.0290  -21.7670   -3.1530 C.3     1  UNL1        0.0420
     17  C         16.3680  -22.3780   -4.3650 C.2     1  UNL1       -0.0310
     18  C         15.0130  -22.7400   -4.2580 C.2     1  UNL1        0.0090
     19  C         14.3230  -23.2380   -5.3590 C.2     1  UNL1        0.0010
     20  C         14.9710  -23.3490   -6.5820 C.2     1  UNL1        0.0020
     21  C         16.3170  -22.9860   -6.6980 C.2     1  UNL1        0.0300
     22  C         21.5880  -22.1440  -10.7500 C.2     1  UNL1        0.0430
     23  C         22.2430  -22.8870  -11.7430 C.2     1  UNL1        0.0300
     24  C         23.6380  -22.9110  -11.8080 C.2     1  UNL1        0.0090
     25  C         24.4030  -22.1770  -10.8940 C.2     1  UNL1       -0.0620
     26  C         25.9020  -22.2300  -10.9410 C.3     1  UNL1        0.0480
     27  C         23.7530  -21.4350   -9.9010 C.2     1  UNL1        0.0090
     28  C         22.3580  -21.4120   -9.8340 C.2     1  UNL1        0.0300
     29  N         20.0660  -20.2770  -12.3270 N.pl3   1  UNL1       -0.2880
     30  H         20.7370  -19.6660  -11.8690 H       1  UNL1        0.1250
     31  H         19.3840  -19.7490  -12.8690 H       1  UNL1        0.1250
@<TRIPOS>BOND
     1    31    29    1
     2    29    30    1
     3    29     2    1
     4    24    23    1
     5    24    25    2
     6    23    22    2
     7     2     3    2
     8     2     1    1
     9     3     4    1
    10    26    25    1
    11    25    27    1
    12    22     1    1
    13    22    28    1
    14     1     7    1
    15     4     5    2
    16     4     6    1
    17    27    28    2
    18     7     6    2
    19     7     8    1
    20     8     9    1
    21     9    10    1
    22    11    10    2
    23    21    20    1
    24    21    14    2
    25    10    12   am
    26    20    19    2
    27    12    14    1
    28    12    13    1
    29    14    17    1
    30    19    18    1
    31    13    15    1
    32    17    18    2
    33    17    16    1
    34    15    16    1
