@<TRIPOS>MOLECULE
72254_out_ligand_01.pdbqt
 24 26 0 0 0
SMALL
GASTEIGER

@<TRIPOS>ATOM
      1  N         23.5690  -20.6390  -14.7790 N.1     1  UNL1       -0.1910
      2  C         23.0820  -21.1110  -13.8370 C.1     1  UNL1        0.0990
      3  C         22.4880  -21.6940  -12.6690 C.2     1  UNL1        0.0440
      4  C         21.1450  -21.4490  -12.3680 C.2     1  UNL1        0.0240
      5  C         20.5670  -22.0200  -11.2290 C.2     1  UNL1        0.0180
      6  C         21.3320  -22.8290  -10.3790 C.2     1  UNL1        0.0320
      7  C         22.6730  -23.0880  -10.6900 C.2     1  UNL1        0.0180
      8  C         23.2500  -22.5170  -11.8310 C.2     1  UNL1        0.0240
      9  C         20.6720  -23.4220   -9.1820 C.2     1  UNL1        0.2560
     10  O         21.1380  -24.4550   -8.7160 O.2     1  UNL1       -0.2670
     11  N         19.5510  -22.7450   -8.7360 N.am    1  UNL1       -0.3230
     12  H         19.2130  -21.9870   -9.3150 H       1  UNL1        0.1690
     13  C         18.7570  -23.0530   -7.6090 C.2     1  UNL1        0.0360
     14  C         17.9070  -24.1800   -7.5350 C.2     1  UNL1        0.0300
     15  C         17.1400  -24.4470   -6.3910 C.2     1  UNL1        0.0200
     16  C         17.2510  -23.5670   -5.3370 C.2     1  UNL1        0.0480
     17  C         18.0840  -22.4640   -5.4000 C.2     1  UNL1        0.0500
     18  C         16.6060  -23.5540   -4.0250 C.2     1  UNL1        0.2590
     19  C         18.8490  -22.1790   -6.5150 C.2     1  UNL1        0.0470
     20  C         17.9670  -21.7540   -4.1290 C.2     1  UNL1        0.2590
     21  O         18.5670  -20.7380   -3.8380 O.2     1  UNL1       -0.2670
     22  N         17.0790  -22.4560   -3.3760 N.am    1  UNL1       -0.2890
     23  H         16.8040  -22.1960   -2.4420 H       1  UNL1        0.1720
     24  O         15.8100  -24.3780   -3.6210 O.2     1  UNL1       -0.2670
@<TRIPOS>BOND
     1     1     2    3
     2     2     3    1
     3     3     4    2
     4     3     8    1
     5     4     5    1
     6     8     7    2
     7     5     6    2
     8     7     6    1
     9     6     9    1
    10    12    11    1
    11     9    11   am
    12     9    10    2
    13    11    13    1
    14    13    14    2
    15    13    19    1
    16    14    15    1
    17    19    17    2
    18    15    16    2
    19    17    16    1
    20    17    20    1
    21    16    18    1
    22    20    21    2
    23    20    22   am
    24    18    24    2
    25    18    22   am
    26    22    23    1
