@<TRIPOS>MOLECULE
72265_out_ligand_01.pdbqt
 26 28 0 0 0
SMALL
GASTEIGER

@<TRIPOS>ATOM
      1  C         19.7200  -22.3570   -9.9320 C.2     1  UNL1        0.2560
      2  O         18.5980  -22.0590  -10.3240 O.2     1  UNL1       -0.2670
      3  N         20.0590  -22.8060   -8.6680 N.am    1  UNL1       -0.3230
      4  H         21.0460  -22.8730   -8.4540 H       1  UNL1        0.1690
      5  C         19.1830  -23.0940   -7.5990 C.2     1  UNL1        0.0360
      6  C         18.3800  -24.2560   -7.5350 C.2     1  UNL1        0.0300
      7  C         17.5270  -24.5010   -6.4480 C.2     1  UNL1        0.0200
      8  C         17.5050  -23.5640   -5.4400 C.2     1  UNL1        0.0480
      9  C         18.2910  -22.4280   -5.4910 C.2     1  UNL1        0.0500
     10  C         16.7440  -23.5150   -4.1920 C.2     1  UNL1        0.2590
     11  C         19.1400  -22.1630   -6.5500 C.2     1  UNL1        0.0470
     12  C         18.0300  -21.6580   -4.2770 C.2     1  UNL1        0.2590
     13  O         18.5540  -20.5990   -3.9940 O.2     1  UNL1       -0.2670
     14  N         17.1110  -22.3640   -3.5650 N.am    1  UNL1       -0.2890
     15  H         16.7420  -22.0700   -2.6750 H       1  UNL1        0.1720
     16  O         15.9510  -24.3530   -3.8130 O.2     1  UNL1       -0.2670
     17  C         20.8650  -22.1840  -10.8730 C.2     1  UNL1        0.0320
     18  C         22.1190  -22.7670  -10.6320 C.2     1  UNL1        0.0180
     19  C         23.1630  -22.5860  -11.5440 C.2     1  UNL1        0.0240
     20  C         22.9480  -21.8240  -12.6980 C.2     1  UNL1        0.0580
     21  C         21.6940  -21.2670  -12.9640 C.2     1  UNL1        0.0240
     22  C         20.6560  -21.4480  -12.0490 C.2     1  UNL1        0.0180
     23  S         24.2640  -21.6150  -13.8760 S.O2    1  UNL1        0.1710
     24  C         25.1040  -23.1760  -13.8330 C.3     1  UNL1        0.1670
     25  O         23.6570  -21.4680  -15.1860 O.2     1  UNL1       -0.2230
     26  O         25.1570  -20.6010  -13.3490 O.2     1  UNL1       -0.2230
@<TRIPOS>BOND
     1    25    23    2
     2    23    24    1
     3    23    26    2
     4    23    20    1
     5    21    20    2
     6    21    22    1
     7    20    19    1
     8    22    17    2
     9    19    18    2
    10    17    18    1
    11    17     1    1
    12     2     1    2
    13     1     3   am
    14     3     4    1
    15     3     5    1
    16     5     6    2
    17     5    11    1
    18     6     7    1
    19    11     9    2
    20     7     8    2
    21     9     8    1
    22     9    12    1
    23     8    10    1
    24    12    13    2
    25    12    14   am
    26    10    16    2
    27    10    14   am
    28    14    15    1
