@<TRIPOS>MOLECULE
72266_out_ligand_01.pdbqt
 24 26 0 0 0
SMALL
GASTEIGER

@<TRIPOS>ATOM
      1  C         18.7770  -23.0390   -7.6750 C.2     1  UNL1        0.0360
      2  C         17.9330  -24.1700   -7.5860 C.2     1  UNL1        0.0300
      3  C         17.1720  -24.4300   -6.4360 C.2     1  UNL1        0.0200
      4  C         17.2810  -23.5380   -5.3920 C.2     1  UNL1        0.0480
      5  C         18.1070  -22.4330   -5.4690 C.2     1  UNL1        0.0500
      6  C         18.8670  -22.1540   -6.5900 C.2     1  UNL1        0.0470
      7  C         17.9910  -21.7090   -4.2050 C.2     1  UNL1        0.2590
      8  O         18.5840  -20.6880   -3.9250 O.2     1  UNL1       -0.2670
      9  N         17.1080  -22.4100   -3.4410 N.am    1  UNL1       -0.2890
     10  C         16.6390  -23.5190   -4.0780 C.2     1  UNL1        0.2590
     11  O         15.8500  -24.3420   -3.6640 O.2     1  UNL1       -0.2670
     12  H         16.8360  -22.1440   -2.5090 H       1  UNL1        0.1720
     13  N         19.5640  -22.7380   -8.8060 N.am    1  UNL1       -0.3230
     14  C         20.7060  -23.3930   -9.2340 C.2     1  UNL1        0.2560
     15  O         21.1990  -24.4000   -8.7420 O.2     1  UNL1       -0.2670
     16  H         19.2100  -22.0050   -9.4090 H       1  UNL1        0.1690
     17  C         21.3450  -22.8070  -10.4460 C.2     1  UNL1        0.0320
     18  C         20.5810  -21.9720  -11.2640 C.2     1  UNL1        0.0170
     19  C         21.1500  -21.4020  -12.4030 C.2     1  UNL1        0.0080
     20  C         22.4850  -21.6650  -12.7480 C.2     1  UNL1       -0.0560
     21  C         23.0580  -21.0360  -13.9900 C.3     1  UNL1        0.0490
     22  C         23.2530  -22.5260  -11.9380 C.2     1  UNL1       -0.0550
     23  C         22.6710  -23.0950  -10.7920 C.2     1  UNL1        0.0240
     24  C         24.6790  -22.8620  -12.2850 C.3     1  UNL1        0.0490
@<TRIPOS>BOND
     1    21    20    1
     2    20    19    2
     3    20    22    1
     4    19    18    1
     5    24    22    1
     6    22    23    2
     7    18    17    2
     8    23    17    1
     9    17    14    1
    10    16    13    1
    11    14    13   am
    12    14    15    2
    13    13     1    1
    14     1     2    2
    15     1     6    1
    16     2     3    1
    17     6     5    2
    18     3     4    2
    19     5     4    1
    20     5     7    1
    21     4    10    1
    22     7     8    2
    23     7     9   am
    24    10    11    2
    25    10     9   am
    26     9    12    1
