@<TRIPOS>MOLECULE
72263_out_ligand_01.pdbqt
 23 25 0 0 0
SMALL
GASTEIGER

@<TRIPOS>ATOM
      1  C         18.8510  -23.0070   -7.6360 C.2     1  UNL1        0.0360
      2  C         17.9840  -24.1220   -7.6070 C.2     1  UNL1        0.0300
      3  C         17.1930  -24.4070   -6.4840 C.2     1  UNL1        0.0200
      4  C         17.2920  -23.5510   -5.4100 C.2     1  UNL1        0.0480
      5  C         18.1330  -22.4550   -5.4320 C.2     1  UNL1        0.0500
      6  C         18.9220  -22.1530   -6.5250 C.2     1  UNL1        0.0470
      7  C         17.9930  -21.7670   -4.1500 C.2     1  UNL1        0.2590
      8  O         18.5850  -20.7580   -3.8280 O.2     1  UNL1       -0.2670
      9  N         17.0850  -22.4800   -3.4290 N.am    1  UNL1       -0.2890
     10  C         16.6160  -23.5620   -4.1120 C.2     1  UNL1        0.2590
     11  O         15.8010  -24.3820   -3.7440 O.2     1  UNL1       -0.2670
     12  H         16.7880  -22.2350   -2.4980 H       1  UNL1        0.1720
     13  N         19.6630  -22.6760   -8.7420 N.am    1  UNL1       -0.3230
     14  C         20.7500  -23.3820   -9.2270 C.2     1  UNL1        0.2560
     15  O         21.2480  -24.3870   -8.7370 O.2     1  UNL1       -0.2670
     16  H         19.4670  -21.7860   -9.1850 H       1  UNL1        0.1690
     17  C         21.3810  -22.8010  -10.4470 C.2     1  UNL1        0.0320
     18  C         20.6080  -21.9710  -11.2660 C.2     1  UNL1        0.0170
     19  C         21.1630  -21.4110  -12.4200 C.2     1  UNL1        0.0070
     20  C         22.5010  -21.6550  -12.7540 C.2     1  UNL1       -0.0620
     21  C         23.0860  -21.0760  -14.0080 C.3     1  UNL1        0.0480
     22  C         23.2720  -22.4820  -11.9270 C.2     1  UNL1        0.0070
     23  C         22.7210  -23.0460  -10.7740 C.2     1  UNL1        0.0170
@<TRIPOS>BOND
     1    21    20    1
     2    20    19    2
     3    20    22    1
     4    19    18    1
     5    22    23    2
     6    18    17    2
     7    23    17    1
     8    17    14    1
     9    14    13   am
    10    14    15    2
    11    16    13    1
    12    13     1    1
    13     1     2    2
    14     1     6    1
    15     2     3    1
    16     6     5    2
    17     3     4    2
    18     5     4    1
    19     5     7    1
    20     4    10    1
    21     7     8    2
    22     7     9   am
    23    10    11    2
    24    10     9   am
    25     9    12    1
