@<TRIPOS>MOLECULE
72380_out_ligand_01.pdbqt
 35 39 0 0 0
SMALL
GASTEIGER

@<TRIPOS>ATOM
      1  C         19.4130  -22.2150   -9.6010 C.2     1  UNL1        0.0330
      2  C         18.9720  -21.8080  -10.8680 C.2     1  UNL1        0.0170
      3  C         19.8910  -21.6400  -11.9070 C.2     1  UNL1        0.0030
      4  C         21.2500  -21.8630  -11.6810 C.2     1  UNL1        0.0250
      5  C         21.6870  -22.2420  -10.4070 C.2     1  UNL1        0.0800
      6  C         20.7750  -22.4330   -9.3670 C.2     1  UNL1        0.0420
      7  S         23.4160  -22.5380  -10.1220 S.O2    1  UNL1        0.2580
      8  O         23.5230  -23.5100   -9.0550 O.2     1  UNL1       -0.2010
      9  O         24.0840  -21.2590  -10.0550 O.2     1  UNL1       -0.2010
     10  N         23.8890  -23.3200  -11.5230 N.3     1  UNL1       -0.3150
     11  H         23.1560  -23.4040  -12.2250 H       1  UNL1        0.1720
     12  C         25.2930  -23.3190  -11.9390 C.3     1  UNL1        0.1410
     13  C         25.4500  -22.8530  -13.4020 C.3     1  UNL1       -0.0230
     14  C         25.4290  -24.1030  -14.3250 C.3     1  UNL1        0.0150
     15  C         25.5730  -23.6990  -15.8020 C.3     1  UNL1       -0.0130
     16  C         24.4110  -22.7700  -16.1860 C.3     1  UNL1        0.0090
     17  C         26.9040  -22.9560  -15.9930 C.3     1  UNL1        0.0090
     18  C         24.4300  -21.5100  -15.3040 C.3     1  UNL1       -0.0130
     19  C         25.7680  -20.7770  -15.4970 C.3     1  UNL1        0.0090
     20  C         24.2850  -21.9210  -13.8280 C.3     1  UNL1        0.0150
     21  C         26.9370  -21.6980  -15.1100 C.3     1  UNL1       -0.0130
     22  C         26.7900  -22.1080  -13.6330 C.3     1  UNL1        0.0150
     23  C         18.4660  -22.3760   -8.4650 C.2     1  UNL1        0.2560
     24  O         17.3210  -22.7250   -8.7200 O.2     1  UNL1       -0.2670
     25  N         18.9920  -22.0760   -7.2230 N.am    1  UNL1       -0.3230
     26  H         19.9200  -21.6730   -7.2050 H       1  UNL1        0.1690
     27  C         18.3390  -22.1760   -5.9740 C.2     1  UNL1        0.0370
     28  C         18.8160  -21.3530   -4.9430 C.2     1  UNL1        0.0290
     29  C         18.2370  -21.3840   -3.6710 C.2     1  UNL1        0.0050
     30  C         17.1730  -22.2430   -3.4130 C.2     1  UNL1        0.0360
     31  C         16.6950  -23.0710   -4.4380 C.2     1  UNL1        0.1050
     32  C         17.2740  -23.0410   -5.7170 C.2     1  UNL1        0.0650
     33  N         15.5780  -23.9840   -4.1630 N.pl3   1  UNL1       -0.1160
     34  O         14.6250  -23.9950   -4.9530 O.2     1  UNL1       -0.5320
     35  O         15.6560  -24.6990   -3.1530 O.2     1  UNL1       -0.5320
@<TRIPOS>BOND
     1    16    15    1
     2    16    18    1
     3    17    15    1
     4    17    21    1
     5    15    14    1
     6    19    18    1
     7    19    21    1
     8    18    20    1
     9    21    22    1
    10    14    13    1
    11    20    13    1
    12    22    13    1
    13    13    12    1
    14    11    10    1
    15    12    10    1
    16     3     4    2
    17     3     2    1
    18     4     5    1
    19    10     7    1
    20     2     1    2
    21     5     7    1
    22     5     6    2
    23     7     9    2
    24     7     8    2
    25     1     6    1
    26     1    23    1
    27    24    23    2
    28    23    25   am
    29    25    26    1
    30    25    27    1
    31    27    32    2
    32    27    28    1
    33    32    31    1
    34    34    33    2
    35    28    29    2
    36    31    33    1
    37    31    30    2
    38    33    35    2
    39    29    30    1
