@<TRIPOS>MOLECULE
72409_out_ligand_01.pdbqt
 33 36 0 0 0
SMALL
GASTEIGER

@<TRIPOS>ATOM
      1  N         15.6240  -22.2230   -9.9680 N.1     1  UNL1       -0.1910
      2  C         15.9210  -22.5420   -8.8940 C.1     1  UNL1        0.1020
      3  C         16.3130  -22.9790   -7.5880 C.2     1  UNL1        0.0740
      4  C         15.4800  -22.6650   -6.5020 C.2     1  UNL1        0.0640
      5  C         15.8550  -23.1140   -5.2550 C.2     1  UNL1        0.1060
      6  C         16.9980  -23.8530   -5.0660 C.2     1  UNL1        0.1070
      7  C         17.8390  -24.1780   -6.1100 C.2     1  UNL1        0.0710
      8  C         17.5070  -23.7220   -7.3930 C.2     1  UNL1        0.0660
      9  O         17.1750  -24.2060   -3.7650 O.2     1  UNL1       -0.3230
     10  C         16.0090  -23.6140   -3.1560 C.3     1  UNL1        0.3520
     11  O         15.1720  -22.9080   -4.0990 O.2     1  UNL1       -0.3230
     12  N         18.3670  -24.0250   -8.5000 N.pl3   1  UNL1       -0.2790
     13  H         17.9920  -23.9990   -9.4520 H       1  UNL1        0.1790
     14  S         19.9990  -23.5880   -8.4680 S.O2    1  UNL1        0.2630
     15  O         20.7530  -24.8070   -8.6620 O.2     1  UNL1       -0.2000
     16  O         20.2420  -22.7310   -7.3290 O.2     1  UNL1       -0.2000
     17  C         20.1820  -22.6080   -9.9400 C.2     1  UNL1        0.0800
     18  C         19.0970  -21.8650  -10.4190 C.2     1  UNL1        0.0250
     19  C         19.2480  -21.0860  -11.5670 C.2     1  UNL1        0.0030
     20  C         20.4810  -21.0350  -12.2200 C.2     1  UNL1        0.0170
     21  C         21.5750  -21.7560  -11.7170 C.2     1  UNL1        0.0330
     22  C         21.4230  -22.5560  -10.5790 C.2     1  UNL1        0.0420
     23  C         22.9020  -21.7210  -12.3890 C.2     1  UNL1        0.2560
     24  O         23.8920  -21.9530  -11.7080 O.2     1  UNL1       -0.2670
     25  N         22.8660  -21.3910  -13.7300 N.am    1  UNL1       -0.3230
     26  H         21.9740  -21.1020  -14.1090 H       1  UNL1        0.1690
     27  C         23.9590  -21.3170  -14.6200 C.2     1  UNL1        0.0350
     28  C         24.7640  -20.1840  -14.7740 C.2     1  UNL1        0.0320
     29  C         25.8330  -20.1920  -15.6760 C.2     1  UNL1        0.0440
     30  C         26.0970  -21.3330  -16.4200 C.2     1  UNL1        0.1160
     31  F         27.1210  -21.3390  -17.2820 F       1  UNL1       -0.2060
     32  C         25.3120  -22.4700  -16.2810 C.2     1  UNL1        0.0440
     33  C         24.2430  -22.4610  -15.3800 C.2     1  UNL1        0.0320
@<TRIPOS>BOND
     1    31    30    1
     2    30    32    2
     3    30    29    1
     4    32    33    1
     5    29    28    2
     6    33    27    2
     7    28    27    1
     8    27    25    1
     9    26    25    1
    10    25    23   am
    11    23    21    1
    12    23    24    2
    13    20    21    2
    14    20    19    1
    15    21    22    1
    16    19    18    2
    17    22    17    2
    18    18    17    1
    19     1     2    3
    20    17    14    1
    21    13    12    1
    22     2     3    1
    23    15    14    2
    24    12    14    1
    25    12     8    1
    26    14    16    2
    27     3     8    2
    28     3     4    1
    29     8     7    1
    30     4     5    2
    31     7     6    2
    32     5     6    1
    33     5    11    1
    34     6     9    1
    35    11    10    1
    36     9    10    1
