@<TRIPOS>MOLECULE
72414_out_ligand_01.pdbqt
 26 28 0 0 0
SMALL
GASTEIGER

@<TRIPOS>ATOM
      1  C         17.5680  -22.1500   -5.3620 C.2     1  UNL1        0.0720
      2  C         17.5020  -22.2410   -3.9650 C.2     1  UNL1        0.0220
      3  C         16.2760  -22.4710   -3.3580 C.2     1  UNL1        0.0200
      4  C         15.1660  -22.5960   -4.1730 C.2     1  UNL1        0.1180
      5  N         15.2040  -22.5030   -5.5210 N.2     1  UNL1       -0.2480
      6  C         16.3940  -22.2610   -6.1230 C.2     1  UNL1        0.1180
      7  C         18.8670  -21.8680   -6.0200 C.2     1  UNL1        0.2590
      8  O         19.4500  -20.8300   -5.7270 O.2     1  UNL1       -0.2670
      9  N         19.2740  -22.8360   -6.9200 N.am    1  UNL1       -0.3230
     10  H         18.6110  -23.5700   -7.1320 H       1  UNL1        0.1690
     11  C         20.4780  -22.8700   -7.6540 C.2     1  UNL1        0.0350
     12  C         21.4180  -21.8390   -7.6600 C.2     1  UNL1        0.0290
     13  C         22.5930  -21.9540   -8.4110 C.2     1  UNL1        0.0020
     14  C         22.8370  -23.1020   -9.1610 C.2     1  UNL1        0.0000
     15  C         21.9070  -24.1370   -9.1600 C.2     1  UNL1        0.0020
     16  C         20.7340  -24.0230   -8.4100 C.2     1  UNL1        0.0290
     17  N         16.4510  -22.2370   -7.5250 N.pl3   1  UNL1       -0.2760
     18  H         15.9100  -21.4380   -7.8720 H       1  UNL1        0.1290
     19  C         16.1350  -23.4800   -8.2270 C.3     1  UNL1        0.0980
     20  C         15.8880  -23.2520   -9.7230 C.3     1  UNL1        0.0530
     21  C         16.9870  -22.4320  -10.3550 C.2     1  UNL1       -0.0570
     22  C         16.7100  -21.1560  -10.8640 C.2     1  UNL1        0.0070
     23  C         17.7180  -20.4010  -11.4660 C.2     1  UNL1        0.0010
     24  C         19.0100  -20.9150  -11.5660 C.2     1  UNL1        0.0000
     25  C         19.2930  -22.1850  -11.0660 C.2     1  UNL1        0.0010
     26  C         18.2870  -22.9430  -10.4650 C.2     1  UNL1        0.0070
@<TRIPOS>BOND
     1    24    23    2
     2    24    25    1
     3    23    22    1
     4    25    26    2
     5    22    21    2
     6    26    21    1
     7    21    20    1
     8    20    19    1
     9    14    15    2
    10    14    13    1
    11    15    16    1
    12    13    12    2
    13    16    11    2
    14    19    17    1
    15    18    17    1
    16    12    11    1
    17    11     9    1
    18    17     6    1
    19    10     9    1
    20     9     7   am
    21     6     5    1
    22     6     1    2
    23     7     8    2
    24     7     1    1
    25     5     4    2
    26     1     2    1
    27     4     3    1
    28     2     3    2
