@<TRIPOS>MOLECULE
72411_out_ligand_01.pdbqt
 32 35 0 0 0
SMALL
GASTEIGER

@<TRIPOS>ATOM
      1  N         15.7270  -22.1720   -9.9770 N.1     1  UNL1       -0.1910
      2  C         15.9670  -22.5570   -8.9090 C.1     1  UNL1        0.1020
      3  C         16.3300  -23.0260   -7.6050 C.2     1  UNL1        0.0740
      4  C         15.4610  -22.7560   -6.5360 C.2     1  UNL1        0.0640
      5  C         15.8350  -23.1820   -5.2820 C.2     1  UNL1        0.1060
      6  C         17.0200  -23.8400   -5.0680 C.2     1  UNL1        0.1070
      7  C         17.8980  -24.1200   -6.0950 C.2     1  UNL1        0.0710
      8  C         17.5440  -23.7340   -7.3950 C.2     1  UNL1        0.0660
      9  O         17.2060  -24.1560   -3.7590 O.2     1  UNL1       -0.3230
     10  C         16.0020  -23.6190   -3.1710 C.3     1  UNL1        0.3520
     11  O         15.1250  -23.0040   -4.1370 O.2     1  UNL1       -0.3230
     12  N         18.4210  -24.0030   -8.4990 N.pl3   1  UNL1       -0.2790
     13  H         18.2690  -24.8360   -9.0730 H       1  UNL1        0.1790
     14  S         20.0530  -23.5760   -8.4600 S.O2    1  UNL1        0.2630
     15  O         20.8560  -24.7750   -8.5590 O.2     1  UNL1       -0.2000
     16  O         20.2110  -22.6550   -7.3570 O.2     1  UNL1       -0.2000
     17  C         20.2700  -22.6410   -9.9560 C.2     1  UNL1        0.0800
     18  C         19.2160  -21.8690  -10.4550 C.2     1  UNL1        0.0250
     19  C         19.3980  -21.1230  -11.6210 C.2     1  UNL1        0.0030
     20  C         20.6240  -21.1580  -12.2880 C.2     1  UNL1        0.0170
     21  C         21.6710  -21.9510  -11.7940 C.2     1  UNL1        0.0330
     22  C         21.4980  -22.6920  -10.6200 C.2     1  UNL1        0.0420
     23  C         22.9970  -21.9840  -12.4640 C.2     1  UNL1        0.2560
     24  O         23.8960  -22.6000  -11.9070 O.2     1  UNL1       -0.2670
     25  N         23.0510  -21.3190  -13.6740 N.am    1  UNL1       -0.3230
     26  H         22.1790  -20.9590  -14.0410 H       1  UNL1        0.1690
     27  C         24.1750  -21.1570  -14.5100 C.2     1  UNL1        0.0350
     28  C         24.4160  -22.1580  -15.4600 C.2     1  UNL1        0.0290
     29  C         25.5070  -22.0700  -16.3290 C.2     1  UNL1        0.0020
     30  C         26.3670  -20.9770  -16.2570 C.2     1  UNL1        0.0000
     31  C         26.1350  -19.9770  -15.3170 C.2     1  UNL1        0.0020
     32  C         25.0420  -20.0640  -14.4470 C.2     1  UNL1        0.0290
@<TRIPOS>BOND
     1    29    30    2
     2    29    28    1
     3    30    31    1
     4    28    27    2
     5    31    32    2
     6    27    32    1
     7    27    25    1
     8    26    25    1
     9    25    23   am
    10    23    24    2
    11    23    21    1
    12    20    21    2
    13    20    19    1
    14    21    22    1
    15    19    18    2
    16    22    17    2
    17    18    17    1
    18     1     2    3
    19    17    14    1
    20    13    12    1
    21     2     3    1
    22    15    14    2
    23    12    14    1
    24    12     8    1
    25    14    16    2
    26     3     8    2
    27     3     4    1
    28     8     7    1
    29     4     5    2
    30     7     6    2
    31     5     6    1
    32     5    11    1
    33     6     9    1
    34    11    10    1
    35     9    10    1
