@<TRIPOS>MOLECULE
72425_out_ligand_01.pdbqt
 27 29 0 0 0
SMALL
GASTEIGER

@<TRIPOS>ATOM
      1  C         17.5720  -22.1500   -5.3490 C.2     1  UNL1        0.0720
      2  C         17.5160  -22.2480   -3.9510 C.2     1  UNL1        0.0220
      3  C         16.2930  -22.4800   -3.3380 C.2     1  UNL1        0.0200
      4  C         15.1770  -22.5990   -4.1450 C.2     1  UNL1        0.1180
      5  N         15.2070  -22.5010   -5.4930 N.2     1  UNL1       -0.2480
      6  C         16.3940  -22.2570   -6.1020 C.2     1  UNL1        0.1180
      7  C         18.8670  -21.8700   -6.0140 C.2     1  UNL1        0.2590
      8  O         19.4500  -20.8300   -5.7320 O.2     1  UNL1       -0.2670
      9  N         19.2750  -22.8450   -6.9090 N.am    1  UNL1       -0.3230
     10  H         18.6110  -23.5820   -7.1110 H       1  UNL1        0.1690
     11  C         20.4730  -22.8770   -7.6500 C.2     1  UNL1        0.0350
     12  C         21.4120  -21.8410   -7.6620 C.2     1  UNL1        0.0320
     13  C         22.5820  -21.9540   -8.4200 C.2     1  UNL1        0.0440
     14  C         22.8120  -23.1030   -9.1640 C.2     1  UNL1        0.1160
     15  F         23.9330  -23.2100   -9.8880 F       1  UNL1       -0.2060
     16  C         21.8950  -24.1450   -9.1640 C.2     1  UNL1        0.0440
     17  C         20.7260  -24.0320   -8.4070 C.2     1  UNL1        0.0320
     18  N         16.4420  -22.2270   -7.5050 N.pl3   1  UNL1       -0.2760
     19  H         15.8850  -21.4370   -7.8460 H       1  UNL1        0.1290
     20  C         16.1450  -23.4740   -8.2090 C.3     1  UNL1        0.0980
     21  C         15.8860  -23.2460   -9.7030 C.3     1  UNL1        0.0530
     22  C         16.9830  -22.4340  -10.3460 C.2     1  UNL1       -0.0570
     23  C         18.2790  -22.9520  -10.4670 C.2     1  UNL1        0.0070
     24  C         19.2850  -22.2010  -11.0790 C.2     1  UNL1        0.0010
     25  C         19.0030  -20.9310  -11.5780 C.2     1  UNL1        0.0000
     26  C         17.7160  -20.4090  -11.4670 C.2     1  UNL1        0.0010
     27  C         16.7090  -21.1570  -10.8550 C.2     1  UNL1        0.0070
@<TRIPOS>BOND
     1    25    26    2
     2    25    24    1
     3    26    27    1
     4    24    23    2
     5    27    22    2
     6    23    22    1
     7    22    21    1
     8    15    14    1
     9    21    20    1
    10    16    14    2
    11    16    17    1
    12    14    13    1
    13    13    12    2
    14    17    11    2
    15    20    18    1
    16    19    18    1
    17    12    11    1
    18    11     9    1
    19    18     6    1
    20    10     9    1
    21     9     7   am
    22     6     5    1
    23     6     1    2
    24     7     8    2
    25     7     1    1
    26     5     4    2
    27     1     2    1
    28     4     3    1
    29     2     3    2
