@<TRIPOS>MOLECULE
72431_out_ligand_01.pdbqt
 36 38 0 0 0
SMALL
GASTEIGER

@<TRIPOS>ATOM
      1  C         23.7910  -21.5620  -13.1330 C.2     1  UNL1        0.0870
      2  C         25.0530  -21.1310  -12.9760 C.2     1  UNL1        0.1180
      3  C         25.6120  -20.9310  -11.6280 C.2     1  UNL1        0.2720
      4  O         26.7690  -20.5500  -11.5100 O.2     1  UNL1       -0.2660
      5  N         24.8200  -21.1990  -10.5470 N.am    1  UNL1       -0.1850
      6  C         23.6060  -21.5970  -10.7430 C.2     1  UNL1        0.1730
      7  N         23.0140  -21.7930  -11.9920 N.pl3   1  UNL1       -0.3160
      8  S         22.6820  -21.9320   -9.2690 S.3     1  UNL1       -0.0820
      9  C         22.4480  -23.7280   -9.3810 C.3     1  UNL1        0.1850
     10  C         21.1650  -24.1540   -8.6800 C.2     1  UNL1        0.2310
     11  O         20.7320  -25.2960   -8.8080 O.2     1  UNL1       -0.2720
     12  N         20.5860  -23.1430   -7.9350 N.am    1  UNL1       -0.3270
     13  H         21.1590  -22.3080   -7.8020 H       1  UNL1        0.1690
     14  C         19.3660  -23.1750   -7.2320 C.2     1  UNL1        0.0340
     15  C         18.4810  -24.2570   -7.2560 C.2     1  UNL1        0.0310
     16  C         17.2820  -24.2110   -6.5350 C.2     1  UNL1        0.0270
     17  C         16.9750  -23.0790   -5.7800 C.2     1  UNL1        0.0740
     18  C         17.8380  -21.9830   -5.7590 C.2     1  UNL1        0.0270
     19  C         19.0300  -22.0360   -6.4870 C.2     1  UNL1        0.0310
     20  S         15.4600  -23.0190   -4.8600 S.O2    1  UNL1        0.2390
     21  O         15.1680  -24.3460   -4.3680 O.2     1  UNL1       -0.2060
     22  O         14.5000  -22.2340   -5.6000 O.2     1  UNL1       -0.2060
     23  N         15.9270  -22.1220   -3.5100 N.3     1  UNL1       -0.2250
     24  H         15.0910  -21.7240   -3.0780 H       1  UNL1        0.1360
     25  H         16.4780  -22.6640   -2.8460 H       1  UNL1        0.1360
     26  C         21.5920  -22.1750  -12.1270 C.3     1  UNL1        0.1370
     27  C         20.6840  -20.9430  -12.0120 C.3     1  UNL1        0.0590
     28  C         19.3260  -21.3010  -11.4660 C.2     1  UNL1       -0.0570
     29  C         19.0800  -22.5790  -10.9420 C.2     1  UNL1        0.0070
     30  C         17.8140  -22.9120  -10.4560 C.2     1  UNL1        0.0010
     31  C         16.7840  -21.9750  -10.4930 C.2     1  UNL1        0.0000
     32  C         17.0160  -20.7030  -11.0160 C.2     1  UNL1        0.0010
     33  C         18.2800  -20.3680  -11.5030 C.2     1  UNL1        0.0070
     34  N         23.3110  -21.7540  -14.4160 N.pl3   1  UNL1       -0.2880
     35  H         22.3170  -21.9680  -14.4610 H       1  UNL1        0.1250
     36  H         23.5450  -20.9980  -15.0500 H       1  UNL1        0.1250
@<TRIPOS>BOND
     1    36    34    1
     2    35    34    1
     3    34     1    1
     4     1     2    2
     5     1     7    1
     6     2     3    1
     7    26    27    1
     8    26     7    1
     9    27    28    1
    10     7     6    1
    11     3     4    2
    12     3     5    1
    13    33    28    2
    14    33    32    1
    15    28    29    1
    16    32    31    2
    17    29    30    2
    18     6     5    2
    19     6     8    1
    20    31    30    1
    21     9     8    1
    22     9    10    1
    23    11    10    2
    24    10    12   am
    25    12    13    1
    26    12    14    1
    27    15    14    2
    28    15    16    1
    29    14    19    1
    30    16    17    2
    31    19    18    2
    32    17    18    1
    33    17    20    1
    34    22    20    2
    35    20    21    2
    36    20    23    1
    37    23    24    1
    38    23    25    1
