@<TRIPOS>MOLECULE
72478_out_ligand_01.pdbqt
 26 29 0 0 0
SMALL
GASTEIGER

@<TRIPOS>ATOM
      1  C         19.8990  -22.3820   -9.7880 C.2     1  UNL1        0.1600
      2  N         19.0590  -22.6730  -10.8010 N.2     1  UNL1       -0.2400
      3  C         17.7600  -22.8590  -10.4830 C.2     1  UNL1        0.1390
      4  C         17.2800  -22.7660   -9.1990 C.ar    1  UNL1        0.0870
      5  C         15.8640  -22.9750   -8.8920 C.ar    1  UNL1        0.3020
      6  O         15.0560  -23.2400   -9.7730 O.2     1  UNL1       -0.2590
      7  O         15.4970  -22.8540   -7.5570 O.2     1  UNL1       -0.2740
      8  C         16.4250  -22.5470   -6.5370 C.ar    1  UNL1        0.0920
      9  C         15.9250  -22.4560   -5.2390 C.2     1  UNL1        0.0380
     10  C         16.8000  -22.1570   -4.1970 C.2     1  UNL1        0.0030
     11  C         18.1540  -21.9540   -4.4630 C.2     1  UNL1        0.0010
     12  C         18.6380  -22.0500   -5.7730 C.2     1  UNL1        0.0170
     13  C         17.7750  -22.3490   -6.8360 C.ar    1  UNL1        0.0280
     14  C         18.2010  -22.4660   -8.2240 C.ar    1  UNL1        0.0900
     15  N         19.5140  -22.2700   -8.5000 N.2     1  UNL1       -0.2270
     16  C         21.3260  -22.1720  -10.1060 C.2     1  UNL1        0.0120
     17  C         22.2740  -21.9190   -9.0960 C.2     1  UNL1        0.0160
     18  C         23.6290  -21.7200   -9.3930 C.2     1  UNL1        0.0180
     19  C         24.0750  -21.7760  -10.7160 C.2     1  UNL1        0.0310
     20  C         23.1530  -22.0100  -11.7400 C.2     1  UNL1        0.0180
     21  C         21.7990  -22.2090  -11.4330 C.2     1  UNL1        0.0160
     22  C         25.5210  -21.5570  -10.9850 C.2     1  UNL1        0.2490
     23  N         26.3980  -22.5040  -10.5320 N.am    1  UNL1       -0.3660
     24  H         26.1440  -23.1700   -9.8170 H       1  UNL1        0.1590
     25  H         27.3790  -22.2630  -10.6110 H       1  UNL1        0.1590
     26  O         25.9260  -20.5540  -11.5560 O.2     1  UNL1       -0.2680
@<TRIPOS>BOND
     1    20    21    1
     2    20    19    2
     3    26    22    2
     4    21    16    2
     5    22    19    1
     6    22    23   am
     7     2     3    1
     8     2     1    2
     9    19    18    1
    10    25    23    1
    11    23    24    1
    12     3     4    2
    13    16     1    1
    14    16    17    1
    15     1    15    1
    16     6     5    2
    17    18    17    2
    18     4     5   ar
    19     4    14   ar
    20     5     7   ar
    21    15    14    2
    22    14    13   ar
    23     7     8   ar
    24    13     8   ar
    25    13    12    1
    26     8     9    1
    27    12    11    2
    28     9    10    2
    29    11    10    1
