@<TRIPOS>MOLECULE
72473_out_ligand_01.pdbqt
 31 34 0 0 0
SMALL
GASTEIGER

@<TRIPOS>ATOM
      1  C         20.7350  -22.3820   -7.4960 C.2     1  UNL1        0.0320
      2  C         21.7750  -21.4690   -7.6790 C.2     1  UNL1        0.0190
      3  C         22.8930  -21.8200   -8.4430 C.2     1  UNL1        0.0300
      4  C         22.9970  -23.0760   -9.0560 C.2     1  UNL1        0.0280
      5  C         21.9720  -23.9990   -8.8170 C.2     1  UNL1        0.0300
      6  C         20.8460  -23.6590   -8.0530 C.2     1  UNL1        0.0190
      7  N         24.1590  -23.3830   -9.7560 N.pl3   1  UNL1       -0.3900
      8  H         24.9820  -23.4690   -9.1540 H       1  UNL1        0.1590
      9  C         24.4960  -22.7600  -11.0330 C.3     1  UNL1        0.1270
     10  C         23.4620  -23.0520  -12.1160 C.3     1  UNL1        0.1050
     11  C         22.7450  -21.7990  -12.5930 C.2     1  UNL1        0.1840
     12  O         23.3130  -20.9750  -13.3110 O.2     1  UNL1       -0.2900
     13  C         21.3660  -21.6560  -12.1600 C.2     1  UNL1        0.1220
     14  C         20.4290  -20.6490  -12.3210 C.2     1  UNL1        0.0550
     15  C         19.2410  -21.0780  -11.6700 C.2     1  UNL1        0.0010
     16  C         17.9560  -20.5440  -11.4670 C.2     1  UNL1        0.0140
     17  C         19.5300  -22.3310  -11.1480 C.2     1  UNL1        0.0860
     18  C         17.0210  -21.3010  -10.7450 C.2     1  UNL1        0.0010
     19  C         17.3520  -22.5600  -10.2350 C.2     1  UNL1        0.0030
     20  C         18.6250  -23.1060  -10.4280 C.2     1  UNL1        0.0380
     21  O         20.8100  -22.6810  -11.4420 O.2     1  UNL1       -0.3060
     22  C         19.5660  -21.9690   -6.6720 C.2     1  UNL1        0.2520
     23  O         19.6350  -20.9710   -5.9640 O.2     1  UNL1       -0.2680
     24  N         18.4290  -22.7460   -6.7820 N.am    1  UNL1       -0.3520
     25  H         18.4210  -23.5410   -7.4030 H       1  UNL1        0.1630
     26  C         17.2480  -22.4920   -5.9690 C.3     1  UNL1        0.0840
     27  C         17.2050  -23.4440   -4.7660 C.3     1  UNL1        0.0250
     28  C         15.9400  -23.2470   -3.9350 C.3     1  UNL1        0.0020
     29  C         14.6810  -23.3720   -4.7870 C.3     1  UNL1        0.0000
     30  C         14.7160  -22.4280   -5.9850 C.3     1  UNL1        0.0020
     31  C         15.9790  -22.6270   -6.8190 C.3     1  UNL1        0.0250
@<TRIPOS>BOND
     1    12    11    2
     2    11    13    1
     3    11    10    1
     4    14    13    2
     5    14    15    1
     6    13    21    1
     7    10     9    1
     8    15    16    2
     9    15    17    1
    10    16    18    1
    11    21    17    1
    12    17    20    2
    13     9     7    1
    14    18    19    2
    15    20    19    1
    16     7     8    1
    17     7     4    1
    18     4     5    2
    19     4     3    1
    20     5     6    1
    21     3     2    2
    22     6     1    2
    23     2     1    1
    24     1    22    1
    25    25    24    1
    26    31    30    1
    27    31    26    1
    28    24    22   am
    29    24    26    1
    30    22    23    2
    31    30    29    1
    32    26    27    1
    33    29    28    1
    34    27    28    1
