@<TRIPOS>MOLECULE
72475_out_ligand_01.pdbqt
 36 40 0 0 0
SMALL
GASTEIGER

@<TRIPOS>ATOM
      1  N         15.0640  -22.6940   -7.5060 N.1     1  UNL1       -0.1910
      2  C         16.1420  -22.6450   -7.9340 C.1     1  UNL1        0.1060
      3  C         17.4810  -22.5730   -8.4090 C.2     1  UNL1        0.1230
      4  C         18.5510  -22.3580   -7.6070 C.2     1  UNL1        0.0030
      5  C         19.8910  -22.3000   -8.1820 C.2     1  UNL1        0.0440
      6  C         20.0840  -22.4610   -9.5010 C.2     1  UNL1        0.0460
      7  N         19.0030  -22.6760  -10.3150 N.am    1  UNL1       -0.3220
      8  C         17.7040  -22.7490   -9.8760 C.2     1  UNL1        0.2670
      9  O         16.7870  -22.9490  -10.6660 O.2     1  UNL1       -0.2660
     10  H         19.1410  -22.8120  -11.3090 H       1  UNL1        0.1690
     11  C         18.3700  -22.1790   -6.1500 C.2     1  UNL1       -0.0230
     12  C         18.9880  -21.1110   -5.4860 C.2     1  UNL1        0.0120
     13  C         18.8270  -20.9530   -4.1080 C.2     1  UNL1        0.0030
     14  C         18.0550  -21.8630   -3.3880 C.2     1  UNL1        0.0240
     15  C         17.4470  -22.9300   -4.0450 C.2     1  UNL1        0.0340
     16 CL         16.5030  -24.0580   -3.1530 Cl      1  UNL1       -0.0840
     17  C         17.6000  -23.0950   -5.4220 C.2     1  UNL1        0.0360
     18  C         21.4200  -22.3980  -10.1110 C.2     1  UNL1       -0.0090
     19  C         21.5610  -22.1010  -11.4710 C.2     1  UNL1        0.0160
     20  C         22.8300  -22.0440  -12.0580 C.2     1  UNL1        0.0300
     21  C         23.9830  -22.3080  -11.3100 C.2     1  UNL1        0.0320
     22  C         23.8390  -22.5740   -9.9430 C.2     1  UNL1        0.0300
     23  C         22.5710  -22.6310   -9.3500 C.2     1  UNL1        0.0160
     24  N         25.2760  -22.2050  -11.8690 N.pl3   1  UNL1       -0.3550
     25  H         25.4770  -22.9750  -12.5040 H       1  UNL1        0.1660
     26  C         25.9290  -21.0330  -12.3470 C.2     1  UNL1        0.0460
     27  C         26.5370  -20.1410  -11.4620 C.2     1  UNL1        0.0490
     28  C         27.0870  -18.9800  -11.9690 C.2     1  UNL1        0.1190
     29  N         27.0600  -18.6440  -13.2730 N.2     1  UNL1       -0.2600
     30  C         26.4610  -19.4830  -14.1320 C.2     1  UNL1        0.0700
     31  C         26.4220  -19.1310  -15.4730 C.2     1  UNL1        0.0560
     32  C         25.8670  -20.7000  -13.7230 C.2     1  UNL1        0.0190
     33  C         25.8150  -19.9530  -16.4190 C.2     1  UNL1        0.0360
     34 CL         25.7890  -19.4800  -18.0730 Cl      1  UNL1       -0.0840
     35  C         25.2320  -21.1530  -16.0380 C.2     1  UNL1        0.0250
     36  C         25.2590  -21.5270  -14.6960 C.2     1  UNL1        0.0180
@<TRIPOS>BOND
     1    34    33    1
     2    33    35    1
     3    33    31    2
     4    35    36    2
     5    31    30    1
     6    36    32    1
     7    30    32    1
     8    30    29    2
     9    32    26    2
    10    29    28    1
    11    25    24    1
    12    26    24    1
    13    26    27    1
    14    20    19    1
    15    20    21    2
    16    28    27    2
    17    24    21    1
    18    19    18    2
    19    21    22    1
    20    10     7    1
    21     9     8    2
    22     7     8   am
    23     7     6    1
    24    18     6    1
    25    18    23    1
    26    22    23    2
    27     8     3    1
    28     6     5    2
    29     3     2    1
    30     3     4    2
    31     5     4    1
    32     2     1    3
    33     4    11    1
    34    11    12    2
    35    11    17    1
    36    12    13    1
    37    17    15    2
    38    13    14    2
    39    15    14    1
    40    15    16    1
