@<TRIPOS>MOLECULE
72480_out_ligand_01.pdbqt
 44 48 0 0 0
SMALL
GASTEIGER

@<TRIPOS>ATOM
      1  C         20.2510  -23.7960   -9.0640 C.ar    1  UNL1        0.1610
      2  N         21.5370  -24.1440   -8.8460 N.ar    1  UNL1       -0.1310
      3  N         22.5540  -23.5590   -9.5440 N.ar    1  UNL1       -0.1470
      4  C         22.2860  -22.6160  -10.4710 C.ar    1  UNL1        0.1000
      5  C         20.9740  -22.1810  -10.7310 C.ar    1  UNL1        0.0090
      6  C         20.6560  -21.1660  -11.6690 C.2     1  UNL1        0.0150
      7  C         19.3380  -20.7810  -11.9110 C.2     1  UNL1        0.0010
      8  C         18.3030  -21.4020  -11.2270 C.2     1  UNL1        0.0010
      9  C         18.5920  -22.3980  -10.2930 C.2     1  UNL1        0.0160
     10  C         19.9240  -22.7990  -10.0130 C.ar    1  UNL1        0.0240
     11  C         23.4790  -22.1460  -11.1860 C.2     1  UNL1       -0.0030
     12  C         24.5090  -21.4790  -10.5090 C.2     1  UNL1        0.0140
     13  C         25.6680  -21.0770  -11.1820 C.2     1  UNL1        0.0090
     14  C         25.8470  -21.3500  -12.5480 C.2     1  UNL1       -0.0390
     15  C         27.1210  -20.9000  -13.2060 C.3     1  UNL1        0.0500
     16  C         24.8140  -22.0200  -13.2300 C.2     1  UNL1        0.0860
     17  C         23.6440  -22.4050  -12.5540 C.2     1  UNL1        0.0390
     18  S         24.9350  -22.4460  -14.9610 S.O2    1  UNL1        0.2590
     19  O         23.6480  -22.2150  -15.5750 O.2     1  UNL1       -0.2010
     20  O         25.5960  -23.7290  -15.0710 O.2     1  UNL1       -0.2010
     21  N         25.9810  -21.2850  -15.5190 N.3     1  UNL1       -0.3100
     22  H         26.4870  -20.7360  -14.8230 H       1  UNL1        0.1720
     23  C         25.6880  -20.6080  -16.7840 C.3     1  UNL1        0.1910
     24  C         26.0840  -19.1460  -16.7280 C.2     1  UNL1        0.0520
     25  C         26.3570  -18.5340  -15.5060 C.2     1  UNL1        0.0290
     26  C         26.7340  -17.1940  -15.4960 C.2     1  UNL1        0.0030
     27  C         26.8370  -16.5060  -16.7000 C.2     1  UNL1        0.0190
     28  C         26.5570  -17.1880  -17.8710 C.2     1  UNL1        0.1170
     29  N         26.1880  -18.4870  -17.9160 N.2     1  UNL1       -0.2640
     30  N         19.2150  -24.4200   -8.3160 N.pl3   1  UNL1       -0.3390
     31  H         18.6620  -24.9880   -8.9490 H       1  UNL1        0.1670
     32  C         18.4310  -23.8410   -7.2950 C.2     1  UNL1        0.0340
     33  C         17.2190  -24.4400   -6.9390 C.2     1  UNL1        0.0320
     34  C         16.4370  -23.9300   -5.8950 C.2     1  UNL1        0.0400
     35  C         16.8580  -22.8160   -5.1580 C.2     1  UNL1        0.0840
     36  C         18.0990  -22.2270   -5.4720 C.2     1  UNL1        0.0670
     37  C         18.8710  -22.7560   -6.5280 C.2     1  UNL1        0.0490
     38  O         16.1350  -22.2860   -4.1190 O.2     1  UNL1       -0.3550
     39  C         14.7200  -22.2160   -4.2590 C.3     1  UNL1        0.2100
     40  C         18.6930  -21.0550   -4.7510 C.2     1  UNL1        0.2520
     41  N         18.5060  -20.9580   -3.4030 N.am    1  UNL1       -0.3660
     42  H         18.9870  -20.2180   -2.9140 H       1  UNL1        0.1590
     43  H         18.1000  -21.7240   -2.8790 H       1  UNL1        0.1590
     44  O         19.3380  -20.1900   -5.3350 O.2     1  UNL1       -0.2680
@<TRIPOS>BOND
     1    29    28    1
     2    29    24    2
     3    28    27    2
     4    23    24    1
     5    23    21    1
     6    24    25    1
     7    27    26    1
     8    19    18    2
     9    21    18    1
    10    21    22    1
    11    25    26    2
    12    20    18    2
    13    18    16    1
    14    16    17    1
    15    16    14    2
    16    15    14    1
    17    17    11    2
    18    14    13    1
    19     7     6    2
    20     7     8    1
    21     6     5    1
    22     8     9    2
    23    11    12    1
    24    11     4    1
    25    13    12    2
    26     5     4   ar
    27     5    10   ar
    28     4     3   ar
    29     9    10    1
    30    10     1   ar
    31     3     2   ar
    32     1     2   ar
    33     1    30    1
    34    31    30    1
    35    30    32    1
    36    32    33    2
    37    32    37    1
    38    33    34    1
    39    37    36    2
    40    34    35    2
    41    36    35    1
    42    36    40    1
    43    44    40    2
    44    35    38    1
    45    40    41   am
    46    39    38    1
    47    41    42    1
    48    41    43    1
