@<TRIPOS>MOLECULE
72485_out_ligand_01.pdbqt
 39 43 0 0 0
SMALL
GASTEIGER

@<TRIPOS>ATOM
      1  N         14.7290  -22.7830   -7.4960 N.1     1  UNL1       -0.1910
      2  C         15.8320  -22.7270   -7.8520 C.1     1  UNL1        0.1060
      3  C         17.2000  -22.6450   -8.2350 C.2     1  UNL1        0.1230
      4  C         18.2170  -22.4830   -7.3570 C.2     1  UNL1        0.0030
      5  C         19.5930  -22.4100   -7.8400 C.2     1  UNL1        0.0440
      6  C         19.8690  -22.5040   -9.1490 C.2     1  UNL1        0.0460
      7  N         18.8430  -22.6660  -10.0410 N.am    1  UNL1       -0.3220
      8  C         17.5170  -22.7480   -9.6930 C.2     1  UNL1        0.2670
      9  O         16.6510  -22.8990  -10.5470 O.2     1  UNL1       -0.2660
     10  H         19.0450  -22.7540  -11.0310 H       1  UNL1        0.1690
     11  C         17.9430  -22.3800   -5.9060 C.2     1  UNL1       -0.0230
     12  C         18.5520  -21.3760   -5.1420 C.2     1  UNL1        0.0120
     13  C         18.3010  -21.2860   -3.7710 C.2     1  UNL1        0.0030
     14  C         17.4480  -22.2020   -3.1570 C.2     1  UNL1        0.0240
     15  C         16.8480  -23.2060   -3.9160 C.2     1  UNL1        0.0340
     16 CL         15.8000  -24.3400   -3.1560 Cl      1  UNL1       -0.0840
     17  C         17.0910  -23.3020   -5.2860 C.2     1  UNL1        0.0360
     18  C         21.2440  -22.4220   -9.6660 C.2     1  UNL1       -0.0090
     19  C         22.3330  -22.6370   -8.8130 C.2     1  UNL1        0.0160
     20  C         23.6410  -22.5520   -9.2980 C.2     1  UNL1        0.0300
     21  C         23.8950  -22.2670  -10.6460 C.2     1  UNL1        0.0320
     22  C         22.8030  -22.0170  -11.4860 C.2     1  UNL1        0.0300
     23  C         21.4910  -22.1040  -11.0060 C.2     1  UNL1        0.0160
     24  N         25.2080  -22.1290  -11.1450 N.pl3   1  UNL1       -0.3550
     25  H         25.9010  -22.5330  -10.5170 H       1  UNL1        0.1660
     26  C         25.7800  -21.0050  -11.8040 C.2     1  UNL1        0.0460
     27  C         26.4840  -20.0350  -11.0870 C.2     1  UNL1        0.0490
     28  C         27.0820  -19.0050  -11.7840 C.2     1  UNL1        0.1190
     29  N         27.0440  -18.8830  -13.1250 N.2     1  UNL1       -0.2600
     30  C         26.3860  -19.8190  -13.8260 C.2     1  UNL1        0.0690
     31  C         26.3550  -19.7010  -15.2080 C.2     1  UNL1        0.0480
     32  C         25.7350  -20.9130  -13.2190 C.2     1  UNL1        0.0190
     33  C         25.6900  -20.6280  -16.0280 C.2     1  UNL1        0.0500
     34  C         25.0450  -21.7110  -15.4260 C.2     1  UNL1        0.0170
     35  C         25.0630  -21.8490  -14.0380 C.2     1  UNL1        0.0170
     36  C         25.7070  -20.4580  -17.5260 C.3     1  UNL1        0.4170
     37  F         26.8290  -20.9620  -18.1120 F       1  UNL1       -0.1660
     38  F         24.6600  -21.0720  -18.1400 F       1  UNL1       -0.1660
     39  F         25.6490  -19.1500  -17.8970 F       1  UNL1       -0.1660
@<TRIPOS>BOND
     1    38    36    1
     2    37    36    1
     3    39    36    1
     4    36    33    1
     5    33    34    1
     6    33    31    2
     7    34    35    2
     8    31    30    1
     9    35    32    1
    10    30    32    1
    11    30    29    2
    12    32    26    2
    13    29    28    1
    14    26    24    1
    15    26    27    1
    16    28    27    2
    17    22    23    1
    18    22    21    2
    19    24    21    1
    20    24    25    1
    21    10     7    1
    22    23    18    2
    23    21    20    1
    24     9     8    2
    25     7     8   am
    26     7     6    1
    27     8     3    1
    28    18     6    1
    29    18    19    1
    30    20    19    2
    31     6     5    2
    32     3     2    1
    33     3     4    2
    34     2     1    3
    35     5     4    1
    36     4    11    1
    37    11    17    2
    38    11    12    1
    39    17    15    1
    40    12    13    2
    41    15    14    2
    42    15    16    1
    43    13    14    1
