@<TRIPOS>MOLECULE
72490_out_ligand_01.pdbqt
 32 35 0 0 0
SMALL
GASTEIGER

@<TRIPOS>ATOM
      1  N         17.8140  -22.7640   -8.2280 N.am    1  UNL1       -0.2440
      2  C         17.3340  -22.1580   -9.3730 C.2     1  UNL1        0.2660
      3  O         16.2260  -21.7720   -9.7010 O.2     1  UNL1       -0.2670
      4  C         18.4620  -22.0000  -10.2870 C.2     1  UNL1        0.0480
      5  C         18.5100  -21.4620  -11.5600 C.2     1  UNL1        0.0190
      6  C         19.7530  -21.4470  -12.2080 C.2     1  UNL1        0.0180
      7  C         20.9050  -21.9580  -11.5660 C.2     1  UNL1        0.0330
      8  C         20.8190  -22.5120  -10.2780 C.2     1  UNL1        0.0350
      9  C         19.5780  -22.5100   -9.6670 C.2     1  UNL1        0.0490
     10  C         19.1720  -22.9950   -8.3520 C.2     1  UNL1        0.2660
     11  O         19.9950  -23.4810   -7.5980 O.2     1  UNL1       -0.2670
     12  C         22.2320  -21.9650  -12.2450 C.2     1  UNL1        0.2560
     13  O         22.3710  -21.2570  -13.2330 O.2     1  UNL1       -0.2670
     14  N         23.1680  -22.8160  -11.6870 N.am    1  UNL1       -0.3230
     15  H         22.8530  -23.4300  -10.9480 H       1  UNL1        0.1690
     16  C         24.5080  -22.9950  -12.0950 C.2     1  UNL1        0.0360
     17  C         25.6050  -22.4290  -11.4420 C.2     1  UNL1        0.0290
     18  C         26.9050  -22.6570  -11.9030 C.2     1  UNL1        0.0030
     19  C         27.1200  -23.4570  -13.0240 C.2     1  UNL1        0.0180
     20  C         26.0330  -24.0330  -13.6850 C.2     1  UNL1        0.0390
     21  C         24.7300  -23.8010  -13.2190 C.2     1  UNL1        0.0480
     22  C         26.3020  -24.8790  -14.8730 C.2     1  UNL1        0.1760
     23  O         25.8910  -26.0090  -15.0530 O.2     1  UNL1       -0.6460
     24  O         27.0770  -24.2650  -15.7860 O.3     1  UNL1       -0.7730
     25  H         27.5770  -25.0030  -16.1940 H       1  UNL1        0.1670
     26  C         17.0230  -23.0970   -7.0810 C.2     1  UNL1        0.0460
     27  C         15.8900  -23.9200   -7.1830 C.2     1  UNL1        0.0300
     28  C         15.1200  -24.2530   -6.0620 C.2     1  UNL1        0.0030
     29  C         15.4610  -23.7670   -4.8060 C.2     1  UNL1        0.0070
     30  C         16.5700  -22.9340   -4.6650 C.2     1  UNL1       -0.0600
     31  C         16.9740  -22.4250   -3.3120 C.3     1  UNL1        0.0480
     32  C         17.3440  -22.6190   -5.7980 C.2     1  UNL1        0.0370
@<TRIPOS>BOND
     1    25    24    1
     2    24    22    1
     3    23    22    2
     4    22    20    1
     5    20    21    1
     6    20    19    2
     7    13    12    2
     8    21    16    2
     9    19    18    1
    10    12    14   am
    11    12     7    1
    12     6     7    2
    13     6     5    1
    14    16    14    1
    15    16    17    1
    16    18    17    2
    17    14    15    1
    18     7     8    1
    19     5     4    2
    20     4     9    1
    21     4     2    1
    22     8     9    2
    23     3     2    2
    24     9    10    1
    25     2     1   am
    26    10     1   am
    27    10    11    2
    28     1    26    1
    29    27    26    2
    30    27    28    1
    31    26    32    1
    32    28    29    2
    33    32    30    2
    34    29    30    1
    35    30    31    1
