@<TRIPOS>MOLECULE
7250_out_ligand_01.pdbqt
 35 37 0 0 0
SMALL
GASTEIGER

@<TRIPOS>ATOM
      1  C         18.6470  -22.4460  -10.0540 C.2     1  UNL1        0.0810
      2  C         19.9200  -22.9480   -9.7310 C.2     1  UNL1        0.0420
      3  C         21.0420  -22.5320  -10.4540 C.2     1  UNL1        0.0330
      4  C         20.8850  -21.6320  -11.5110 C.2     1  UNL1        0.0170
      5  C         19.6210  -21.1300  -11.8270 C.2     1  UNL1        0.0090
      6  C         18.4810  -21.5250  -11.1070 C.2     1  UNL1       -0.0390
      7  C         17.1540  -20.9250  -11.4820 C.3     1  UNL1        0.0500
      8  C         22.4100  -23.0390  -10.1520 C.2     1  UNL1        0.2510
      9  O         22.5540  -23.9840   -9.3840 O.2     1  UNL1       -0.2680
     10  N         23.4520  -22.4110  -10.7990 N.am    1  UNL1       -0.3530
     11  H         23.2510  -21.8100  -11.5850 H       1  UNL1        0.1630
     12  C         24.8080  -22.9010  -10.6910 C.3     1  UNL1        0.1610
     13  C         25.3940  -23.1580  -12.0560 C.2     1  UNL1       -0.0400
     14  C         26.5060  -23.9990  -12.1990 C.2     1  UNL1        0.0090
     15  C         27.0440  -24.2580  -13.4590 C.2     1  UNL1        0.0010
     16  C         26.4720  -23.6830  -14.5940 C.2     1  UNL1        0.0160
     17  C         25.3490  -22.8520  -14.4810 C.2     1  UNL1        0.0480
     18  C         24.8200  -22.5920  -13.2040 C.2     1  UNL1        0.0250
     19  C         24.7400  -22.2140  -15.7050 C.3     1  UNL1        0.4170
     20  F         23.8200  -23.0110  -16.3190 F       1  UNL1       -0.1660
     21  F         25.6580  -21.9040  -16.6630 F       1  UNL1       -0.1660
     22  F         24.0930  -21.0510  -15.4160 F       1  UNL1       -0.1660
     23  S         17.2660  -23.0070   -9.0630 S.O2    1  UNL1        0.2460
     24  O         16.4630  -23.8850   -9.8830 O.2     1  UNL1       -0.2060
     25  O         16.6970  -21.8410   -8.4140 O.2     1  UNL1       -0.2060
     26  N         18.0770  -23.8850   -7.8450 N.pl3   1  UNL1       -0.1810
     27  H         19.0330  -24.0450   -8.1650 H       1  UNL1        0.1460
     28  C         18.0740  -23.2340   -6.5660 C.2     1  UNL1        0.0230
     29  C         18.7450  -22.0220   -6.3980 C.2     1  UNL1        0.0310
     30  C         18.6930  -21.3560   -5.1670 C.2     1  UNL1       -0.0600
     31  C         17.9750  -21.9290   -4.1090 C.2     1  UNL1        0.0130
     32  C         19.4340  -20.0660   -4.9690 C.3     1  UNL1        0.0480
     33  C         17.2930  -23.1420   -4.2750 C.2     1  UNL1       -0.0600
     34  C         16.4770  -23.7160   -3.1560 C.3     1  UNL1        0.0480
     35  C         17.3300  -23.7800   -5.5210 C.2     1  UNL1        0.0310
@<TRIPOS>BOND
     1    21    19    1
     2    20    19    1
     3    19    22    1
     4    19    17    1
     5    16    17    2
     6    16    15    1
     7    17    18    1
     8    15    14    2
     9    18    13    2
    10    14    13    1
    11    13    12    1
    12     5     4    2
    13     5     6    1
    14    11    10    1
    15     4     3    1
    16     7     6    1
    17     6     1    2
    18    10    12    1
    19    10     8   am
    20     3     8    1
    21     3     2    2
    22     8     9    2
    23     1     2    1
    24     1    23    1
    25    24    23    2
    26    23    25    2
    27    23    26    1
    28    27    26    1
    29    26    28    1
    30    28    29    2
    31    28    35    1
    32    29    30    1
    33    35    33    2
    34    30    32    1
    35    30    31    2
    36    33    31    1
    37    33    34    1
