@<TRIPOS>MOLECULE
72501_out_ligand_01.pdbqt
 38 42 0 0 0
SMALL
GASTEIGER

@<TRIPOS>ATOM
      1  N         14.9760  -22.7140   -7.1980 N.1     1  UNL1       -0.1910
      2  C         16.0440  -22.7170   -7.6520 C.1     1  UNL1        0.1060
      3  C         17.3680  -22.7160   -8.1740 C.2     1  UNL1        0.1230
      4  C         18.4780  -22.5840   -7.4100 C.2     1  UNL1        0.0030
      5  C         19.7970  -22.5950   -8.0330 C.2     1  UNL1        0.0440
      6  C         19.9330  -22.7310   -9.3610 C.2     1  UNL1        0.0460
      7  N         18.8120  -22.8670  -10.1380 N.am    1  UNL1       -0.3220
      8  C         17.5270  -22.8680   -9.6530 C.2     1  UNL1        0.2670
      9  O         16.5720  -22.9880  -10.4120 O.2     1  UNL1       -0.2660
     10  H         18.9040  -22.9570  -11.1430 H       1  UNL1        0.1690
     11  C         18.3620  -22.4310   -5.9450 C.2     1  UNL1       -0.0240
     12  C         18.6400  -21.1980   -5.3400 C.2     1  UNL1        0.0120
     13  C         18.5170  -21.0520   -3.9570 C.2     1  UNL1        0.0010
     14  C         18.1130  -22.1320   -3.1740 C.2     1  UNL1        0.0000
     15  C         17.8290  -23.3600   -3.7710 C.2     1  UNL1        0.0010
     16  C         17.9500  -23.5100   -5.1530 C.2     1  UNL1        0.0120
     17  C         21.2480  -22.7570  -10.0170 C.2     1  UNL1       -0.0090
     18  C         22.3660  -23.3000   -9.3730 C.2     1  UNL1        0.0160
     19  C         23.6160  -23.3120  -10.0050 C.2     1  UNL1        0.0300
     20  C         23.7820  -22.7620  -11.2820 C.2     1  UNL1        0.0320
     21  C         22.6550  -22.2480  -11.9340 C.2     1  UNL1        0.0300
     22  C         21.4040  -22.2330  -11.3060 C.2     1  UNL1        0.0160
     23  N         25.0430  -22.8270  -11.9120 N.pl3   1  UNL1       -0.3550
     24  H         25.6600  -22.0720  -11.6170 H       1  UNL1        0.1660
     25  C         25.3350  -23.1640  -13.2640 C.2     1  UNL1        0.0460
     26  C         25.3690  -24.4960  -13.6810 C.2     1  UNL1        0.0490
     27  C         25.5900  -24.7630  -15.0170 C.2     1  UNL1        0.1190
     28  N         25.7640  -23.8130  -15.9560 N.2     1  UNL1       -0.2600
     29  C         25.7160  -22.5290  -15.5690 C.2     1  UNL1        0.0690
     30  C         25.8840  -21.5480  -16.5370 C.2     1  UNL1        0.0480
     31  C         25.5010  -22.1390  -14.2310 C.2     1  UNL1        0.0190
     32  C         25.8480  -20.1770  -16.2330 C.2     1  UNL1        0.0500
     33  C         25.6520  -19.7930  -14.9050 C.2     1  UNL1        0.0170
     34  C         25.4790  -20.7610  -13.9160 C.2     1  UNL1        0.0170
     35  C         26.0610  -19.1530  -17.3170 C.3     1  UNL1        0.4170
     36  F         27.0810  -19.4890  -18.1530 F       1  UNL1       -0.1660
     37  F         26.3680  -17.9170  -16.8320 F       1  UNL1       -0.1660
     38  F         24.9670  -18.9790  -18.1090 F       1  UNL1       -0.1660
@<TRIPOS>BOND
     1    36    35    1
     2    38    35    1
     3    35    37    1
     4    35    32    1
     5    30    32    2
     6    30    29    1
     7    32    33    1
     8    28    29    2
     9    28    27    1
    10    29    31    1
    11    27    26    2
    12    33    34    2
    13    31    34    1
    14    31    25    2
    15    26    25    1
    16    25    23    1
    17    21    22    1
    18    21    20    2
    19    23    24    1
    20    23    20    1
    21    22    17    2
    22    20    19    1
    23    10     7    1
    24     9     8    2
    25     7     8   am
    26     7     6    1
    27    17    18    1
    28    17     6    1
    29    19    18    2
    30     8     3    1
    31     6     5    2
    32     3     2    1
    33     3     4    2
    34     5     4    1
    35     2     1    3
    36     4    11    1
    37    11    12    2
    38    11    16    1
    39    12    13    1
    40    16    15    2
    41    13    14    2
    42    15    14    1
