@<TRIPOS>MOLECULE
72539_out_ligand_01.pdbqt
 31 34 0 0 0
SMALL
GASTEIGER

@<TRIPOS>ATOM
      1  C         18.4810  -22.4140   -9.9850 C.2     1  UNL1        0.0330
      2  C         18.3040  -21.6080  -11.1370 C.2     1  UNL1        0.0180
      3  C         19.3890  -21.3110  -11.9710 C.2     1  UNL1        0.0190
      4  C         20.6240  -21.8250  -11.6190 C.2     1  UNL1        0.0480
      5  C         20.8000  -22.5950  -10.4930 C.2     1  UNL1        0.0490
      6  C         19.7500  -22.9070   -9.6480 C.2     1  UNL1        0.0350
      7  C         22.2110  -22.9590  -10.4220 C.2     1  UNL1        0.2660
      8  O         22.6240  -23.6670   -9.5210 O.2     1  UNL1       -0.2670
      9  N         22.8420  -22.3850  -11.5120 N.am    1  UNL1       -0.2440
     10  C         21.9220  -21.6860  -12.2690 C.2     1  UNL1        0.2660
     11  O         22.0350  -21.0290  -13.2880 O.2     1  UNL1       -0.2670
     12  C         17.3410  -22.7270   -9.0770 C.2     1  UNL1        0.2560
     13  N         17.5220  -22.3430   -7.7630 N.am    1  UNL1       -0.3230
     14  H         18.3440  -21.7960   -7.5450 H       1  UNL1        0.1690
     15  O         16.3550  -23.2600   -9.5680 O.2     1  UNL1       -0.2670
     16  C         16.6350  -22.5480   -6.6820 C.2     1  UNL1        0.0350
     17  C         15.3230  -22.0840   -6.8360 C.2     1  UNL1        0.0290
     18  C         14.3890  -22.2370   -5.8090 C.2     1  UNL1        0.0030
     19  C         14.7560  -22.8580   -4.6180 C.2     1  UNL1        0.0070
     20  C         16.0590  -23.3370   -4.4490 C.2     1  UNL1       -0.0600
     21  C         16.4740  -23.9760   -3.1560 C.3     1  UNL1        0.0480
     22  C         16.9970  -23.1650   -5.4820 C.2     1  UNL1        0.0360
     23  C         24.2380  -22.5000  -11.8100 C.2     1  UNL1        0.0480
     24  C         25.2000  -21.7340  -11.1240 C.2     1  UNL1        0.0300
     25  C         26.5680  -21.8310  -11.4070 C.2     1  UNL1        0.0050
     26  C         27.0200  -22.7030  -12.3890 C.2     1  UNL1        0.0360
     27  C         26.0880  -23.4770  -13.0830 C.2     1  UNL1        0.1050
     28  C         24.7120  -23.3780  -12.8010 C.2     1  UNL1        0.0660
     29  N         26.5550  -24.4090  -14.1160 N.pl3   1  UNL1       -0.1160
     30  O         27.0480  -25.4840  -13.7470 O.2     1  UNL1       -0.5320
     31  O         26.4310  -24.0630  -15.3000 O.2     1  UNL1       -0.5320
@<TRIPOS>BOND
     1    31    29    2
     2    29    30    2
     3    29    27    1
     4    11    10    2
     5    27    28    1
     6    27    26    2
     7    28    23    2
     8    26    25    1
     9    10     4    1
    10    10     9   am
    11     3     4    2
    12     3     2    1
    13    23     9    1
    14    23    24    1
    15     4     5    1
    16     9     7   am
    17    25    24    2
    18     2     1    2
    19     5     7    1
    20     5     6    2
    21     7     8    2
    22     1     6    1
    23     1    12    1
    24    15    12    2
    25    12    13   am
    26    13    14    1
    27    13    16    1
    28    17    16    2
    29    17    18    1
    30    16    22    1
    31    18    19    2
    32    22    20    2
    33    19    20    1
    34    20    21    1
