@<TRIPOS>MOLECULE
72536_out_ligand_01.pdbqt
 35 38 0 0 0
SMALL
GASTEIGER

@<TRIPOS>ATOM
      1  C         21.9850  -22.4630  -11.2870 C.2     1  UNL1        0.0750
      2  C         20.8170  -21.8640  -11.7570 C.2     1  UNL1        0.0270
      3  C         19.6030  -22.1340  -11.1200 C.2     1  UNL1        0.0310
      4  C         19.5480  -22.9860  -10.0060 C.2     1  UNL1        0.0340
      5  C         20.7280  -23.5780   -9.5490 C.2     1  UNL1        0.0310
      6  C         21.9490  -23.3150  -10.1810 C.2     1  UNL1        0.0270
      7  N         18.2830  -23.1850   -9.4200 N.am    1  UNL1       -0.3270
      8  C         17.0980  -22.5420   -9.7160 C.2     1  UNL1        0.2310
      9  O         16.9520  -21.6600  -10.5610 O.2     1  UNL1       -0.2720
     10  H         18.2020  -23.9900   -8.7970 H       1  UNL1        0.1690
     11  C         15.9170  -22.9270   -8.8310 C.3     1  UNL1        0.1820
     12  S         16.2020  -24.3620   -7.7470 S.3     1  UNL1       -0.1180
     13  C         16.1940  -23.5470   -6.1340 C.2     1  UNL1        0.0300
     14  C         15.1140  -23.7910   -5.2700 C.2     1  UNL1        0.0210
     15  C         15.0730  -23.1920   -4.0180 C.2     1  UNL1        0.0020
     16  C         16.1020  -22.3410   -3.6300 C.2     1  UNL1        0.0140
     17  C         17.1760  -22.0750   -4.4970 C.2     1  UNL1       -0.0060
     18  C         18.2080  -21.2100   -4.1090 C.2     1  UNL1        0.0150
     19  C         17.2400  -22.6760   -5.7760 C.2     1  UNL1        0.0830
     20  C         19.2550  -20.9430   -4.9810 C.2     1  UNL1        0.0200
     21  C         19.2440  -21.5640   -6.2120 C.2     1  UNL1        0.1170
     22  N         18.2810  -22.4230   -6.6130 N.2     1  UNL1       -0.2590
     23  S         23.5430  -22.0990  -12.0590 S.O2    1  UNL1        0.2480
     24  O         24.3350  -21.2770  -11.1700 O.2     1  UNL1       -0.2050
     25  O         24.0690  -23.3650  -12.5340 O.2     1  UNL1       -0.2050
     26  N         23.1270  -21.2380  -13.4160 N.pl3   1  UNL1       -0.1480
     27  H         22.2770  -21.5630  -13.8640 H       1  UNL1        0.1490
     28  C         24.1420  -20.9450  -14.3170 C.cat   1  UNL1        0.2160
     29  N         24.0880  -21.6820  -15.4310 N.2     1  UNL1       -0.2230
     30  C         24.9710  -21.3520  -16.3960 C.2     1  UNL1        0.0360
     31  C         25.8520  -20.2940  -16.2620 C.2     1  UNL1        0.0530
     32  C         24.9710  -22.1820  -17.6450 C.3     1  UNL1        0.0700
     33  C         25.7790  -19.5690  -15.0870 C.2     1  UNL1        0.0360
     34  C         26.6640  -18.3770  -14.8770 C.3     1  UNL1        0.0700
     35  N         24.9060  -19.8730  -14.1080 N.2     1  UNL1       -0.2230
@<TRIPOS>BOND
     1    32    30    1
     2    30    31    2
     3    30    29    1
     4    31    33    1
     5    29    28    2
     6    33    34    1
     7    33    35    2
     8    28    35    1
     9    28    26    1
    10    27    26    1
    11    26    23    1
    12    25    23    2
    13    23     1    1
    14    23    24    2
    15     2     1    2
    16     2     3    1
    17     1     6    1
    18     3     4    2
    19     9     8    2
    20     6     5    2
    21     4     5    1
    22     4     7    1
    23     8     7   am
    24     8    11    1
    25     7    10    1
    26    11    12    1
    27    12    13    1
    28    22    21    2
    29    22    19    1
    30    21    20    1
    31    13    19    2
    32    13    14    1
    33    19    17    1
    34    14    15    2
    35    20    18    2
    36    17    18    1
    37    17    16    2
    38    15    16    1
