@<TRIPOS>MOLECULE
72555_out_ligand_01.pdbqt
 34 37 0 0 0
SMALL
GASTEIGER

@<TRIPOS>ATOM
      1  C         15.4800  -24.0160   -6.3110 C.3     1  UNL1        0.0100
      2  C         16.5130  -23.2820   -7.1640 C.3     1  UNL1       -0.0140
      3  C         15.9130  -22.8820   -8.5300 C.3     1  UNL1        0.0090
      4  C         16.9010  -22.0490   -9.3640 C.3     1  UNL1        0.0420
      5  C         18.2810  -22.6380   -9.3490 C.ar    1  UNL1       -0.0210
      6  C         18.6630  -23.5750   -8.4100 C.ar    1  UNL1       -0.0070
      7  S         20.2770  -24.0630   -8.5950 S.2     1  UNL1       -0.0750
      8  C         20.5170  -23.0400   -9.9330 C.ar    1  UNL1        0.0980
      9  C         19.3700  -22.3210  -10.2280 C.ar    1  UNL1        0.0850
     10  C         19.3030  -21.3650  -11.2930 C.1     1  UNL1        0.1030
     11  N         19.2940  -20.5950  -12.1600 N.1     1  UNL1       -0.1910
     12  C         17.7770  -24.1520   -7.3480 C.3     1  UNL1        0.0510
     13  N         21.7420  -22.9670  -10.5890 N.am    1  UNL1       -0.3160
     14  C         22.7560  -22.0570  -10.3490 C.2     1  UNL1        0.2560
     15  O         22.8060  -21.1910   -9.4850 O.2     1  UNL1       -0.2670
     16  H         21.9300  -23.7040  -11.2590 H       1  UNL1        0.1690
     17  C         23.9380  -22.2000  -11.2450 C.2     1  UNL1        0.0330
     18  C         25.1850  -22.6230  -10.7600 C.2     1  UNL1        0.0170
     19  C         26.2700  -22.7500  -11.6310 C.2     1  UNL1        0.0030
     20  C         26.1140  -22.4730  -12.9890 C.2     1  UNL1        0.0250
     21  C         24.8600  -22.0860  -13.4740 C.2     1  UNL1        0.0800
     22  C         23.7730  -21.9370  -12.6090 C.2     1  UNL1        0.0420
     23  S         24.6490  -21.7340  -15.2040 S.O2    1  UNL1        0.2630
     24  O         24.4880  -23.0000  -15.8850 O.2     1  UNL1       -0.2000
     25  O         23.6520  -20.6900  -15.3260 O.2     1  UNL1       -0.2000
     26  N         26.1590  -21.1240  -15.6630 N.pl3   1  UNL1       -0.2790
     27  H         26.8780  -21.3910  -14.9860 H       1  UNL1        0.1790
     28  C         26.2370  -19.7780  -16.1500 C.2     1  UNL1        0.0640
     29  C         26.0560  -19.5180  -17.5090 C.2     1  UNL1        0.0320
     30  C         26.1010  -18.2050  -17.9840 C.2     1  UNL1        0.0020
     31  C         26.3300  -17.1470  -17.1040 C.2     1  UNL1        0.0020
     32  C         26.5210  -17.4000  -15.7450 C.2     1  UNL1        0.0260
     33  C         26.4780  -18.7120  -15.2690 C.2     1  UNL1        0.0610
     34 CL         26.7230  -18.9890  -13.5820 Cl      1  UNL1       -0.0820
@<TRIPOS>BOND
     1    30    29    1
     2    30    31    2
     3    29    28    2
     4    31    32    1
     5    28    26    1
     6    28    33    1
     7    24    23    2
     8    32    33    2
     9    26    23    1
    10    26    27    1
    11    25    23    2
    12    33    34    1
    13    23    21    1
    14    21    20    2
    15    21    22    1
    16    20    19    1
    17    22    17    2
    18    11    10    3
    19    19    18    2
    20    10     9    1
    21    16    13    1
    22    17    18    1
    23    17    14    1
    24    13    14   am
    25    13     8    1
    26    14    15    2
    27     9     8   ar
    28     9     5   ar
    29     8     7   ar
    30     4     5    1
    31     4     3    1
    32     5     6   ar
    33     7     6   ar
    34     3     2    1
    35     6    12    1
    36    12     2    1
    37     2     1    1
