@<TRIPOS>MOLECULE
72557_out_ligand_01.pdbqt
 37 41 0 0 0
SMALL
GASTEIGER

@<TRIPOS>ATOM
      1  C         20.3070  -22.5660  -10.0260 C.2     1  UNL1        0.0800
      2  C         19.2120  -21.8990  -10.5860 C.2     1  UNL1        0.0250
      3  C         19.3630  -21.2140  -11.7910 C.2     1  UNL1        0.0030
      4  C         20.6010  -21.2010  -12.4380 C.2     1  UNL1        0.0170
      5  C         21.6970  -21.8750  -11.8760 C.2     1  UNL1        0.0330
      6  C         21.5560  -22.5380  -10.6520 C.2     1  UNL1        0.0420
      7  S         20.1090  -23.4320   -8.4900 S.O2    1  UNL1        0.2590
      8  O         20.6980  -24.7450   -8.6180 O.2     1  UNL1       -0.2010
      9  O         20.4880  -22.5280   -7.4270 O.2     1  UNL1       -0.2010
     10  N         18.4420  -23.5860   -8.3920 N.3     1  UNL1       -0.3100
     11  H         18.0550  -24.2060   -9.1010 H       1  UNL1        0.1720
     12  C         17.6060  -22.4930   -7.8600 C.3     1  UNL1        0.1010
     13  C         16.4560  -22.2060   -8.8500 C.3     1  UNL1        0.0220
     14  C         15.8010  -23.4010   -9.5270 C.3     1  UNL1        0.0070
     15  C         17.2400  -22.7760   -6.3610 C.3     1  UNL1       -0.0180
     16  C         17.3330  -24.2950   -6.0460 C.3     1  UNL1        0.0160
     17  C         16.8860  -24.5990   -4.6060 C.3     1  UNL1       -0.0130
     18  C         15.4290  -24.1530   -4.4170 C.3     1  UNL1        0.0090
     19  C         17.7880  -23.8300   -3.6280 C.3     1  UNL1        0.0090
     20  C         15.3100  -22.6450   -4.6760 C.3     1  UNL1       -0.0130
     21  C         16.2110  -21.8830   -3.6940 C.3     1  UNL1        0.0090
     22  C         15.7600  -22.3410   -6.1130 C.3     1  UNL1        0.0160
     23  C         17.6720  -22.3190   -3.8840 C.3     1  UNL1       -0.0130
     24  C         18.1120  -22.0050   -5.3270 C.3     1  UNL1        0.0160
     25  C         23.0310  -21.8930  -12.5400 C.2     1  UNL1        0.2560
     26  O         23.9290  -22.5340  -12.0110 O.2     1  UNL1       -0.2670
     27  N         23.0970  -21.2030  -13.7380 N.am    1  UNL1       -0.3230
     28  H         22.2300  -20.8230  -14.0970 H       1  UNL1        0.1690
     29  C         24.2290  -21.0380  -14.5650 C.2     1  UNL1        0.0370
     30  C         25.1640  -20.0090  -14.4130 C.2     1  UNL1        0.0290
     31  C         26.2620  -19.9030  -15.2750 C.2     1  UNL1        0.0050
     32  C         26.4410  -20.8240  -16.3040 C.2     1  UNL1        0.0360
     33  C         25.5070  -21.8520  -16.4630 C.2     1  UNL1        0.1050
     34  C         24.4030  -21.9630  -15.6010 C.2     1  UNL1        0.0650
     35  N         25.6760  -22.8260  -17.5470 N.pl3   1  UNL1       -0.1160
     36  O         26.7930  -22.9160  -18.0740 O.2     1  UNL1       -0.5320
     37  O         24.6870  -23.5010  -17.8710 O.2     1  UNL1       -0.5320
@<TRIPOS>BOND
     1    36    35    2
     2    37    35    2
     3    35    33    1
     4    33    32    2
     5    33    34    1
     6    32    31    1
     7    34    29    2
     8    31    30    2
     9    29    30    1
    10    29    27    1
    11    28    27    1
    12    27    25   am
    13    25    26    2
    14    25     5    1
    15     4     5    2
    16     4     3    1
    17     5     6    1
    18     3     2    2
    19     6     1    2
    20     2     1    1
    21     1     7    1
    22    14    13    1
    23    11    10    1
    24    13    12    1
    25     8     7    2
    26     7    10    1
    27     7     9    2
    28    10    12    1
    29    12    15    1
    30    15    22    1
    31    15    16    1
    32    15    24    1
    33    22    20    1
    34    16    17    1
    35    24    23    1
    36    20    18    1
    37    20    21    1
    38    17    18    1
    39    17    19    1
    40    23    21    1
    41    23    19    1
