@<TRIPOS>MOLECULE
72567_out_ligand_01.pdbqt
 40 44 0 0 0
SMALL
GASTEIGER

@<TRIPOS>ATOM
      1  C         20.0640  -22.9230  -10.6690 C.2     1  UNL1        0.0710
      2  N         21.3210  -22.8880  -11.1890 N.2     1  UNL1       -0.0660
      3  C         21.6800  -21.8830  -12.0110 C.cat   1  UNL1        0.7250
      4  N         20.8260  -20.9030  -12.3350 N.2     1  UNL1       -0.0740
      5  C         19.5780  -20.9580  -11.8240 C.2     1  UNL1        0.1550
      6  C         19.1250  -21.9630  -10.9960 C.2     1  UNL1        0.0760
      7  C         17.7130  -21.9040  -10.5910 C.2     1  UNL1        0.2680
      8  O         17.0100  -20.9730  -10.9460 O.2     1  UNL1       -0.2670
      9  N         17.2380  -23.0260   -9.9050 N.am    1  UNL1       -0.2460
     10  H         17.7970  -23.8620   -9.7720 H       1  UNL1        0.1820
     11  S         15.6680  -23.2430   -9.3940 S.O2    1  UNL1        0.2650
     12  O         15.0060  -21.9880   -9.6930 O.2     1  UNL1       -0.2000
     13  O         15.1520  -24.4940   -9.9010 O.2     1  UNL1       -0.2000
     14  C         15.8310  -23.3510   -7.6300 C.2     1  UNL1        0.0800
     15  C         16.6680  -24.3190   -7.0690 C.2     1  UNL1        0.0260
     16  C         16.7750  -24.4140   -5.6810 C.2     1  UNL1        0.0080
     17  C         16.0430  -23.5570   -4.8500 C.2     1  UNL1       -0.0620
     18  C         16.1570  -23.6850   -3.3590 C.3     1  UNL1        0.0480
     19  C         15.1860  -22.6080   -5.4260 C.2     1  UNL1        0.0080
     20  C         15.0760  -22.5050   -6.8140 C.2     1  UNL1        0.0260
     21  C         19.8660  -24.0040   -9.6350 C.3     1  UNL1        0.0650
     22  C         20.9650  -23.9940   -8.5630 C.3     1  UNL1        0.0440
     23  C         20.8810  -22.7800   -7.6720 C.2     1  UNL1       -0.0550
     24  C         21.9270  -21.8510   -7.6260 C.2     1  UNL1        0.0070
     25  C         21.8080  -20.6960   -6.8510 C.2     1  UNL1        0.0030
     26  C         20.6430  -20.4570   -6.1190 C.2     1  UNL1        0.0370
     27  C         19.5950  -21.3750   -6.1610 C.2     1  UNL1        0.0680
     28  C         19.7240  -22.5380   -6.9190 C.2     1  UNL1        0.0440
     29  O         18.4180  -21.2500   -5.4750 O.2     1  UNL1       -0.3560
     30  C         18.5630  -21.0620   -4.0710 C.3     1  UNL1        0.2100
     31  N         22.9830  -21.8510  -12.5010 N.pl3   1  UNL1       -0.2100
     32  C         24.0050  -21.4360  -11.5440 C.3     1  UNL1        0.1460
     33  C         25.3910  -21.8130  -12.0740 C.3     1  UNL1        0.0590
     34  C         25.6100  -21.3150  -13.4780 C.2     1  UNL1       -0.0490
     35  C         26.9110  -21.1270  -13.9630 C.2     1  UNL1        0.0080
     36  C         24.5080  -21.0940  -14.3230 C.2     1  UNL1       -0.0330
     37  C         27.1210  -20.6970  -15.2720 C.2     1  UNL1        0.0010
     38  C         26.0330  -20.4590  -16.1100 C.2     1  UNL1        0.0010
     39  C         24.7350  -20.6560  -15.6380 C.2     1  UNL1        0.0090
     40  C         23.0790  -21.2880  -13.8490 C.3     1  UNL1        0.1800
@<TRIPOS>BOND
     1    38    39    2
     2    38    37    1
     3    39    36    1
     4    37    35    2
     5    36    40    1
     6    36    34    2
     7    35    34    1
     8    40    31    1
     9    34    33    1
    10    31     3    1
    11    31    32    1
    12     4     3    1
    13     4     5    2
    14    33    32    1
    15     3     2    2
    16     5     6    1
    17     2     1    1
    18     6     1    2
    19     6     7    1
    20     8     7    2
    21     1    21    1
    22     7     9   am
    23     9    10    1
    24     9    11    1
    25    13    11    2
    26    12    11    2
    27    21    22    1
    28    11    14    1
    29    22    23    1
    30    23    24    2
    31    23    28    1
    32    14    15    2
    33    14    20    1
    34    24    25    1
    35    15    16    1
    36    28    27    2
    37    25    26    2
    38    20    19    2
    39    27    26    1
    40    27    29    1
    41    16    17    2
    42    29    30    1
    43    19    17    1
    44    17    18    1
