@<TRIPOS>MOLECULE
72572_out_ligand_01.pdbqt
 33 36 0 0 0
SMALL
GASTEIGER

@<TRIPOS>ATOM
      1  C         21.3050  -22.3080  -10.3140 C.2     1  UNL1        0.0700
      2  N         20.1310  -22.5170   -9.6640 N.2     1  UNL1       -0.0660
      3  C         20.1100  -22.5770   -8.3190 C.cat   1  UNL1        0.7250
      4  N         21.2300  -22.4370   -7.5920 N.2     1  UNL1       -0.0740
      5  C         22.3910  -22.2350   -8.2510 C.2     1  UNL1        0.1550
      6  C         22.4920  -22.1920   -9.6210 C.2     1  UNL1        0.0760
      7  C         23.8220  -22.0100  -10.2070 C.2     1  UNL1        0.2680
      8  O         24.3720  -20.9230  -10.1670 O.2     1  UNL1       -0.2670
      9  N         24.4040  -23.1730  -10.7190 N.am    1  UNL1       -0.2460
     10  H         23.9900  -24.0920  -10.5930 H       1  UNL1        0.1820
     11  S         25.8580  -23.2370  -11.5240 S.O2    1  UNL1        0.2650
     12  O         26.5200  -24.4800  -11.2010 O.2     1  UNL1       -0.2000
     13  O         26.4930  -21.9630  -11.2500 O.2     1  UNL1       -0.2000
     14  C         25.3870  -23.2410  -13.2340 C.2     1  UNL1        0.0800
     15  C         25.7020  -24.3410  -14.0390 C.2     1  UNL1        0.0270
     16  C         25.3530  -24.3290  -15.3900 C.2     1  UNL1        0.0200
     17  C         24.7080  -23.2160  -15.9290 C.2     1  UNL1        0.0110
     18 BR         24.2370  -23.2010  -17.7600 Br      1  UNL1       -0.0510
     19  C         24.4110  -22.1090  -15.1310 C.2     1  UNL1        0.0200
     20  C         24.7560  -22.1170  -13.7780 C.2     1  UNL1        0.0270
     21  C         21.1700  -22.1200  -11.8040 C.3     1  UNL1        0.0600
     22  C         20.4700  -20.8120  -12.1830 C.3     1  UNL1        0.0020
     23  C         18.9770  -20.8200  -11.8890 C.3     1  UNL1        0.0050
     24  N         18.8950  -22.7550   -7.6640 N.pl3   1  UNL1       -0.2100
     25  C         18.2420  -24.0430   -7.8810 C.3     1  UNL1        0.1460
     26  C         16.7720  -23.9520   -7.4640 C.3     1  UNL1        0.0590
     27  C         16.6150  -23.3920   -6.0750 C.2     1  UNL1       -0.0490
     28  C         15.4510  -23.6530   -5.3400 C.2     1  UNL1        0.0080
     29  C         17.6110  -22.5580   -5.5390 C.2     1  UNL1       -0.0330
     30  C         15.2840  -23.1100   -4.0670 C.2     1  UNL1        0.0010
     31  C         16.2730  -22.2960   -3.5220 C.2     1  UNL1        0.0010
     32  C         17.4290  -22.0200   -4.2530 C.2     1  UNL1        0.0090
     33  C         18.8900  -22.2410   -6.2940 C.3     1  UNL1        0.1800
@<TRIPOS>BOND
     1    18    17    1
     2    17    16    2
     3    17    19    1
     4    16    15    1
     5    19    20    2
     6    15    14    2
     7    20    14    1
     8    14    11    1
     9    22    23    1
    10    22    21    1
    11    21     1    1
    12    11    13    2
    13    11    12    2
    14    11     9    1
    15     9    10    1
    16     9     7   am
    17     1     2    1
    18     1     6    2
    19     7     8    2
    20     7     6    1
    21     2     3    2
    22     6     5    1
    23     3    24    1
    24     3     4    1
    25     5     4    2
    26    25    24    1
    27    25    26    1
    28    24    33    1
    29    26    27    1
    30    33    29    1
    31    27    29    2
    32    27    28    1
    33    29    32    1
    34    28    30    2
    35    32    31    2
    36    30    31    1
