@<TRIPOS>MOLECULE
72576_out_ligand_01.pdbqt
 33 36 0 0 0
SMALL
GASTEIGER

@<TRIPOS>ATOM
      1  C         21.2590  -22.2100  -10.5610 C.2     1  UNL1        0.0700
      2  N         20.0880  -22.3700   -9.8910 N.2     1  UNL1       -0.0660
      3  C         20.0290  -23.2030   -8.8340 C.cat   1  UNL1        0.7250
      4  N         21.1030  -23.8950   -8.4220 N.2     1  UNL1       -0.0740
      5  C         22.2590  -23.7260   -9.0960 C.2     1  UNL1        0.1550
      6  C         22.4040  -22.8700  -10.1620 C.2     1  UNL1        0.0760
      7  C         23.7300  -22.7510  -10.7760 C.2     1  UNL1        0.2680
      8  O         24.5020  -21.8830  -10.4060 O.2     1  UNL1       -0.2670
      9  N         23.9840  -23.6460  -11.8180 N.am    1  UNL1       -0.2460
     10  H         23.2560  -24.2210  -12.2320 H       1  UNL1        0.1820
     11  S         25.4270  -23.7700  -12.6380 S.O2    1  UNL1        0.2650
     12  O         25.1640  -24.6950  -13.7210 O.2     1  UNL1       -0.2000
     13  O         26.4830  -24.0250  -11.6840 O.2     1  UNL1       -0.2000
     14  C         25.6400  -22.1610  -13.3480 C.2     1  UNL1        0.0800
     15  C         26.8120  -21.4420  -13.1080 C.2     1  UNL1        0.0260
     16  C         26.9810  -20.1850  -13.6900 C.2     1  UNL1        0.0080
     17  C         25.9840  -19.6420  -14.5110 C.2     1  UNL1       -0.0620
     18  C         26.1820  -18.3040  -15.1630 C.3     1  UNL1        0.0480
     19  C         24.8250  -20.3870  -14.7690 C.2     1  UNL1        0.0080
     20  C         24.6500  -21.6450  -14.1900 C.2     1  UNL1        0.0260
     21  C         21.1620  -21.3510  -11.7980 C.3     1  UNL1        0.0600
     22  C         19.9920  -20.3620  -11.7780 C.3     1  UNL1        0.0020
     23  C         18.6440  -21.0270  -12.0180 C.3     1  UNL1        0.0050
     24  N         18.8280  -23.3240   -8.1400 N.pl3   1  UNL1       -0.2100
     25  C         17.6260  -23.0210   -8.9150 C.3     1  UNL1        0.1460
     26  C         16.3930  -23.5520   -8.1780 C.3     1  UNL1        0.0590
     27  C         16.3510  -23.0870   -6.7470 C.2     1  UNL1       -0.0490
     28  C         15.1330  -23.0600   -6.0520 C.2     1  UNL1        0.0080
     29  C         17.5420  -22.7390   -6.0870 C.2     1  UNL1       -0.0330
     30  C         15.0920  -22.6600   -4.7160 C.2     1  UNL1        0.0010
     31  C         16.2660  -22.2930   -4.0640 C.2     1  UNL1        0.0010
     32  C         17.4840  -22.3320   -4.7430 C.2     1  UNL1        0.0090
     33  C         18.8870  -22.7540   -6.7920 C.3     1  UNL1        0.1800
@<TRIPOS>BOND
     1    18    17    1
     2    19    17    2
     3    19    20    1
     4    17    16    1
     5    20    14    2
     6    12    11    2
     7    16    15    2
     8    14    15    1
     9    14    11    1
    10    11     9    1
    11    11    13    2
    12    10     9    1
    13    23    22    1
    14     9     7   am
    15    21    22    1
    16    21     1    1
    17     7     8    2
    18     7     6    1
    19     1     6    2
    20     1     2    1
    21     6     5    1
    22     2     3    2
    23     5     4    2
    24    25    26    1
    25    25    24    1
    26     3     4    1
    27     3    24    1
    28    26    27    1
    29    24    33    1
    30    33    29    1
    31    27    29    2
    32    27    28    1
    33    29    32    1
    34    28    30    2
    35    32    31    2
    36    30    31    1
