@<TRIPOS>MOLECULE
72570_out_ligand_01.pdbqt
 32 35 0 0 0
SMALL
GASTEIGER

@<TRIPOS>ATOM
      1  C         15.9380  -24.1860   -8.6010 C.3     1  UNL1        0.0470
      2  C         17.1410  -23.2320   -8.7140 C.3     1  UNL1        0.0680
      3  C         17.1250  -22.6280  -10.1340 C.3     1  UNL1        0.0430
      4  C         18.3670  -21.7880  -10.3950 C.3     1  UNL1        0.0440
      5  C         19.5930  -22.5150   -9.9290 C.2     1  UNL1       -0.0240
      6  C         20.8620  -22.1060  -10.3750 C.2     1  UNL1        0.0270
      7  C         22.0170  -22.7820   -9.9540 C.2     1  UNL1        0.0330
      8  C         21.8950  -23.8770   -9.0900 C.2     1  UNL1        0.0200
      9  C         20.6370  -24.2750   -8.6350 C.2     1  UNL1        0.0380
     10  C         19.4940  -23.5870   -9.0390 C.2     1  UNL1        0.0760
     11  O         18.3140  -24.0510   -8.5300 O.2     1  UNL1       -0.3400
     12  C         23.3840  -22.3750  -10.3810 C.2     1  UNL1        0.2650
     13  O         23.8490  -21.2920  -10.0660 O.2     1  UNL1       -0.2670
     14  N         24.0590  -23.3000  -11.1860 N.am    1  UNL1       -0.2460
     15  H         23.5670  -24.0430  -11.6700 H       1  UNL1        0.1820
     16  S         25.5930  -23.0770  -11.7910 S.O2    1  UNL1        0.2660
     17  O         26.3730  -22.4020  -10.7760 O.2     1  UNL1       -0.2000
     18  O         26.0200  -24.3670  -12.2920 O.2     1  UNL1       -0.2000
     19  C         25.3920  -22.0000  -13.1840 C.2     1  UNL1        0.0970
     20  C         24.7900  -22.5300  -14.3360 C.2     1  UNL1        0.0270
     21  C         24.5880  -21.7270  -15.4590 C.2     1  UNL1        0.0020
     22  C         24.9820  -20.3930  -15.4370 C.2     1  UNL1        0.0010
     23  C         25.5830  -19.8620  -14.2940 C.2     1  UNL1        0.0200
     24  C         25.7920  -20.6600  -13.1600 C.2     1  UNL1        0.0340
     25 BR         26.6410  -19.8120  -11.6870 Br      1  UNL1       -0.0490
     26  C         17.0750  -22.1180   -7.6270 C.3     1  UNL1        0.0760
     27  C         16.7110  -22.5720   -6.2290 C.2     1  UNL1       -0.0550
     28  C         15.4150  -22.3690   -5.7310 C.2     1  UNL1        0.0070
     29  C         15.0790  -22.7880   -4.4420 C.2     1  UNL1        0.0010
     30  C         16.0320  -23.4100   -3.6390 C.2     1  UNL1        0.0000
     31  C         17.3220  -23.6130   -4.1220 C.2     1  UNL1        0.0010
     32  C         17.6610  -23.1960   -5.4090 C.2     1  UNL1        0.0070
@<TRIPOS>BOND
     1    21    22    2
     2    21    20    1
     3    22    23    1
     4    20    19    2
     5    23    24    2
     6    19    24    1
     7    19    16    1
     8    24    25    1
     9    18    16    2
    10    16    14    1
    11    16    17    2
    12    15    14    1
    13    14    12   am
    14     4     3    1
    15     4     5    1
    16    12    13    2
    17    12     7    1
    18     6     7    1
    19     6     5    2
    20     3     2    1
    21     7     8    2
    22     5    10    1
    23     8     9    1
    24    10     9    2
    25    10    11    1
    26     2     1    1
    27     2    11    1
    28     2    26    1
    29    26    27    1
    30    27    28    2
    31    27    32    1
    32    28    29    1
    33    32    31    2
    34    29    30    2
    35    31    30    1
