@<TRIPOS>MOLECULE
72581_out_ligand_01.pdbqt
 36 39 0 0 0
SMALL
GASTEIGER

@<TRIPOS>ATOM
      1  C         24.1590  -21.8750  -10.7340 C.2     1  UNL1        0.0790
      2  C         23.5040  -22.8110  -11.5470 C.2     1  UNL1        0.0260
      3  C         22.2450  -23.2790  -11.1720 C.2     1  UNL1        0.0180
      4  C         21.6680  -22.8370   -9.9720 C.2     1  UNL1        0.0320
      5  C         22.3210  -21.8960   -9.1700 C.2     1  UNL1        0.0180
      6  C         23.5760  -21.4180   -9.5490 C.2     1  UNL1        0.0260
      7  C         20.3420  -23.3390   -9.5470 C.2     1  UNL1        0.2540
      8  O         20.3130  -24.4070   -8.9410 O.2     1  UNL1       -0.2670
      9  N         19.2090  -22.5660   -9.8280 N.am    1  UNL1       -0.3290
     10  C         19.1290  -21.7970  -11.0750 C.3     1  UNL1        0.1470
     11  C         17.9190  -23.0830   -9.2880 C.3     1  UNL1        0.2160
     12  C         18.0180  -20.7610  -11.0090 C.3     1  UNL1        0.1420
     13  N         16.7450  -21.3840  -10.7410 N.am    1  UNL1       -0.3570
     14  C         16.6120  -22.4200   -9.8560 C.2     1  UNL1        0.2450
     15  H         15.8740  -20.9170  -10.9820 H       1  UNL1        0.1620
     16  O         15.4720  -22.7730   -9.5430 O.2     1  UNL1       -0.2710
     17  C         17.8780  -22.9860   -7.7650 C.2     1  UNL1        0.0120
     18  C         18.4650  -21.9120   -7.0690 C.2     1  UNL1        0.0130
     19  C         18.3780  -21.8340   -5.6740 C.2     1  UNL1        0.0010
     20  C         17.7010  -22.8250   -4.9620 C.2     1  UNL1        0.0030
     21  C         17.1070  -23.8880   -5.6430 C.2     1  UNL1        0.0430
     22  C         17.1940  -23.9590   -7.0320 C.2     1  UNL1        0.1250
     23  F         16.6020  -24.9860   -7.6640 F       1  UNL1       -0.2050
     24  S         25.7980  -21.3420  -11.1780 S.O2    1  UNL1        0.2630
     25  O         26.0190  -20.0220  -10.6280 O.2     1  UNL1       -0.2000
     26  O         26.6850  -22.4440  -10.8560 O.2     1  UNL1       -0.2000
     27  N         25.7690  -21.2660  -12.8470 N.pl3   1  UNL1       -0.2800
     28  H         26.0790  -20.3620  -13.1940 H       1  UNL1        0.1790
     29  C         25.7870  -22.3950  -13.7280 C.2     1  UNL1        0.0490
     30  C         26.5110  -23.5450  -13.4310 C.2     1  UNL1        0.0310
     31  C         26.4900  -24.6490  -14.2880 C.2     1  UNL1        0.0030
     32  C         25.7220  -24.6180  -15.4380 C.2     1  UNL1        0.0070
     33  C         24.9560  -23.4830  -15.7560 C.2     1  UNL1       -0.0540
     34  C         24.1390  -23.5040  -17.0350 C.3     1  UNL1        0.0490
     35  C         24.9680  -22.3650  -14.8850 C.2     1  UNL1       -0.0290
     36  C         24.1360  -21.1410  -15.1930 C.3     1  UNL1        0.0510
@<TRIPOS>BOND
     1    34    33    1
     2    33    32    2
     3    33    35    1
     4    32    31    1
     5    36    35    1
     6    35    29    2
     7    31    30    2
     8    29    30    1
     9    29    27    1
    10    28    27    1
    11    27    24    1
    12     2     3    1
    13     2     1    2
    14    24    26    2
    15    24     1    1
    16    24    25    2
    17     3     4    2
    18    10    12    1
    19    10     9    1
    20    12    13    1
    21    15    13    1
    22    13    14   am
    23     1     6    1
    24     4     7    1
    25     4     5    1
    26    14    16    2
    27    14    11    1
    28     9     7   am
    29     9    11    1
    30     6     5    2
    31     7     8    2
    32    11    17    1
    33    17    18    2
    34    17    22    1
    35    23    22    1
    36    18    19    1
    37    22    21    2
    38    19    20    2
    39    21    20    1
