@<TRIPOS>MOLECULE
72589_out_ligand_01.pdbqt
 33 36 0 0 0
SMALL
GASTEIGER

@<TRIPOS>ATOM
      1  N         20.0840  -22.0760   -8.9660 N.am    1  UNL1       -0.3230
      2  C         20.8950  -23.0170   -9.5770 C.2     1  UNL1        0.2560
      3  O         21.0890  -24.1700   -9.2120 O.2     1  UNL1       -0.2670
      4  H         20.1300  -21.1280   -9.3210 H       1  UNL1        0.1690
      5  C         21.6210  -22.5280  -10.7830 C.2     1  UNL1        0.0330
      6  C         20.8930  -21.8950  -11.7930 C.2     1  UNL1        0.0170
      7  C         21.5430  -21.4410  -12.9370 C.2     1  UNL1        0.0020
      8  C         22.9240  -21.6120  -13.0780 C.2     1  UNL1        0.0100
      9  C         23.6860  -22.2270  -12.0690 C.2     1  UNL1       -0.0200
     10  C         23.0100  -22.6710  -10.9140 C.2     1  UNL1        0.0270
     11  C         25.1960  -22.4190  -12.1840 C.3     1  UNL1        0.1390
     12  C         25.7180  -22.1410  -13.5950 C.3     1  UNL1        0.0540
     13  N         25.6480  -23.7250  -11.7430 N.am    1  UNL1       -0.3210
     14  C         26.5380  -23.6590  -10.7030 C.2     1  UNL1        0.3240
     15  H         25.4390  -24.6050  -12.1950 H       1  UNL1        0.1650
     16  O         27.0930  -24.6170  -10.1990 O.2     1  UNL1       -0.2470
     17  N         26.7000  -22.3660  -10.3500 N.am    1  UNL1       -0.2770
     18  C         25.9680  -21.5500  -11.1570 C.2     1  UNL1        0.2580
     19  H         27.3080  -22.0550   -9.6120 H       1  UNL1        0.1730
     20  O         25.9490  -20.3290  -11.0750 O.2     1  UNL1       -0.2700
     21  C         19.2530  -22.2610   -7.8410 C.2     1  UNL1        0.0350
     22  C         19.6340  -21.6330   -6.6580 C.2     1  UNL1        0.0320
     23  C         18.8560  -21.7680   -5.5030 C.2     1  UNL1        0.0350
     24  C         17.6920  -22.5190   -5.4890 C.2     1  UNL1        0.0700
     25  N         17.0040  -22.5960   -4.3380 N.2     1  UNL1       -0.2240
     26  C         17.2840  -23.1630   -6.6820 C.2     1  UNL1        0.0010
     27  C         15.8830  -23.3270   -4.3540 C.2     1  UNL1        0.1630
     28  C         15.3780  -24.0010   -5.4400 C.2     1  UNL1        0.0650
     29  C         16.0870  -23.9240   -6.6400 C.2     1  UNL1       -0.0450
     30  C         15.5580  -24.6530   -7.8460 C.3     1  UNL1        0.0490
     31  C         18.0810  -23.0180   -7.8460 C.2     1  UNL1        0.0430
     32  O         15.2360  -23.3650   -3.1630 O.2     1  UNL1       -0.3450
     33  H         14.4760  -23.9240   -3.4070 H       1  UNL1        0.2190
@<TRIPOS>BOND
     1    12    11    1
     2     8     7    2
     3     8     9    1
     4     7     6    1
     5    15    13    1
     6    11     9    1
     7    11    13    1
     8    11    18    1
     9     9    10    2
    10     6     5    2
    11    13    14   am
    12    18    20    2
    13    18    17   am
    14    10     5    1
    15     5     2    1
    16    14    17   am
    17    14    16    2
    18    17    19    1
    19     2     3    2
    20     2     1   am
    21     4     1    1
    22     1    21    1
    23    30    29    1
    24    31    21    2
    25    31    26    1
    26    21    22    1
    27    26    29    1
    28    26    24    2
    29    22    23    2
    30    29    28    2
    31    23    24    1
    32    24    25    1
    33    28    27    1
    34    27    25    2
    35    27    32    1
    36    33    32    1
