@<TRIPOS>MOLECULE
72593_out_ligand_01.pdbqt
 33 36 0 0 0
SMALL
GASTEIGER

@<TRIPOS>ATOM
      1  C         18.2130  -23.2700   -8.9070 C.2     1  UNL1        0.0800
      2  C         18.8620  -24.2550   -8.1600 C.2     1  UNL1        0.0260
      3  C         20.2430  -24.4230   -8.2890 C.2     1  UNL1        0.0090
      4  C         20.9870  -23.6170   -9.1670 C.2     1  UNL1       -0.0460
      5  C         22.4780  -23.7900   -9.2390 C.3     1  UNL1        0.0490
      6  C         20.3020  -22.6640   -9.9460 C.2     1  UNL1        0.0390
      7  C         18.9210  -22.4840   -9.8160 C.2     1  UNL1        0.0420
      8  C         20.9980  -21.7810  -10.9120 C.2     1  UNL1        0.2560
      9  O         20.5530  -20.6550  -11.0760 O.2     1  UNL1       -0.2670
     10  N         22.0640  -22.3830  -11.5490 N.am    1  UNL1       -0.3220
     11  H         22.2330  -23.3580  -11.3310 H       1  UNL1        0.1690
     12  C         22.9170  -21.8000  -12.5130 C.2     1  UNL1        0.0530
     13  C         22.3370  -21.2040  -13.6390 C.2     1  UNL1        0.1480
     14  N         22.9880  -20.6010  -14.6670 N.2     1  UNL1       -0.2400
     15  C         24.3220  -20.6210  -14.5070 C.2     1  UNL1        0.1370
     16  N         25.2180  -20.0800  -15.3880 N.pl3   1  UNL1       -0.3500
     17  C         25.0400  -21.1730  -13.4520 C.2     1  UNL1        0.0130
     18  C         26.4970  -20.2730  -14.9290 C.2     1  UNL1        0.0900
     19  H         24.9490  -19.6140  -16.2410 H       1  UNL1        0.1660
     20  C         26.4170  -20.9470  -13.7290 C.2     1  UNL1        0.0320
     21  C         24.3100  -21.7860  -12.4180 C.2     1  UNL1        0.0460
     22  S         16.4590  -23.0360   -8.7420 S.O2    1  UNL1        0.2630
     23  O         15.8720  -24.3070   -8.3770 O.2     1  UNL1       -0.2000
     24  O         16.0140  -22.3220   -9.9210 O.2     1  UNL1       -0.2000
     25  N         16.3360  -21.9560   -7.4550 N.pl3   1  UNL1       -0.2800
     26  H         16.7760  -21.0610   -7.6520 H       1  UNL1        0.1790
     27  C         16.3470  -22.4450   -6.1160 C.2     1  UNL1        0.0480
     28  C         15.2170  -23.1180   -5.6350 C.2     1  UNL1        0.0300
     29  C         15.2050  -23.6500   -4.3460 C.2     1  UNL1        0.0020
     30  C         16.3240  -23.5170   -3.5320 C.2     1  UNL1        0.0010
     31  C         17.4490  -22.8380   -4.0020 C.2     1  UNL1        0.0090
     32  C         17.4720  -22.2780   -5.2920 C.2     1  UNL1       -0.0350
     33  C         18.7320  -21.5870   -5.7400 C.3     1  UNL1        0.0500
@<TRIPOS>BOND
     1    19    16    1
     2    16    18    1
     3    16    15    1
     4    18    20    2
     5    14    15    2
     6    14    13    1
     7    15    17    1
     8    20    17    1
     9    13    12    2
    10    17    21    2
    11    12    21    1
    12    12    10    1
    13    10    11    1
    14    10     8   am
    15     9     8    2
    16     8     6    1
    17     6     7    1
    18     6     4    2
    19    24    22    2
    20     7     1    2
    21     5     4    1
    22     4     3    1
    23     1    22    1
    24     1     2    1
    25    22    23    2
    26    22    25    1
    27     3     2    2
    28    26    25    1
    29    25    27    1
    30    27    28    2
    31    27    32    1
    32    33    32    1
    33    28    29    1
    34    32    31    2
    35    29    30    2
    36    31    30    1
