@<TRIPOS>MOLECULE
72597_out_ligand_01.pdbqt
 32 35 0 0 0
SMALL
GASTEIGER

@<TRIPOS>ATOM
      1  C         19.5520  -20.7590  -11.8000 C.3     1  UNL1        0.0490
      2  C         18.8670  -21.6090  -10.7650 C.2     1  UNL1       -0.0460
      3  C         17.4650  -21.6930  -10.7720 C.2     1  UNL1        0.0090
      4  C         16.7880  -22.4420   -9.8060 C.2     1  UNL1        0.0260
      5  C         17.5130  -23.1080   -8.8170 C.2     1  UNL1        0.0800
      6  C         18.9080  -23.0680   -8.8040 C.2     1  UNL1        0.0420
      7  C         19.5790  -22.3310   -9.7870 C.2     1  UNL1        0.0390
      8  C         21.0610  -22.3420   -9.7320 C.2     1  UNL1        0.2560
      9  O         21.6060  -22.3420   -8.6380 O.2     1  UNL1       -0.2670
     10  N         21.6740  -22.4000  -10.9690 N.am    1  UNL1       -0.3200
     11  H         21.0600  -22.4820  -11.7720 H       1  UNL1        0.1690
     12  C         23.0270  -22.4080  -11.2230 C.2     1  UNL1        0.0700
     13  C         23.8880  -21.3770  -10.5430 C.2     1  UNL1        0.1500
     14  N         25.1750  -21.2380  -10.6530 N.2     1  UNL1       -0.2390
     15  C         25.7920  -22.1320  -11.4840 C.2     1  UNL1        0.1510
     16  C         27.1100  -22.2870  -11.8420 C.2     1  UNL1        0.0730
     17  N         25.0830  -23.1290  -12.1660 N.pl3   1  UNL1       -0.2250
     18  C         27.1210  -23.3780  -12.7230 C.2     1  UNL1        0.1430
     19  N         25.9080  -23.8940  -12.9230 N.2     1  UNL1       -0.1790
     20  C         23.7040  -23.2490  -12.0190 C.2     1  UNL1        0.1510
     21  S         16.6610  -24.0680   -7.5840 S.O2    1  UNL1        0.2630
     22  O         17.6700  -24.7840   -6.8340 O.2     1  UNL1       -0.2000
     23  O         15.5780  -24.7690   -8.2400 O.2     1  UNL1       -0.2000
     24  N         16.0240  -22.8950   -6.5500 N.pl3   1  UNL1       -0.2780
     25  H         15.0730  -23.1370   -6.2630 H       1  UNL1        0.1790
     26  C         16.8620  -22.3810   -5.5100 C.2     1  UNL1        0.0810
     27  C         17.9350  -21.5410   -5.7980 C.2     1  UNL1        0.0330
     28  C         18.7590  -21.0880   -4.7640 C.2     1  UNL1        0.0020
     29  C         18.5120  -21.4750   -3.4440 C.2     1  UNL1        0.0030
     30  C         17.4370  -22.3160   -3.1530 C.2     1  UNL1        0.0440
     31  C         16.6210  -22.7610   -4.1870 C.2     1  UNL1        0.1430
     32  F         15.5930  -23.5770   -3.9090 F       1  UNL1       -0.2040
@<TRIPOS>BOND
     1    19    18    2
     2    19    17    1
     3    18    16    1
     4    17    20    1
     5    17    15    1
     6    20    12    2
     7    16    15    2
     8     1     2    1
     9    11    10    1
    10    15    14    1
    11    12    10    1
    12    12    13    1
    13    10     8   am
    14     3     2    2
    15     3     4    1
    16     2     7    1
    17    14    13    2
    18     4     5    2
    19     7     8    1
    20     7     6    2
    21     8     9    2
    22     5     6    1
    23     5    21    1
    24    23    21    2
    25    21    22    2
    26    21    24    1
    27    24    25    1
    28    24    26    1
    29    27    26    2
    30    27    28    1
    31    26    31    1
    32    28    29    2
    33    31    32    1
    34    31    30    2
    35    29    30    1
