@<TRIPOS>MOLECULE
72591_out_ligand_01.pdbqt
 34 37 0 0 0
SMALL
GASTEIGER

@<TRIPOS>ATOM
      1  C         20.5640  -23.2020   -9.1030 C.2     1  UNL1        0.2560
      2  O         20.7760  -23.8120   -8.0560 O.2     1  UNL1       -0.2670
      3  N         21.5430  -22.9430  -10.0620 N.am    1  UNL1       -0.3430
      4  C         22.8740  -23.4770   -9.8350 C.3     1  UNL1        0.1310
      5  C         23.9570  -22.5100  -10.3100 C.3     1  UNL1        0.0600
      6  C         23.6840  -21.8890  -11.6620 C.2     1  UNL1       -0.0250
      7  C         22.3750  -21.9730  -12.1960 C.2     1  UNL1       -0.0320
      8  C         22.1000  -21.4510  -13.4730 C.2     1  UNL1        0.0090
      9  C         23.0930  -20.8250  -14.2190 C.2     1  UNL1        0.0020
     10  C         24.3690  -20.6940  -13.6850 C.2     1  UNL1        0.0260
     11  C         24.6640  -21.1990  -12.4040 C.2     1  UNL1        0.0860
     12  C         21.2350  -22.6380  -11.4520 C.3     1  UNL1        0.1650
     13  C         19.1720  -22.7780   -9.3590 C.2     1  UNL1        0.0660
     14  C         18.9300  -22.1270  -10.5780 C.2     1  UNL1        0.0200
     15  C         17.6510  -21.6630  -10.8840 C.2     1  UNL1        0.0010
     16  C         16.6080  -21.8530   -9.9780 C.2     1  UNL1        0.0030
     17  C         16.8410  -22.5190   -8.7730 C.2     1  UNL1        0.0380
     18  C         18.1170  -23.0080   -8.4670 C.2     1  UNL1        0.0910
     19  O         18.2350  -23.6090   -7.2360 O.2     1  UNL1       -0.3070
     20  C         18.2420  -22.8170   -6.1090 C.2     1  UNL1        0.1090
     21  C         19.0350  -21.6670   -6.2030 C.2     1  UNL1        0.0400
     22  C         19.1120  -20.7720   -5.1370 C.2     1  UNL1        0.0030
     23  C         18.3720  -21.0090   -3.9840 C.2     1  UNL1        0.0030
     24  C         17.5540  -22.1380   -3.8950 C.2     1  UNL1        0.0390
     25  C         17.4870  -23.0540   -4.9510 C.2     1  UNL1        0.1020
     26  O         16.6360  -24.1300   -4.9230 O.2     1  UNL1       -0.3490
     27  C         15.2960  -23.7990   -4.5450 C.3     1  UNL1        0.1710
     28  C         14.6250  -23.1200   -5.7260 C.3     1  UNL1        0.0340
     29  S         26.3260  -20.8690  -11.8230 S.O2    1  UNL1        0.2590
     30  O         26.9990  -22.1440  -11.6970 O.2     1  UNL1       -0.2010
     31  O         26.3100  -19.9090  -10.7440 O.2     1  UNL1       -0.2010
     32  N         27.0130  -20.1010  -13.1460 N.3     1  UNL1       -0.3200
     33  C         27.1130  -18.6510  -13.1840 C.3     1  UNL1        0.1590
     34  H         27.0300  -20.6400  -14.0080 H       1  UNL1        0.1710
@<TRIPOS>BOND
     1     9    10    2
     2     9     8    1
     3    34    32    1
     4    10    11    1
     5     8     7    2
     6    33    32    1
     7    32    29    1
     8    11    29    1
     9    11     6    2
    10     7     6    1
    11     7    12    1
    12    29    30    2
    13    29    31    2
    14     6     5    1
    15    12     3    1
    16    15    14    1
    17    15    16    2
    18    14    13    2
    19     5     4    1
    20     3     4    1
    21     3     1   am
    22    16    17    1
    23    13     1    1
    24    13    18    1
    25     1     2    2
    26    17    18    2
    27    18    19    1
    28    19    20    1
    29    21    20    2
    30    21    22    1
    31    20    25    1
    32    28    27    1
    33    22    23    2
    34    25    26    1
    35    25    24    2
    36    26    27    1
    37    23    24    1
