@<TRIPOS>MOLECULE
72609_out_ligand_01.pdbqt
 37 40 0 0 0
SMALL
GASTEIGER

@<TRIPOS>ATOM
      1  C         20.2080  -22.3320  -10.5360 C.2     1  UNL1       -0.0410
      2  C         20.9180  -23.0710   -9.5810 C.2     1  UNL1        0.0090
      3  C         22.2850  -23.3080   -9.7440 C.2     1  UNL1        0.0090
      4  C         22.9660  -22.8180  -10.8670 C.2     1  UNL1       -0.0450
      5  C         22.2530  -22.0860  -11.8250 C.2     1  UNL1        0.0090
      6  C         20.8850  -21.8500  -11.6630 C.2     1  UNL1        0.0090
      7  C         24.4490  -23.0710  -11.0310 C.3     1  UNL1        0.1340
      8  N         25.1860  -22.0500  -10.3140 N.pl3   1  UNL1       -0.2570
      9  H         24.6360  -21.5230   -9.6450 H       1  UNL1        0.1310
     10  C         25.8130  -21.1230  -11.1340 C.cat   1  UNL1        0.2060
     11  N         26.1230  -19.9200  -10.6700 N.2     1  UNL1       -0.1870
     12  C         26.7150  -19.1120  -11.5350 C.cat   1  UNL1        0.2030
     13  N         26.9880  -19.4110  -12.7930 N.2     1  UNL1       -0.2030
     14  C         26.6480  -20.6400  -13.1720 C.2     1  UNL1        0.1370
     15  N         26.0600  -21.5310  -12.3720 N.pl3   1  UNL1       -0.2020
     16  N         27.0430  -17.8430  -11.1000 N.pl3   1  UNL1       -0.2700
     17  H         27.1200  -17.8320  -10.0930 H       1  UNL1        0.1270
     18  H         26.4240  -17.1640  -11.5230 H       1  UNL1        0.1270
     19  C         26.9190  -21.0720  -14.6000 C.3     1  UNL1        0.0570
     20  C         26.0060  -20.3720  -15.6210 C.3     1  UNL1        0.0120
     21  C         24.6150  -20.9930  -15.7480 C.3     1  UNL1        0.0010
     22  C         24.6820  -22.5000  -15.9640 C.3     1  UNL1        0.0000
     23  C         25.4940  -23.1930  -14.8760 C.3     1  UNL1        0.0010
     24  C         26.8990  -22.6010  -14.7560 C.3     1  UNL1        0.0120
     25  C         18.7300  -22.1030  -10.3790 C.3     1  UNL1        0.1610
     26  N         18.2260  -22.8050   -9.2220 N.am    1  UNL1       -0.3560
     27  C         16.8750  -22.8940   -8.9800 C.2     1  UNL1        0.2260
     28  O         16.0460  -22.4230   -9.7530 O.2     1  UNL1       -0.2730
     29  H         18.8930  -23.0970   -8.5190 H       1  UNL1        0.1620
     30  C         16.4950  -23.6170   -7.6770 C.3     1  UNL1        0.0430
     31  C         15.5210  -24.7620   -7.9940 C.3     1  UNL1        0.0250
     32  C         17.7700  -24.1530   -6.9700 C.3     1  UNL1        0.0250
     33  C         17.9760  -23.2480   -5.7620 C.3     1  UNL1        0.0800
     34  C         16.5590  -22.9280   -5.3550 C.3     1  UNL1        0.2440
     35  F         16.4950  -21.8990   -4.4950 F       1  UNL1       -0.2060
     36  F         16.0000  -24.0050   -4.7540 F       1  UNL1       -0.2060
     37  C         15.8510  -22.6370   -6.6580 C.3     1  UNL1        0.0980
@<TRIPOS>BOND
     1    22    21    1
     2    22    23    1
     3    21    20    1
     4    20    19    1
     5    23    24    1
     6    24    19    1
     7    19    14    1
     8    14    13    2
     9    14    15    1
    10    13    12    1
    11    15    10    1
    12     5     6    1
    13     5     4    2
    14     6     1    2
    15    12    16    1
    16    12    11    2
    17    18    16    1
    18    10    11    2
    19    10     8    1
    20    16    17    1
    21     7     4    1
    22     7     8    1
    23     4     3    1
    24     1    25    1
    25     1     2    1
    26    25    26    1
    27     8     9    1
    28    28    27    2
    29     3     2    2
    30    26    27   am
    31    26    29    1
    32    27    30    1
    33    31    30    1
    34    30    32    1
    35    30    37    1
    36    32    33    1
    37    37    34    1
    38    33    34    1
    39    34    36    1
    40    34    35    1
