@<TRIPOS>MOLECULE
72604_out_ligand_01.pdbqt
 32 34 0 0 0
SMALL
GASTEIGER

@<TRIPOS>ATOM
      1  C         19.3380  -22.7180  -10.4370 C.2     1  UNL1        0.0360
      2  C         18.7920  -21.7650  -11.3090 C.2     1  UNL1        0.0290
      3  C         17.4740  -21.3210  -11.1570 C.2     1  UNL1        0.0040
      4  C         16.6860  -21.8260  -10.1280 C.2     1  UNL1        0.0250
      5  C         17.2280  -22.7720   -9.2570 C.2     1  UNL1        0.0770
      6  C         18.5480  -23.2180   -9.4020 C.2     1  UNL1        0.0540
      7  N         20.6740  -23.1050  -10.6680 N.am    1  UNL1       -0.3270
      8  C         21.8240  -22.5650  -10.1080 C.2     1  UNL1        0.2300
      9  O         21.8590  -21.6710   -9.2680 O.2     1  UNL1       -0.2720
     10  H         20.8080  -23.8510  -11.3410 H       1  UNL1        0.1690
     11  C         23.1070  -23.2350  -10.6340 C.3     1  UNL1        0.1070
     12  C         24.2700  -23.0690   -9.6540 C.3     1  UNL1        0.0250
     13  C         23.5030  -22.7310  -12.0150 C.2     1  UNL1       -0.0420
     14  C         24.5800  -23.3030  -12.7180 C.2     1  UNL1        0.0110
     15  C         24.9320  -22.8340  -13.9870 C.2     1  UNL1        0.0460
     16  C         24.2090  -21.7950  -14.5600 C.2     1  UNL1        0.1540
     17  F         24.5520  -21.3450  -15.7750 F       1  UNL1       -0.2030
     18  C         23.1400  -21.2260  -13.8800 C.2     1  UNL1        0.1550
     19  F         22.4420  -20.2260  -14.4340 F       1  UNL1       -0.2030
     20  C         22.7800  -21.6870  -12.6150 C.2     1  UNL1        0.0530
     21  S         16.2420  -23.4230   -7.9330 S.O2    1  UNL1        0.2460
     22  O         15.5800  -24.6230   -8.3990 O.2     1  UNL1       -0.2060
     23  O         15.4920  -22.3140   -7.3840 O.2     1  UNL1       -0.2060
     24  N         17.4110  -23.8380   -6.7770 N.pl3   1  UNL1       -0.1800
     25  H         18.1900  -24.3040   -7.2470 H       1  UNL1        0.1460
     26  C         17.7740  -22.8220   -5.8340 C.2     1  UNL1        0.0440
     27  C         18.7650  -21.8990   -6.1760 C.2     1  UNL1        0.0260
     28  C         19.1750  -20.9400   -5.2470 C.2     1  UNL1        0.0020
     29  C         18.6050  -20.9060   -3.9750 C.2     1  UNL1        0.0020
     30  C         17.6190  -21.8310   -3.6250 C.2     1  UNL1        0.0260
     31  C         17.2060  -22.7910   -4.5520 C.2     1  UNL1        0.0560
     32 CL         15.9740  -23.9110   -4.0920 Cl      1  UNL1       -0.0820
@<TRIPOS>BOND
     1    17    16    1
     2    16    15    2
     3    16    18    1
     4    19    18    1
     5    15    14    1
     6    18    20    2
     7    14    13    2
     8    20    13    1
     9    13    11    1
    10    10     7    1
    11     2     3    1
    12     2     1    2
    13     3     4    2
    14     7     1    1
    15     7     8   am
    16    11     8    1
    17    11    12    1
    18     1     6    1
    19     4     5    1
    20     8     9    2
    21     6     5    2
    22     5    21    1
    23    22    21    2
    24    21    23    2
    25    21    24    1
    26    25    24    1
    27    24    26    1
    28    27    26    2
    29    27    28    1
    30    26    31    1
    31    28    29    2
    32    31    32    1
    33    31    30    2
    34    29    30    1
