@<TRIPOS>MOLECULE
72611_out_ligand_01.pdbqt
 32 35 0 0 0
SMALL
GASTEIGER

@<TRIPOS>ATOM
      1  C         17.2950  -22.9240   -9.0150 C.2     1  UNL1        0.0800
      2  C         16.7330  -22.0140   -9.9120 C.2     1  UNL1        0.0260
      3  C         17.5270  -21.4530  -10.9170 C.2     1  UNL1        0.0090
      4  C         18.8840  -21.7920  -11.0340 C.2     1  UNL1       -0.0460
      5  C         19.6950  -21.1940  -12.1500 C.3     1  UNL1        0.0490
      6  C         19.4400  -22.6790  -10.0910 C.2     1  UNL1        0.0390
      7  C         18.6500  -23.2500   -9.0870 C.2     1  UNL1        0.0420
      8  C         20.8680  -23.0720  -10.1270 C.2     1  UNL1        0.2560
      9  O         21.2100  -24.0810   -9.5290 O.2     1  UNL1       -0.2670
     10  N         21.6730  -22.2030  -10.8300 N.am    1  UNL1       -0.3200
     11  H         21.2210  -21.3730  -11.2000 H       1  UNL1        0.1690
     12  C         23.0280  -22.3070  -11.0500 C.2     1  UNL1        0.0700
     13  C         24.0760  -21.4800  -10.3490 C.2     1  UNL1        0.1500
     14  N         25.3650  -21.5580  -10.5270 N.2     1  UNL1       -0.2390
     15  C         25.7870  -22.4810  -11.4400 C.2     1  UNL1        0.1510
     16  C         27.0440  -22.8300  -11.8790 C.2     1  UNL1        0.0730
     17  N         24.8940  -23.2940  -12.1390 N.pl3   1  UNL1       -0.2250
     18  C         26.8290  -23.8450  -12.8220 C.2     1  UNL1        0.1430
     19  N         25.5380  -24.1360  -12.9860 N.2     1  UNL1       -0.1790
     20  C         23.5240  -23.1920  -11.9280 C.2     1  UNL1        0.1510
     21  S         16.2950  -23.6240   -7.7250 S.O2    1  UNL1        0.2630
     22  O         15.7120  -24.8430   -8.2480 O.2     1  UNL1       -0.2000
     23  O         15.4570  -22.5810   -7.1780 O.2     1  UNL1       -0.2000
     24  N         17.4420  -24.1110   -6.5850 N.pl3   1  UNL1       -0.2810
     25  H         17.3070  -25.0900   -6.3320 H       1  UNL1        0.1790
     26  C         17.7580  -23.2100   -5.5320 C.2     1  UNL1        0.0430
     27  C         17.4480  -23.5560   -4.2180 C.2     1  UNL1        0.0300
     28  C         17.7930  -22.6960   -3.1770 C.2     1  UNL1        0.0030
     29  C         18.4490  -21.4950   -3.4500 C.2     1  UNL1        0.0070
     30  C         18.7790  -21.1490   -4.7670 C.2     1  UNL1       -0.0600
     31  C         19.4690  -19.8490   -5.0570 C.3     1  UNL1        0.0480
     32  C         18.4170  -22.0120   -5.8100 C.2     1  UNL1        0.0370
@<TRIPOS>BOND
     1    19    18    2
     2    19    17    1
     3    18    16    1
     4     5     4    1
     5    17    20    1
     6    17    15    1
     7    20    12    2
     8    16    15    2
     9    15    14    1
    10    11    10    1
    11    12    10    1
    12    12    13    1
    13     4     3    2
    14     4     6    1
    15     3     2    1
    16    10     8   am
    17    14    13    2
    18     8     6    1
    19     8     9    2
    20     6     7    2
    21     2     1    2
    22     7     1    1
    23     1    21    1
    24    22    21    2
    25    21    23    2
    26    21    24    1
    27    24    25    1
    28    24    26    1
    29    32    26    2
    30    32    30    1
    31    26    27    1
    32    31    30    1
    33    30    29    2
    34    27    28    2
    35    29    28    1
