@<TRIPOS>MOLECULE
72615_out_ligand_01.pdbqt
 29 32 0 0 0
SMALL
GASTEIGER

@<TRIPOS>ATOM
      1  N         20.5270  -22.1500   -9.5930 N.am    1  UNL1       -0.3230
      2  C         19.1920  -22.5100   -9.5380 C.2     1  UNL1        0.2560
      3  O         18.4990  -22.9120  -10.4640 O.2     1  UNL1       -0.2670
      4  H         20.9860  -21.9750   -8.7080 H       1  UNL1        0.1690
      5  C         21.3510  -22.0920  -10.7370 C.2     1  UNL1        0.0370
      6  C         21.0840  -21.2900  -11.8480 C.2     1  UNL1        0.0320
      7  C         21.9520  -21.2820  -12.9460 C.2     1  UNL1        0.0410
      8  C         23.1010  -22.0670  -12.9370 C.2     1  UNL1        0.0960
      9  O         23.8790  -22.0180  -14.0570 O.2     1  UNL1       -0.3350
     10  C         23.3740  -22.8700  -11.8320 C.2     1  UNL1        0.0700
     11  C         25.1630  -22.6240  -13.9410 C.3     1  UNL1        0.2170
     12  C         26.1950  -21.5100  -13.7820 C.3     1  UNL1        0.0500
     13  C         25.4030  -23.6820  -12.8530 C.2     1  UNL1        0.2510
     14  N         24.5050  -23.6860  -11.8240 N.am    1  UNL1       -0.3230
     15  O         26.3670  -24.4450  -12.8530 O.2     1  UNL1       -0.2700
     16  H         24.6810  -24.3370  -11.0700 H       1  UNL1        0.1690
     17  C         22.5060  -22.8860  -10.7370 C.2     1  UNL1        0.0620
     18  C         18.5800  -22.4290   -8.1810 C.2     1  UNL1        0.0320
     19  C         19.4240  -22.3110   -7.0740 C.2     1  UNL1        0.0170
     20  C         18.8860  -22.2260   -5.7890 C.2     1  UNL1        0.0100
     21  C         17.4980  -22.2640   -5.5930 C.2     1  UNL1       -0.0240
     22  C         16.6490  -22.4230   -6.7040 C.2     1  UNL1       -0.0470
     23  C         16.9440  -22.2150   -4.1870 C.3     1  UNL1        0.3090
     24  C         17.1930  -22.4970   -7.9960 C.2     1  UNL1        0.0240
     25  C         15.1500  -22.4640   -6.5160 C.3     1  UNL1        0.0740
     26  C         14.7200  -22.7020   -5.0540 C.3     1  UNL1        0.2210
     27  C         14.7290  -24.1890   -4.6830 C.3     1  UNL1        0.0430
     28  N         15.5150  -21.8840   -4.1240 N.3     1  UNL1        0.0920
     29  H         15.4150  -20.9040   -4.3890 H       1  UNL1        0.3160
@<TRIPOS>BOND
     1     9    11    1
     2     9     8    1
     3    11    12    1
     4    11    13    1
     5     7     8    2
     6     7     6    1
     7     8    10    1
     8    15    13    2
     9    13    14   am
    10     6     5    2
    11    10    14    1
    12    10    17    2
    13    14    16    1
    14    17     5    1
    15     5     1    1
    16     3     2    2
    17     1     2   am
    18     1     4    1
    19     2    18    1
    20    18    24    2
    21    18    19    1
    22    24    22    1
    23    19    20    2
    24    22    25    1
    25    22    21    2
    26    25    26    1
    27    20    21    1
    28    21    23    1
    29    26    27    1
    30    26    28    1
    31    29    28    1
    32    23    28    1
