@<TRIPOS>MOLECULE
72625_out_ligand_01.pdbqt
 33 36 0 0 0
SMALL
GASTEIGER

@<TRIPOS>ATOM
      1  C         19.4450  -21.1020  -12.0660 C.3     1  UNL1        0.0490
      2  C         18.6660  -21.7580  -10.9590 C.2     1  UNL1       -0.0460
      3  C         17.2970  -21.4770  -10.8250 C.2     1  UNL1        0.0090
      4  C         16.5490  -22.0410   -9.7870 C.2     1  UNL1        0.0250
      5  C         17.1700  -22.8920   -8.8700 C.2     1  UNL1        0.0750
      6  C         18.5210  -23.2180   -9.0030 C.2     1  UNL1        0.0420
      7  C         19.2610  -22.6540  -10.0490 C.2     1  UNL1        0.0390
      8  C         20.6940  -23.0210  -10.1270 C.2     1  UNL1        0.2560
      9  O         21.0520  -24.0580   -9.5840 O.2     1  UNL1       -0.2670
     10  N         21.4580  -22.1340  -10.8570 N.am    1  UNL1       -0.3220
     11  H         20.9640  -21.3670  -11.2990 H       1  UNL1        0.1690
     12  C         22.8490  -22.2050  -11.0920 C.2     1  UNL1        0.0530
     13  C         23.6990  -21.4190  -10.3010 C.2     1  UNL1        0.1480
     14  N         25.0530  -21.3580  -10.3720 N.2     1  UNL1       -0.2390
     15  C         25.5460  -22.1670  -11.3280 C.2     1  UNL1        0.1550
     16  N         26.8600  -22.3350  -11.6540 N.pl3   1  UNL1       -0.2610
     17  C         24.8340  -22.9950  -12.1810 C.2     1  UNL1        0.0330
     18  N         27.0660  -23.2160  -12.6560 N.2     1  UNL1       -0.1850
     19  H         27.6550  -21.8760  -11.2260 H       1  UNL1        0.1910
     20  C         25.8270  -23.6120  -12.9720 C.2     1  UNL1        0.1540
     21  C         23.4340  -23.0210  -12.0640 C.2     1  UNL1        0.0480
     22  S         16.2170  -23.6160   -7.5580 S.O2    1  UNL1        0.2460
     23  O         15.5940  -24.8200   -8.0600 O.2     1  UNL1       -0.2060
     24  O         15.4280  -22.5510   -6.9740 O.2     1  UNL1       -0.2060
     25  N         17.4110  -24.0010   -6.4160 N.pl3   1  UNL1       -0.1780
     26  H         18.2190  -24.3780   -6.9140 H       1  UNL1        0.1460
     27  C         17.7190  -22.9880   -5.4530 C.2     1  UNL1        0.0610
     28  C         18.5560  -21.9260   -5.7910 C.2     1  UNL1        0.0270
     29  C         18.9110  -20.9870   -4.8180 C.2     1  UNL1        0.0020
     30  C         18.4330  -21.1110   -3.5110 C.2     1  UNL1        0.0030
     31  C         17.5980  -22.1750   -3.1710 C.2     1  UNL1        0.0440
     32  C         17.2500  -23.1080   -4.1420 C.2     1  UNL1        0.1380
     33  F         16.4450  -24.1300   -3.8140 F       1  UNL1       -0.2040
@<TRIPOS>BOND
     1    20    18    2
     2    20    17    1
     3    18    16    1
     4    17    21    1
     5    17    15    2
     6     1     2    1
     7    21    12    2
     8    16    15    1
     9    16    19    1
    10    15    14    1
    11    11    10    1
    12    12    10    1
    13    12    13    1
    14     2     3    2
    15     2     7    1
    16    10     8   am
    17     3     4    1
    18    14    13    2
    19     8     7    1
    20     8     9    2
    21     7     6    2
    22     4     5    2
    23     6     5    1
    24     5    22    1
    25    23    22    2
    26    22    24    2
    27    22    25    1
    28    26    25    1
    29    25    27    1
    30    28    27    2
    31    28    29    1
    32    27    32    1
    33    29    30    2
    34    32    33    1
    35    32    31    2
    36    30    31    1
