@<TRIPOS>MOLECULE
72624_out_ligand_01.pdbqt
 33 36 0 0 0
SMALL
GASTEIGER

@<TRIPOS>ATOM
      1  C         19.0160  -21.0320  -12.1460 C.3     1  UNL1        0.0490
      2  C         18.3590  -21.6900  -10.9630 C.2     1  UNL1       -0.0460
      3  C         16.9980  -21.4440  -10.7160 C.2     1  UNL1        0.0090
      4  C         16.3440  -22.0620   -9.6480 C.2     1  UNL1        0.0250
      5  C         17.0470  -22.9420   -8.8220 C.2     1  UNL1        0.0750
      6  C         18.4070  -23.1790   -9.0260 C.2     1  UNL1        0.0420
      7  C         19.0620  -22.5410  -10.0860 C.2     1  UNL1        0.0390
      8  C         20.5100  -22.8210  -10.2420 C.2     1  UNL1        0.2560
      9  O         20.9320  -23.9090   -9.8770 O.2     1  UNL1       -0.2670
     10  N         21.2330  -21.7660  -10.7560 N.am    1  UNL1       -0.3220
     11  H         20.7320  -20.9020  -10.9210 H       1  UNL1        0.1690
     12  C         22.6170  -21.7480  -11.0320 C.2     1  UNL1        0.0530
     13  C         23.6100  -21.3860  -10.1180 C.2     1  UNL1        0.1480
     14  N         24.9500  -21.3690  -10.3530 N.2     1  UNL1       -0.2400
     15  C         25.2640  -21.7460  -11.6040 C.2     1  UNL1        0.1370
     16  N         26.5380  -21.8110  -12.0960 N.pl3   1  UNL1       -0.3500
     17  C         24.3920  -22.1300  -12.6150 C.2     1  UNL1        0.0130
     18  C         26.5100  -22.2310  -13.4030 C.2     1  UNL1        0.0900
     19  H         27.3560  -21.5770  -11.5540 H       1  UNL1        0.1660
     20  C         25.1900  -22.4370  -13.7510 C.2     1  UNL1        0.0320
     21  C         23.0190  -22.1330  -12.3190 C.2     1  UNL1        0.0460
     22  S         16.2210  -23.7350   -7.4610 S.O2    1  UNL1        0.2460
     23  O         15.6670  -24.9820   -7.9420 O.2     1  UNL1       -0.2060
     24  O         15.3810  -22.7370   -6.8330 O.2     1  UNL1       -0.2060
     25  N         17.4790  -24.0620   -6.3810 N.pl3   1  UNL1       -0.1780
     26  H         17.3800  -24.9970   -5.9790 H       1  UNL1        0.1460
     27  C         17.8580  -23.0400   -5.4550 C.2     1  UNL1        0.0610
     28  C         18.6310  -21.9520   -5.8580 C.2     1  UNL1        0.0270
     29  C         18.9520  -20.9500   -4.9380 C.2     1  UNL1        0.0020
     30  C         18.4990  -21.0330   -3.6180 C.2     1  UNL1        0.0030
     31  C         17.7270  -22.1200   -3.2130 C.2     1  UNL1        0.0440
     32  C         17.4130  -23.1140   -4.1330 C.2     1  UNL1        0.1380
     33  F         16.6630  -24.1570   -3.7440 F       1  UNL1       -0.2040
@<TRIPOS>BOND
     1    20    18    2
     2    20    17    1
     3    18    16    1
     4    17    21    1
     5    17    15    2
     6    21    12    2
     7     1     2    1
     8    16    15    1
     9    16    19    1
    10    15    14    1
    11    12    10    1
    12    12    13    1
    13     2     3    2
    14     2     7    1
    15    11    10    1
    16    10     8   am
    17     3     4    1
    18    14    13    2
    19     8     7    1
    20     8     9    2
    21     7     6    2
    22     4     5    2
    23     6     5    1
    24     5    22    1
    25    23    22    2
    26    22    24    2
    27    22    25    1
    28    25    26    1
    29    25    27    1
    30    28    27    2
    31    28    29    1
    32    27    32    1
    33    29    30    2
    34    32    33    1
    35    32    31    2
    36    30    31    1
