@<TRIPOS>MOLECULE
72628_out_ligand_01.pdbqt
 30 33 0 0 0
SMALL
GASTEIGER

@<TRIPOS>ATOM
      1  C         20.4090  -22.4800  -10.2760 C.2     1  UNL1       -0.0200
      2  C         20.3160  -21.5600  -11.3350 C.2     1  UNL1        0.0100
      3  C         19.0750  -21.0930  -11.7850 C.2     1  UNL1        0.0020
      4  C         17.8980  -21.5270  -11.1800 C.2     1  UNL1        0.0170
      5  C         17.9680  -22.4160  -10.1070 C.2     1  UNL1        0.0320
      6  C         19.2080  -22.9040   -9.6710 C.2     1  UNL1        0.0270
      7  C         16.7410  -22.9160   -9.4480 C.2     1  UNL1        0.2540
      8  O         16.0560  -23.7240  -10.0710 O.2     1  UNL1       -0.2670
      9  N         16.4210  -22.4610   -8.1730 N.am    1  UNL1       -0.3430
     10  C         15.1330  -22.8220   -7.5970 C.3     1  UNL1        0.1310
     11  C         17.3510  -21.7740   -7.2730 C.3     1  UNL1        0.1660
     12  C         15.3350  -23.7740   -6.4240 C.3     1  UNL1        0.0620
     13  C         16.3120  -23.1950   -5.4310 C.2     1  UNL1       -0.0090
     14  C         16.2830  -23.6370   -4.1040 C.2     1  UNL1        0.1230
     15  C         17.2820  -22.2460   -5.8320 C.2     1  UNL1       -0.0130
     16  F         15.3820  -24.5530   -3.7250 F       1  UNL1       -0.2060
     17  C         17.1710  -23.1410   -3.1580 C.2     1  UNL1        0.0440
     18  C         18.1130  -22.1880   -3.5340 C.2     1  UNL1        0.0230
     19  C         18.1700  -21.7430   -4.8600 C.2     1  UNL1        0.0190
     20 BR         19.4870  -20.4370   -5.2780 Br      1  UNL1       -0.0500
     21  C         21.7370  -23.0380   -9.7740 C.3     1  UNL1        0.1390
     22  C         21.5720  -24.3640   -9.0260 C.3     1  UNL1        0.0540
     23  N         22.6690  -23.1800  -10.8790 N.am    1  UNL1       -0.3210
     24  C         23.7970  -22.4160  -10.7250 C.2     1  UNL1        0.3240
     25  H         22.4710  -23.6300  -11.7620 H       1  UNL1        0.1650
     26  O         24.6890  -22.3110  -11.5470 O.2     1  UNL1       -0.2470
     27  N         23.7440  -21.8000   -9.5260 N.am    1  UNL1       -0.2770
     28  C         22.5750  -22.0830   -8.8890 C.2     1  UNL1        0.2580
     29  H         24.4550  -21.1810   -9.1780 H       1  UNL1        0.1730
     30  O         22.2690  -21.6440   -7.7890 O.2     1  UNL1       -0.2700
@<TRIPOS>BOND
     1     3     2    1
     2     3     4    2
     3    25    23    1
     4    26    24    2
     5     2     1    2
     6     4     5    1
     7    23    24   am
     8    23    21    1
     9    24    27   am
    10     1    21    1
    11     1     6    1
    12     5     6    2
    13     5     7    1
    14     8     7    2
    15    21    22    1
    16    21    28    1
    17    27    29    1
    18    27    28   am
    19     7     9   am
    20    28    30    2
    21     9    10    1
    22     9    11    1
    23    10    12    1
    24    11    15    1
    25    12    13    1
    26    15    13    2
    27    15    19    1
    28    13    14    1
    29    20    19    1
    30    19    18    2
    31    14    16    1
    32    14    17    2
    33    18    17    1
