@<TRIPOS>MOLECULE
72623_out_ligand_01.pdbqt
 27 31 0 0 0
SMALL
GASTEIGER

@<TRIPOS>ATOM
      1  C         20.9030  -21.9980   -9.9470 C.3     1  UNL1        0.1830
      2  C         21.5350  -23.1120  -10.8270 C.3     1  UNL1        0.3090
      3  N         23.0200  -23.1800  -10.7550 N.3     1  UNL1        0.0970
      4  C         23.4050  -23.2020   -9.3270 C.3     1  UNL1        0.2990
      5  C         22.7670  -22.0810   -8.4880 C.3     1  UNL1        0.1990
      6  O         21.3390  -22.0970   -8.5800 O.3     1  UNL1       -0.3780
      7  C         23.6830  -22.0770  -11.4680 C.3     1  UNL1        0.3150
      8  C         24.3220  -22.5780  -12.7180 C.2     1  UNL1        0.0150
      9  C         24.9280  -23.8400  -12.9280 C.2     1  UNL1        0.1490
     10  N         25.4200  -23.9850  -14.1620 N.2     1  UNL1       -0.1840
     11  N         25.1370  -22.8100  -14.7430 N.pl3   1  UNL1       -0.2700
     12  C         24.4610  -21.9390  -13.9370 C.2     1  UNL1        0.0680
     13  C         25.4360  -22.5730  -16.1400 C.3     1  UNL1        0.1810
     14  C         24.0690  -20.5950  -14.4230 C.3     1  UNL1        0.3290
     15  N         23.9410  -20.5760  -15.8880 N.3     1  UNL1        0.0900
     16  C         25.1650  -21.1120  -16.5110 C.3     1  UNL1        0.2910
     17  H         23.1470  -21.1600  -16.1430 H       1  UNL1        0.3160
     18  C         19.3800  -22.0000  -10.0300 C.2     1  UNL1       -0.0170
     19  C         18.5290  -22.7500   -9.1620 C.2     1  UNL1       -0.0170
     20  C         18.9850  -23.5600   -8.0950 C.2     1  UNL1        0.0130
     21  C         17.1240  -22.6920   -9.3690 C.2     1  UNL1       -0.0250
     22  C         18.1060  -24.2770   -7.2760 C.2     1  UNL1        0.0010
     23  C         16.7400  -24.2090   -7.5010 C.2     1  UNL1        0.0010
     24  C         16.2540  -23.4200   -8.5410 C.2     1  UNL1        0.0120
     25  C         16.5950  -21.9100  -10.4050 C.2     1  UNL1        0.0120
     26  C         17.4270  -21.1810  -11.2460 C.2     1  UNL1        0.0020
     27  C         18.8040  -21.2300  -11.0620 C.2     1  UNL1        0.0110
@<TRIPOS>BOND
     1    16    13    1
     2    16    15    1
     3    17    15    1
     4    13    11    1
     5    15    14    1
     6    11    10    1
     7    11    12    1
     8    14    12    1
     9    10     9    2
    10    12     8    2
    11     9     8    1
    12     8     7    1
    13     7     3    1
    14    26    27    1
    15    26    25    2
    16    27    18    2
    17     2     3    1
    18     2     1    1
    19     3     4    1
    20    25    21    1
    21    18     1    1
    22    18    19    1
    23     1     6    1
    24    21    19    2
    25    21    24    1
    26     4     5    1
    27    19    20    1
    28     6     5    1
    29    24    23    2
    30    20    22    2
    31    23    22    1
