@<TRIPOS>MOLECULE
72631_out_ligand_01.pdbqt
 25 27 0 0 0
SMALL
GASTEIGER

@<TRIPOS>ATOM
      1  C         17.4650  -22.3860   -9.8590 C.2     1  UNL1        0.2560
      2  O         16.4820  -21.8420  -10.3520 O.2     1  UNL1       -0.2670
      3  N         17.4100  -23.2220   -8.7620 N.am    1  UNL1       -0.3470
      4  C         16.1460  -23.4840   -8.0960 C.3     1  UNL1        0.1270
      5  C         16.4790  -24.5170   -7.0280 C.3     1  UNL1        0.0310
      6  C         17.9400  -24.2200   -6.6660 C.3     1  UNL1        0.0380
      7  C         18.5310  -23.7820   -8.0150 C.3     1  UNL1        0.1350
      8  C         18.7780  -22.1510  -10.4770 C.2     1  UNL1        0.0710
      9  C         18.8870  -21.2390  -11.5220 C.2     1  UNL1        0.1320
     10  C         20.1150  -21.0300  -12.1420 C.2     1  UNL1        0.0440
     11  F         17.8270  -20.5310  -11.9370 F       1  UNL1       -0.2050
     12  C         21.2450  -21.7340  -11.7110 C.2     1  UNL1        0.0200
     13  C         21.1430  -22.6480  -10.6510 C.2     1  UNL1        0.0330
     14  C         19.8980  -22.8670  -10.0430 C.2     1  UNL1        0.0370
     15  C         22.3090  -23.4240  -10.1470 C.2     1  UNL1        0.2490
     16  N         23.4810  -23.3500  -10.8480 N.am    1  UNL1       -0.3660
     17  H         24.2790  -23.8040  -10.4220 H       1  UNL1        0.1590
     18  H         23.6710  -22.6420  -11.5420 H       1  UNL1        0.1590
     19  O         22.2410  -24.0810   -9.1180 O.2     1  UNL1       -0.2680
     20  C         18.0500  -23.2120   -5.5330 C.2     1  UNL1       -0.0520
     21  C         17.5870  -23.4630   -4.2330 C.2     1  UNL1        0.0070
     22  C         17.7260  -22.5050   -3.2260 C.2     1  UNL1        0.0010
     23  C         18.3340  -21.2830   -3.5000 C.2     1  UNL1        0.0000
     24  C         18.8090  -21.0200   -4.7820 C.2     1  UNL1        0.0010
     25  C         18.6710  -21.9780   -5.7890 C.2     1  UNL1        0.0070
@<TRIPOS>BOND
     1    10    12    2
     2    10     9    1
     3    11     9    1
     4    12    13    1
     5    18    16    1
     6     9     8    2
     7    16    17    1
     8    16    15   am
     9    13    15    1
    10    13    14    2
    11     8    14    1
    12     8     1    1
    13     2     1    2
    14    15    19    2
    15     1     3   am
    16     3     4    1
    17     3     7    1
    18     4     5    1
    19     7     6    1
    20     5     6    1
    21     6    20    1
    22    25    20    2
    23    25    24    1
    24    20    21    1
    25    24    23    2
    26    21    22    2
    27    23    22    1
