@<TRIPOS>MOLECULE
72637_out_ligand_01.pdbqt
 29 31 0 0 0
SMALL
GASTEIGER

@<TRIPOS>ATOM
      1  C         20.5100  -23.1210   -9.7210 C.2     1  UNL1        0.2570
      2  O         20.4750  -24.3390   -9.5990 O.2     1  UNL1       -0.2670
      3  N         19.8530  -22.1790   -8.9570 N.am    1  UNL1       -0.3230
      4  H         19.9450  -21.2110   -9.2450 H       1  UNL1        0.1690
      5  C         21.2810  -22.5800  -10.8670 C.2     1  UNL1        0.0510
      6  C         20.7500  -21.7130  -11.8320 C.2     1  UNL1        0.0260
      7  C         21.5680  -21.2350  -12.8660 C.2     1  UNL1        0.0210
      8 BR         18.9570  -21.0870  -11.8000 Br      1  UNL1       -0.0500
      9  C         22.9130  -21.6050  -12.9310 C.2     1  UNL1        0.0260
     10  C         23.4420  -22.4510  -11.9550 C.2     1  UNL1        0.0750
     11  C         22.6340  -22.9440  -10.9270 C.2     1  UNL1        0.0430
     12  S         25.1470  -22.9360  -12.0160 S.O2    1  UNL1        0.2390
     13  O         25.5710  -23.2670  -10.6750 O.2     1  UNL1       -0.2060
     14  O         25.8420  -21.9800  -12.8410 O.2     1  UNL1       -0.2060
     15  N         25.0680  -24.3990  -12.8380 N.3     1  UNL1       -0.2250
     16  H         24.0970  -24.5970  -13.0850 H       1  UNL1        0.1360
     17  H         25.6910  -24.4690  -13.6410 H       1  UNL1        0.1360
     18  C         19.0610  -22.4040   -7.8130 C.2     1  UNL1        0.0350
     19  C         19.5030  -21.8390   -6.6120 C.2     1  UNL1        0.0300
     20  C         18.7800  -22.0120   -5.4280 C.2     1  UNL1        0.0100
     21  C         17.5950  -22.7600   -5.4190 C.2     1  UNL1       -0.0440
     22  C         17.1460  -23.3230   -6.6250 C.2     1  UNL1        0.0180
     23  C         16.8520  -22.9570   -4.1260 C.3     1  UNL1        0.0390
     24  C         17.8830  -23.1540   -7.8100 C.2     1  UNL1        0.0450
     25  C         15.8950  -24.1300   -6.7080 C.2     1  UNL1        0.1600
     26  O         15.8750  -25.1170   -7.4450 O.2     1  UNL1       -0.2920
     27  C         14.6680  -23.7550   -5.8920 C.3     1  UNL1        0.0840
     28  C         14.6560  -22.3410   -5.3230 C.3     1  UNL1        0.0080
     29  C         15.5390  -22.1780   -4.0840 C.3     1  UNL1        0.0050
@<TRIPOS>BOND
     1    17    15    1
     2    16    15    1
     3     9     7    2
     4     9    10    1
     5     7     6    1
     6    14    12    2
     7    15    12    1
     8    12    10    1
     9    12    13    2
    10    10    11    2
    11     6     8    1
    12     6     5    2
    13    11     5    1
    14     5     1    1
    15     1     2    2
    16     1     3   am
    17     4     3    1
    18     3    18    1
    19    18    24    2
    20    18    19    1
    21    24    22    1
    22    26    25    2
    23    25    22    1
    24    25    27    1
    25    22    21    2
    26    19    20    2
    27    27    28    1
    28    20    21    1
    29    21    23    1
    30    28    29    1
    31    23    29    1
