@<TRIPOS>MOLECULE
72632_out_ligand_01.pdbqt
 34 37 0 0 0
SMALL
GASTEIGER

@<TRIPOS>ATOM
      1  O         20.5600  -24.3310   -9.5560 O.2     1  UNL1       -0.2650
      2  C         19.9710  -23.2660   -9.7200 C.2     1  UNL1        0.2800
      3  N         20.5740  -22.1150  -10.2150 N.am    1  UNL1       -0.3210
      4  H         19.9880  -21.2950  -10.2930 H       1  UNL1        0.1690
      5  C         18.5580  -23.1050   -9.3960 C.2     1  UNL1        0.1440
      6  C         17.4180  -22.8910  -10.1490 C.2     1  UNL1        0.0460
      7  C         16.3310  -22.8180   -9.2400 C.2     1  UNL1        0.0410
      8  C         16.8510  -22.9940   -7.9740 C.2     1  UNL1        0.0890
      9  O         18.2050  -23.1650   -8.0740 O.2     1  UNL1       -0.3040
     10  C         16.3040  -23.0330   -6.6120 C.2     1  UNL1        0.0310
     11  C         15.3480  -24.0180   -6.2940 C.2     1  UNL1        0.0170
     12  C         14.8000  -24.1140   -5.0160 C.2     1  UNL1        0.0010
     13  C         15.2000  -23.2240   -4.0290 C.2     1  UNL1        0.0030
     14  C         16.1430  -22.2350   -4.3170 C.2     1  UNL1        0.0380
     15  C         16.7000  -22.1260   -5.6010 C.2     1  UNL1        0.0910
     16  O         17.6150  -21.1690   -5.9580 O.2     1  UNL1       -0.2540
     17  C         18.8630  -21.1330   -5.2910 C.3     1  UNL1        0.5300
     18  F         19.1280  -19.8530   -4.9470 F       1  UNL1       -0.1440
     19  F         18.8400  -21.8750   -4.1640 F       1  UNL1       -0.1440
     20  F         19.8580  -21.5610   -6.0970 F       1  UNL1       -0.1440
     21  C         21.9110  -21.9470  -10.6310 C.2     1  UNL1        0.0360
     22  C         23.0070  -21.9160   -9.7710 C.2     1  UNL1        0.0310
     23  C         24.3030  -21.7630  -10.2760 C.2     1  UNL1        0.0220
     24  C         24.5260  -21.6280  -11.6500 C.2     1  UNL1        0.0260
     25 BR         26.3370  -21.5110  -12.2070 Br      1  UNL1       -0.0500
     26  C         23.4340  -21.6330  -12.5260 C.2     1  UNL1        0.0510
     27  C         22.1370  -21.8080  -12.0060 C.2     1  UNL1        0.0480
     28  C         23.5150  -21.4810  -14.0030 C.2     1  UNL1        0.2530
     29  O         22.9200  -20.5530  -14.5430 O.2     1  UNL1       -0.2680
     30  N         24.3280  -22.3680  -14.6760 N.am    1  UNL1       -0.3520
     31  H         24.7650  -23.1260  -14.1640 H       1  UNL1        0.1630
     32  C         24.5020  -22.3220  -16.0930 C.3     1  UNL1        0.0840
     33  C         24.4660  -23.5840  -16.9100 C.3     1  UNL1        0.0270
     34  C         25.7610  -22.8490  -16.7210 C.3     1  UNL1        0.0270
@<TRIPOS>BOND
     1    33    34    1
     2    33    32    1
     3    34    32    1
     4    32    30    1
     5    30    31    1
     6    30    28   am
     7    29    28    2
     8    28    26    1
     9    26    27    1
    10    26    24    2
    11    25    24    1
    12    27    21    2
    13    24    23    1
    14    21     3    1
    15    21    22    1
    16     4     3    1
    17    23    22    2
    18     3     2   am
    19     6     5    2
    20     6     7    1
    21     2     1    2
    22     2     5    1
    23     5     9    1
    24     7     8    2
    25     9     8    1
    26     8    10    1
    27    10    11    2
    28    10    15    1
    29    11    12    1
    30    20    17    1
    31    16    15    1
    32    16    17    1
    33    15    14    2
    34    17    18    1
    35    17    19    1
    36    12    13    2
    37    14    13    1
