@<TRIPOS>MOLECULE
72630_out_ligand_01.pdbqt
 30 33 0 0 0
SMALL
GASTEIGER

@<TRIPOS>ATOM
      1  C         21.1870  -22.2710  -10.6390 C.2     1  UNL1       -0.0200
      2  C         21.2790  -21.1410  -11.4800 C.2     1  UNL1        0.0100
      3  C         20.1410  -20.5470  -12.0370 C.2     1  UNL1        0.0020
      4  C         18.8790  -21.0600  -11.7560 C.2     1  UNL1        0.0170
      5  C         18.7630  -22.1570  -10.9020 C.2     1  UNL1        0.0320
      6  C         19.9030  -22.7700  -10.3630 C.2     1  UNL1        0.0270
      7  C         17.4370  -22.7320  -10.5920 C.2     1  UNL1        0.2540
      8  O         16.8590  -23.3300  -11.4970 O.2     1  UNL1       -0.2670
      9  N         16.9200  -22.5800   -9.3100 N.am    1  UNL1       -0.3430
     10  C         15.5460  -22.9820   -9.0490 C.3     1  UNL1        0.1310
     11  C         17.6600  -22.0280   -8.1720 C.3     1  UNL1        0.1660
     12  C         15.5050  -24.0420   -7.9560 C.3     1  UNL1        0.0590
     13  C         16.2420  -23.5730   -6.7240 C.2     1  UNL1       -0.0440
     14  C         15.9190  -24.1280   -5.4780 C.2     1  UNL1        0.0500
     15  C         17.2780  -22.6150   -6.8250 C.2     1  UNL1       -0.0160
     16  C         16.5990  -23.7170   -4.3390 C.2     1  UNL1        0.1180
     17  F         16.2770  -24.2480   -3.1530 F       1  UNL1       -0.2060
     18  C         17.6030  -22.7620   -4.4100 C.2     1  UNL1        0.0620
     19  C         17.9420  -22.2140   -5.6480 C.2     1  UNL1        0.0220
     20 BR         19.3260  -20.9100   -5.6670 Br      1  UNL1       -0.0500
     21  C         22.4490  -22.9020  -10.0550 C.3     1  UNL1        0.1390
     22  C         22.2410  -24.0690   -9.0830 C.3     1  UNL1        0.0540
     23  N         23.3570  -23.3220  -11.1070 N.am    1  UNL1       -0.3210
     24  C         24.5720  -22.6880  -11.0400 C.2     1  UNL1        0.3240
     25  H         23.1250  -23.9510  -11.8640 H       1  UNL1        0.1650
     26  O         25.4840  -22.8390  -11.8310 O.2     1  UNL1       -0.2470
     27  N         24.5690  -21.8550   -9.9750 N.am    1  UNL1       -0.2770
     28  C         23.3520  -21.8560   -9.3610 C.2     1  UNL1        0.2580
     29  H         25.3310  -21.2460   -9.7350 H       1  UNL1        0.1730
     30  O         23.0560  -21.1470   -8.4100 O.2     1  UNL1       -0.2700
@<TRIPOS>BOND
     1     3     4    2
     2     3     2    1
     3    25    23    1
     4    26    24    2
     5     4     5    1
     6     8     7    2
     7     2     1    2
     8    23    24   am
     9    23    21    1
    10    24    27   am
    11     5     7    1
    12     5     6    2
    13     1     6    1
    14     1    21    1
    15     7     9   am
    16    21    28    1
    17    21    22    1
    18    27    29    1
    19    27    28   am
    20    28    30    2
    21     9    10    1
    22     9    11    1
    23    10    12    1
    24    11    15    1
    25    12    13    1
    26    15    13    2
    27    15    19    1
    28    13    14    1
    29    20    19    1
    30    19    18    2
    31    14    16    2
    32    18    16    1
    33    16    17    1
