@<TRIPOS>MOLECULE
72643_out_ligand_01.pdbqt
 29 32 0 0 0
SMALL
GASTEIGER

@<TRIPOS>ATOM
      1  O         20.7910  -24.9220   -9.2340 O.2     1  UNL1       -0.2670
      2  C         20.6190  -23.7840   -8.8180 C.2     1  UNL1        0.2570
      3  N         21.2730  -22.6400   -9.2410 N.am    1  UNL1       -0.3230
      4  H         20.9410  -21.7500   -8.8940 H       1  UNL1        0.1690
      5  C         19.5800  -23.5850   -7.7750 C.2     1  UNL1        0.0510
      6  C         18.5810  -24.5480   -7.6370 C.2     1  UNL1        0.1360
      7  N         17.5770  -24.4830   -6.7210 N.2     1  UNL1       -0.2410
      8  C         17.5800  -23.4190   -5.8950 C.ar    1  UNL1        0.1460
      9  N         16.5640  -23.3460   -4.9560 N.ar    1  UNL1       -0.2920
     10  C         18.5410  -22.4220   -5.9500 C.ar    1  UNL1        0.0790
     11  C         16.4470  -22.3360   -4.0530 C.ar    1  UNL1        0.3280
     12  H         15.8790  -24.0890   -4.9430 H       1  UNL1        0.1720
     13  O         15.5340  -22.2960   -3.2360 O.2     1  UNL1       -0.2470
     14  N         17.4040  -21.3620   -4.1080 N.ar    1  UNL1       -0.2750
     15  C         18.4450  -21.3080   -4.9990 C.ar    1  UNL1        0.2630
     16  H         17.3150  -20.6050   -3.4460 H       1  UNL1        0.1730
     17  O         19.2540  -20.3880   -5.0260 O.2     1  UNL1       -0.2670
     18  C         19.5650  -22.5000   -6.8970 C.2     1  UNL1        0.0390
     19  C         22.3230  -22.5580  -10.1850 C.2     1  UNL1        0.0370
     20  C         23.6180  -23.0080   -9.9540 C.2     1  UNL1        0.0490
     21  C         24.6020  -22.8820  -10.9470 C.2     1  UNL1        0.0240
     22 BR         26.3380  -23.5390  -10.5060 Br      1  UNL1       -0.0500
     23  C         24.3150  -22.2970  -12.2050 C.2     1  UNL1       -0.0080
     24  C         25.2530  -22.1350  -13.2550 C.2     1  UNL1        0.0130
     25  C         22.9950  -21.8370  -12.4290 C.2     1  UNL1       -0.0220
     26  C         24.9020  -21.5470  -14.4710 C.2     1  UNL1        0.0010
     27  C         23.6020  -21.1020  -14.6730 C.2     1  UNL1        0.0010
     28  C         22.6570  -21.2460  -13.6590 C.2     1  UNL1        0.0120
     29  C         22.0250  -21.9730  -11.4200 C.2     1  UNL1        0.0420
@<TRIPOS>BOND
     1    27    26    2
     2    27    28    1
     3    26    24    1
     4    28    25    2
     5    24    23    2
     6    25    23    1
     7    25    29    1
     8    23    21    1
     9    29    19    2
    10    21    22    1
    11    21    20    2
    12    19    20    1
    13    19     3    1
    14     3     4    1
    15     3     2   am
    16     1     2    2
    17     2     5    1
    18     5     6    2
    19     5    18    1
    20     6     7    1
    21    18    10    2
    22     7     8    2
    23    10     8   ar
    24    10    15   ar
    25     8     9   ar
    26    17    15    2
    27    15    14   ar
    28     9    12    1
    29     9    11   ar
    30    14    11   ar
    31    14    16    1
    32    11    13    2
