@<TRIPOS>MOLECULE
72659_out_ligand_01.pdbqt
 34 37 0 0 0
SMALL
GASTEIGER

@<TRIPOS>ATOM
      1  S         23.0360  -22.6520   -9.5290 S.O2    1  UNL1        0.2630
      2  O         24.1640  -23.2810   -8.8770 O.2     1  UNL1       -0.2000
      3  O         22.9450  -21.2100   -9.6420 O.2     1  UNL1       -0.2000
      4  C         21.5580  -23.2430   -8.7470 C.2     1  UNL1        0.0800
      5  C         21.1420  -24.5610   -8.9670 C.2     1  UNL1        0.0280
      6  C         19.9770  -25.0220   -8.3520 C.2     1  UNL1        0.0390
      7  C         19.2350  -24.1700   -7.5310 C.2     1  UNL1        0.0760
      8  C         19.6810  -22.8690   -7.2750 C.2     1  UNL1        0.0390
      9  C         20.8470  -22.4020   -7.8830 C.2     1  UNL1        0.0280
     10  O         18.1090  -24.7010   -6.9430 O.2     1  UNL1       -0.3110
     11  C         17.1530  -23.8100   -6.5100 C.2     1  UNL1        0.0760
     12  C         16.2430  -23.2130   -7.3850 C.2     1  UNL1        0.0370
     13  C         15.2730  -22.3470   -6.8850 C.2     1  UNL1        0.0030
     14  C         15.2070  -22.0850   -5.5140 C.2     1  UNL1        0.0070
     15  C         16.1130  -22.6880   -4.6300 C.2     1  UNL1       -0.0590
     16  C         16.0170  -22.4420   -3.1530 C.3     1  UNL1        0.0480
     17  C         17.0740  -23.5710   -5.1370 C.2     1  UNL1        0.0440
     18  N         22.9850  -23.2850  -11.0930 N.pl3   1  UNL1       -0.2800
     19  H         22.2300  -23.9620  -11.2120 H       1  UNL1        0.1790
     20  C         23.2720  -22.4400  -12.2110 C.2     1  UNL1        0.0560
     21  C         24.5770  -22.4800  -12.7280 C.2     1  UNL1        0.0310
     22  C         24.9350  -21.6950  -13.8230 C.2     1  UNL1        0.0020
     23  C         24.0010  -20.8430  -14.3970 C.2     1  UNL1        0.0010
     24  C         22.7100  -20.7730  -13.8680 C.2     1  UNL1        0.0180
     25  C         22.3190  -21.5700  -12.7740 C.2     1  UNL1        0.0390
     26  C         20.9680  -21.3550  -12.2510 C.3     1  UNL1        0.1580
     27  N         20.2840  -22.2000  -11.4970 N.2     1  UNL1       -0.2110
     28  C         19.1100  -21.5400  -11.2430 C.2     1  UNL1        0.1510
     29  N         19.0310  -20.3160  -11.7750 N.pl3   1  UNL1       -0.1570
     30  N         20.2220  -20.2170  -12.3920 N.3     1  UNL1       -0.2590
     31  H         20.4760  -19.3470  -12.8560 H       1  UNL1        0.1910
     32  C         18.0080  -22.1370  -10.4300 C.3     1  UNL1        0.0510
     33  C         16.7140  -21.3350  -10.5760 C.3     1  UNL1        0.0180
     34  C         17.7750  -23.6030  -10.8000 C.3     1  UNL1        0.0180
@<TRIPOS>BOND
     1    23    24    2
     2    23    22    1
     3    24    25    1
     4    22    21    2
     5    31    30    1
     6    25    26    1
     7    25    20    2
     8    21    20    1
     9    30    26    1
    10    30    29    1
    11    26    27    1
    12    20    18    1
    13    29    28    1
    14    27    28    2
    15    28    32    1
    16    19    18    1
    17    18     1    1
    18    34    32    1
    19    33    32    1
    20     3     1    2
    21     1     2    2
    22     1     4    1
    23     5     4    2
    24     5     6    1
    25     4     9    1
    26     6     7    2
    27     9     8    2
    28     7     8    1
    29     7    10    1
    30    12    13    1
    31    12    11    2
    32    10    11    1
    33    13    14    2
    34    11    17    1
    35    14    15    1
    36    17    15    2
    37    15    16    1
