@<TRIPOS>MOLECULE
72665_out_ligand_01.pdbqt
 28 30 0 0 0
SMALL
GASTEIGER

@<TRIPOS>ATOM
      1  C         20.9130  -23.1380   -9.0330 C.2     1  UNL1        0.2570
      2  O         20.8990  -24.3280   -8.7420 O.2     1  UNL1       -0.2670
      3  N         20.2250  -22.1100   -8.4220 N.am    1  UNL1       -0.3230
      4  H         20.3410  -21.1840   -8.8120 H       1  UNL1        0.1690
      5  C         21.7050  -22.7450  -10.2250 C.2     1  UNL1        0.0510
      6  C         21.1720  -22.1030  -11.3520 C.2     1  UNL1        0.0260
      7  C         22.0110  -21.7600  -12.4210 C.2     1  UNL1        0.0210
      8 BR         19.3450  -21.6080  -11.5060 Br      1  UNL1       -0.0500
      9  C         23.3790  -22.0380  -12.3660 C.2     1  UNL1        0.0260
     10  C         23.9090  -22.6550  -11.2310 C.2     1  UNL1        0.0750
     11  C         23.0810  -23.0170  -10.1660 C.2     1  UNL1        0.0430
     12  S         25.6430  -23.0170  -11.1440 S.O2    1  UNL1        0.2390
     13  O         25.9720  -23.8720  -12.2610 O.2     1  UNL1       -0.2060
     14  O         26.3500  -21.7910  -10.8670 O.2     1  UNL1       -0.2060
     15  N         25.7240  -23.9830   -9.7700 N.3     1  UNL1       -0.2250
     16  H         25.5710  -24.9750   -9.9490 H       1  UNL1        0.1360
     17  H         26.6120  -23.8150   -9.2920 H       1  UNL1        0.1360
     18  C         19.3880  -22.1940   -7.2890 C.2     1  UNL1        0.0350
     19  C         19.5390  -21.4070   -6.1490 C.2     1  UNL1        0.0300
     20  C         18.6680  -21.5530   -5.0650 C.2     1  UNL1        0.0100
     21  C         17.6230  -22.4860   -5.1050 C.2     1  UNL1       -0.0480
     22  C         17.4530  -23.2720   -6.2590 C.2     1  UNL1       -0.0280
     23  C         16.7240  -22.6630   -3.9050 C.3     1  UNL1        0.0400
     24  C         18.3440  -23.1280   -7.3340 C.2     1  UNL1        0.0410
     25  C         16.3750  -24.2680   -6.3680 C.2     1  UNL1        0.0080
     26  C         15.1110  -24.0170   -5.9880 C.2     1  UNL1       -0.0260
     27  C         14.6370  -22.6920   -5.4640 C.3     1  UNL1        0.0270
     28  C         15.2690  -22.2460   -4.1400 C.3     1  UNL1        0.0080
@<TRIPOS>BOND
     1     7     9    2
     2     7     6    1
     3     9    10    1
     4    13    12    2
     5     8     6    1
     6     6     5    2
     7    10    12    1
     8    10    11    2
     9    12    14    2
    10    12    15    1
    11     5    11    1
    12     5     1    1
    13    16    15    1
    14    15    17    1
    15     1     2    2
    16     1     3   am
    17     4     3    1
    18     3    18    1
    19    24    18    2
    20    24    22    1
    21    18    19    1
    22    25    22    1
    23    25    26    2
    24    22    21    2
    25    19    20    2
    26    26    27    1
    27    27    28    1
    28    21    20    1
    29    21    23    1
    30    28    23    1
