@<TRIPOS>MOLECULE
72663_out_ligand_01.pdbqt
 36 39 0 0 0
SMALL
GASTEIGER

@<TRIPOS>ATOM
      1  C         20.8830  -22.5530  -10.1500 C.2     1  UNL1       -0.0380
      2  C         19.7940  -21.7510  -10.5130 C.2     1  UNL1        0.0090
      3  C         19.7850  -21.0930  -11.7420 C.2     1  UNL1        0.0030
      4  C         20.8610  -21.2310  -12.6230 C.2     1  UNL1        0.0290
      5  C         21.9540  -22.0270  -12.2840 C.2     1  UNL1        0.0350
      6  C         21.9590  -22.6820  -11.0430 C.2     1  UNL1        0.0380
      7  N         23.0780  -22.2250  -13.1150 N.am    1  UNL1       -0.3230
      8  C         23.4770  -21.4500  -14.1890 C.2     1  UNL1        0.2600
      9  O         22.8990  -20.4690  -14.6440 O.2     1  UNL1       -0.2670
     10  H         23.6550  -23.0200  -12.8710 H       1  UNL1        0.1690
     11  C         24.7050  -21.8860  -14.8810 C.2     1  UNL1        0.0790
     12  C         24.5640  -22.7240  -15.9720 C.2     1  UNL1        0.1370
     13  N         25.6020  -23.2370  -16.6690 N.2     1  UNL1       -0.2530
     14  C         26.8190  -22.8750  -16.2430 C.2     1  UNL1        0.2330
     15  N         27.0770  -22.0570  -15.2110 N.2     1  UNL1       -0.2400
     16  C         26.0080  -21.5430  -14.5450 C.2     1  UNL1        0.0850
     17  C         26.3810  -20.6000  -13.4740 C.2     1  UNL1       -0.0060
     18  C         26.3290  -20.9990  -12.1270 C.2     1  UNL1        0.0140
     19  C         26.6530  -20.1120  -11.0970 C.2     1  UNL1        0.0010
     20  C         27.0440  -18.8100  -11.3970 C.2     1  UNL1        0.0000
     21  C         27.1210  -18.3990  -12.7260 C.2     1  UNL1        0.0010
     22  C         26.7970  -19.2880  -13.7550 C.2     1  UNL1        0.0140
     23  C         20.9040  -23.2430   -8.8100 C.3     1  UNL1        0.1630
     24  N         20.1210  -22.5090   -7.8390 N.am    1  UNL1       -0.3390
     25  C         18.9750  -23.0540   -7.2980 C.2     1  UNL1        0.3210
     26  O         18.6220  -24.2030   -7.5310 O.2     1  UNL1       -0.2470
     27  N         18.3360  -22.1520   -6.4820 N.am    1  UNL1       -0.3070
     28  H         18.8020  -21.2680   -6.3260 H       1  UNL1        0.1700
     29  H         20.1530  -21.5050   -7.9180 H       1  UNL1        0.1640
     30  C         17.1300  -22.3240   -5.7580 C.2     1  UNL1        0.0580
     31  C         15.9260  -22.7130   -6.3510 C.2     1  UNL1        0.0310
     32  C         14.7680  -22.8700   -5.5790 C.2     1  UNL1        0.0020
     33  C         14.7980  -22.6380   -4.2070 C.2     1  UNL1        0.0020
     34  C         15.9890  -22.2460   -3.5980 C.2     1  UNL1        0.0260
     35  C         17.1460  -22.0900   -4.3690 C.2     1  UNL1        0.0600
     36 CL         18.6010  -21.5990   -3.5630 Cl      1  UNL1       -0.0820
@<TRIPOS>BOND
     1    13    14    2
     2    13    12    1
     3    14    15    1
     4    12    11    2
     5    15    16    2
     6    11    16    1
     7    11     8    1
     8     9     8    2
     9    16    17    1
    10     8     7   am
    11    22    17    2
    12    22    21    1
    13    17    18    1
    14     7    10    1
    15     7     5    1
    16    21    20    2
    17     4     5    2
    18     4     3    1
    19     5     6    1
    20    18    19    2
    21     3     2    2
    22    20    19    1
    23     6     1    2
    24     2     1    1
    25     1    23    1
    26    23    24    1
    27    29    24    1
    28    24    25   am
    29    26    25    2
    30    25    27   am
    31    27    28    1
    32    27    30    1
    33    31    30    2
    34    31    32    1
    35    30    35    1
    36    32    33    2
    37    35    34    2
    38    35    36    1
    39    33    34    1
