@<TRIPOS>MOLECULE
72676_out_ligand_01.pdbqt
 29 32 0 0 0
SMALL
GASTEIGER

@<TRIPOS>ATOM
      1  C         16.2490  -22.5260   -9.1120 C.3     1  UNL1        0.1530
      2  N         17.5540  -23.0880   -8.8070 N.am    1  UNL1       -0.3480
      3  C         18.4730  -23.1790   -9.8530 C.2     1  UNL1        0.2590
      4  O         18.1390  -22.9850  -11.0210 O.2     1  UNL1       -0.2670
      5  C         19.8570  -23.5110   -9.5650 C.2     1  UNL1        0.0990
      6  C         20.3120  -24.6850   -8.9290 C.2     1  UNL1        0.1600
      7  N         21.6390  -24.7450   -8.8180 N.2     1  UNL1       -0.1780
      8  N         22.0770  -23.6340   -9.4510 N.pl3   1  UNL1       -0.2250
      9  C         23.3960  -23.2510   -9.6600 C.2     1  UNL1        0.1390
     10  C         21.0180  -22.8500   -9.9310 C.2     1  UNL1        0.1670
     11  C         23.6830  -22.1300  -10.3410 C.2     1  UNL1        0.0670
     12  C         22.4930  -21.3640  -10.7980 C.2     1  UNL1        0.1370
     13  N         21.2450  -21.6860  -10.6210 N.2     1  UNL1       -0.2390
     14  C         25.0940  -21.7480  -10.5620 C.2     1  UNL1        0.2520
     15  N         26.0170  -22.7440  -10.4890 N.am    1  UNL1       -0.3660
     16  H         25.8420  -23.6640  -10.1140 H       1  UNL1        0.1590
     17  H         26.9860  -22.4540  -10.5590 H       1  UNL1        0.1590
     18  O         25.4400  -20.5930  -10.7760 O.2     1  UNL1       -0.2680
     19  C         17.7140  -23.7510   -7.5090 C.3     1  UNL1        0.1650
     20  C         18.0050  -22.7900   -6.3730 C.2     1  UNL1       -0.0280
     21  C         19.0770  -21.8760   -6.4930 C.2     1  UNL1        0.0100
     22  C         19.3780  -20.9640   -5.4840 C.2     1  UNL1        0.0030
     23  C         18.6270  -20.9190   -4.3110 C.2     1  UNL1        0.0300
     24  C         17.5670  -21.8230   -4.1880 C.2     1  UNL1        0.0430
     25  N         16.6730  -21.9950   -3.1550 N.pl3   1  UNL1       -0.3650
     26  C         17.2410  -22.7500   -5.1790 C.2     1  UNL1       -0.0000
     27  C         15.7950  -23.0020   -3.4490 C.2     1  UNL1        0.0890
     28  H         16.6690  -21.4490   -2.3030 H       1  UNL1        0.1650
     29  C         16.1210  -23.4880   -4.6940 C.2     1  UNL1        0.0310
@<TRIPOS>BOND
     1     4     3    2
     2    12    13    2
     3    12    11    1
     4    18    14    2
     5    13    10    1
     6    14    15   am
     7    14    11    1
     8    17    15    1
     9    15    16    1
    10    11     9    2
    11    10     5    2
    12    10     8    1
    13     3     5    1
    14     3     2   am
    15     9     8    1
    16     5     6    1
    17     8     7    1
    18     1     2    1
    19     6     7    2
    20     2    19    1
    21    19    20    1
    22    21    20    2
    23    21    22    1
    24    20    26    1
    25    22    23    2
    26    26    29    1
    27    26    24    2
    28    29    27    2
    29    23    24    1
    30    24    25    1
    31    27    25    1
    32    25    28    1
