@<TRIPOS>MOLECULE
72693_out_ligand_01.pdbqt
 35 39 0 0 0
SMALL
GASTEIGER

@<TRIPOS>ATOM
      1  C         19.3040  -21.1880  -11.6620 C.2     1  UNL1        0.0820
      2  C         18.9190  -22.4170  -11.1730 C.2     1  UNL1        0.1380
      3  N         17.6250  -22.2340  -10.7870 N.pl3   1  UNL1       -0.2760
      4  N         17.2350  -20.9600  -10.9890 N.2     1  UNL1        0.0050
      5  N         18.2530  -20.3120  -11.5390 N.2     1  UNL1       -0.1620
      6  C         16.7350  -23.1830  -10.1450 C.3     1  UNL1        0.2250
      7  C         16.5660  -22.8700   -8.6920 C.ar    1  UNL1        0.1320
      8  N         15.3870  -22.6480   -8.1370 N.ar    1  UNL1       -0.2310
      9  C         15.6110  -22.5580   -6.7940 C.ar    1  UNL1        0.0890
     10  C         14.6860  -22.3200   -5.7640 C.2     1  UNL1        0.0340
     11  C         16.9580  -22.7380   -6.4980 C.ar    1  UNL1        0.1080
     12  C         15.1380  -22.2480   -4.4420 C.2     1  UNL1        0.0050
     13  C         16.4920  -22.4000   -4.1570 C.2     1  UNL1        0.0450
     14  C         17.4150  -22.6370   -5.1780 C.2     1  UNL1        0.1450
     15  F         18.7110  -22.7420   -4.8630 F       1  UNL1       -0.2040
     16  N         17.5750  -22.9320   -7.7280 N.ar    1  UNL1       -0.2930
     17  C         18.9540  -23.1960   -7.9470 C.2     1  UNL1        0.0410
     18  C         19.9090  -22.2000   -7.7140 C.2     1  UNL1        0.0300
     19  C         21.2600  -22.4610   -7.9510 C.2     1  UNL1        0.0020
     20  C         21.6610  -23.7130   -8.4140 C.2     1  UNL1        0.0000
     21  C         20.7130  -24.7090   -8.6360 C.2     1  UNL1        0.0020
     22  C         19.3600  -24.4560   -8.4000 C.2     1  UNL1        0.0300
     23  C         20.6130  -20.7460  -12.2280 C.3     1  UNL1        0.1560
     24  N         21.5570  -21.8050  -12.5940 N.pl3   1  UNL1       -0.2710
     25  H         21.6130  -21.8810  -13.6120 H       1  UNL1        0.1290
     26  C         22.8570  -21.6770  -12.0780 C.2     1  UNL1        0.1190
     27  N         23.0130  -21.6610  -10.7290 N.2     1  UNL1       -0.2480
     28  C         24.2630  -21.6430  -10.2140 C.2     1  UNL1        0.1180
     29  C         25.4090  -21.6570  -10.9820 C.2     1  UNL1        0.0200
     30  C         25.2620  -21.6860  -12.3610 C.2     1  UNL1        0.0220
     31  C         23.9770  -21.6890  -12.9230 C.2     1  UNL1        0.0790
     32  C         23.8930  -21.7160  -14.3990 C.2     1  UNL1        0.2960
     33  O         23.2030  -20.9420  -15.0460 O.2     1  UNL1       -0.2590
     34  O         24.6000  -22.7600  -14.9020 O.3     1  UNL1       -0.3220
     35  C         24.4390  -22.9450  -16.3110 C.3     1  UNL1        0.2130
@<TRIPOS>BOND
     1    35    34    1
     2    33    32    2
     3    34    32    1
     4    32    31    1
     5    25    24    1
     6    31    30    1
     7    31    26    2
     8    24    23    1
     9    24    26    1
    10    30    29    2
    11    23     1    1
    12    26    27    1
    13     1     5    1
    14     1     2    2
    15     5     4    2
    16     2     3    1
    17     4     3    1
    18    29    28    1
    19     3     6    1
    20    27    28    2
    21     6     7    1
    22     7     8   ar
    23     7    16   ar
    24    21    20    2
    25    21    22    1
    26    20    19    1
    27    22    17    2
    28     8     9   ar
    29    19    18    2
    30    17    16    1
    31    17    18    1
    32    16    11   ar
    33     9    11   ar
    34     9    10    1
    35    11    14    1
    36    10    12    2
    37    14    15    1
    38    14    13    2
    39    12    13    1
