@<TRIPOS>MOLECULE
72718_out_ligand_01.pdbqt
 33 36 0 0 0
SMALL
GASTEIGER

@<TRIPOS>ATOM
      1  C         23.7630  -23.6420   -9.1740 C.3     1  UNL1        0.1610
      2  C         22.3160  -23.4560   -8.7880 C.2     1  UNL1       -0.0400
      3  C         21.9030  -22.3150   -8.0870 C.2     1  UNL1        0.0100
      4  C         20.5670  -22.1610   -7.7090 C.2     1  UNL1        0.0170
      5  C         19.6340  -23.1520   -8.0340 C.2     1  UNL1        0.0320
      6  C         20.0330  -24.2870   -8.7430 C.2     1  UNL1        0.0170
      7  C         21.3720  -24.4450   -9.1020 C.2     1  UNL1        0.0100
      8  C         18.2050  -23.0060   -7.6600 C.2     1  UNL1        0.2560
      9  O         17.3580  -23.1470   -8.5310 O.2     1  UNL1       -0.2670
     10  N         17.9930  -22.7490   -6.3180 N.am    1  UNL1       -0.3230
     11  H         18.8040  -22.7960   -5.7160 H       1  UNL1        0.1690
     12  C         16.7530  -22.5320   -5.6780 C.2     1  UNL1        0.0370
     13  C         16.7380  -22.5440   -4.2840 C.2     1  UNL1        0.0490
     14  C         15.5340  -22.3300   -3.6310 C.2     1  UNL1        0.1180
     15  N         14.3670  -22.1030   -4.2660 N.2     1  UNL1       -0.2730
     16  C         14.4080  -22.0920   -5.6150 C.2     1  UNL1        0.1180
     17  C         15.5600  -22.2980   -6.3570 C.2     1  UNL1        0.0490
     18  N         23.9890  -23.2310  -10.5380 N.am    1  UNL1       -0.3520
     19  C         24.2780  -21.9240  -10.8560 C.2     1  UNL1        0.2560
     20  O         24.4760  -21.0280  -10.0460 O.2     1  UNL1       -0.2670
     21  H         23.7590  -23.8840  -11.2830 H       1  UNL1        0.1630
     22  C         24.3060  -21.6370  -12.3030 C.2     1  UNL1        0.0860
     23  C         25.5240  -21.3350  -12.9250 C.2     1  UNL1        0.0520
     24 CL         27.0120  -21.2150  -12.0530 Cl      1  UNL1       -0.0830
     25  C         25.5540  -21.0810  -14.2990 C.2     1  UNL1        0.0250
     26  C         24.3770  -21.1360  -15.0430 C.2     1  UNL1        0.0040
     27  C         23.1620  -21.4340  -14.4200 C.2     1  UNL1        0.0380
     28  C         23.1090  -21.6730  -13.0410 C.2     1  UNL1        0.0860
     29  O         21.9690  -21.9860  -12.3520 O.2     1  UNL1       -0.3500
     30  C         20.8690  -21.0740  -12.3600 C.3     1  UNL1        0.1800
     31  C         19.8430  -21.3870  -11.3100 C.3     1  UNL1        0.0100
     32  C         18.5270  -20.6620  -11.1660 C.3     1  UNL1        0.0070
     33  C         18.5510  -22.0750  -11.6770 C.3     1  UNL1        0.0070
@<TRIPOS>BOND
     1    26    27    2
     2    26    25    1
     3    27    28    1
     4    25    23    2
     5    28    29    1
     6    28    22    2
     7    23    22    1
     8    23    24    1
     9    30    29    1
    10    30    31    1
    11    22    19    1
    12    33    31    1
    13    33    32    1
    14    31    32    1
    15    21    18    1
    16    19    18   am
    17    19    20    2
    18    18     1    1
    19     1     2    1
    20     7     2    2
    21     7     6    1
    22     2     3    1
    23     6     5    2
    24     9     8    2
    25     3     4    2
    26     5     4    1
    27     5     8    1
    28     8    10   am
    29    17    12    2
    30    17    16    1
    31    10    11    1
    32    10    12    1
    33    12    13    1
    34    16    15    2
    35    13    14    2
    36    15    14    1
