@<TRIPOS>MOLECULE
72722_out_ligand_01.pdbqt
 28 31 0 0 0
SMALL
GASTEIGER

@<TRIPOS>ATOM
      1  O         16.6440  -21.3850  -10.6210 O.2     1  UNL1       -0.2680
      2  C         17.5140  -22.1690  -10.2680 C.2     1  UNL1        0.2530
      3  N         17.2980  -23.2360   -9.4300 N.am    1  UNL1       -0.3560
      4  H         18.0840  -23.8090   -9.1170 H       1  UNL1        0.1620
      5  C         18.9050  -22.0090  -10.7400 C.2     1  UNL1        0.0600
      6  C         19.1580  -21.0800  -11.7470 C.2     1  UNL1        0.1340
      7  N         20.3870  -20.8280  -12.2640 N.2     1  UNL1       -0.2710
      8  C         21.4090  -21.5620  -11.7640 C.2     1  UNL1        0.1340
      9  C         21.2470  -22.5210  -10.7740 C.2     1  UNL1        0.0610
     10  C         22.4190  -23.2750  -10.2790 C.2     1  UNL1        0.2570
     11  C         19.9730  -22.7650  -10.2400 C.2     1  UNL1       -0.0010
     12  O         23.5440  -23.0830  -10.7240 O.2     1  UNL1       -0.2670
     13  N         22.1680  -24.1980   -9.2880 N.am    1  UNL1       -0.3330
     14  C         20.9290  -24.4410   -8.7580 C.2     1  UNL1        0.0920
     15  H         22.9730  -24.7150   -8.9530 H       1  UNL1        0.1680
     16  C         19.8460  -23.7780   -9.1800 C.2     1  UNL1        0.0300
     17  C         16.0370  -23.4260   -8.7390 C.3     1  UNL1        0.1270
     18  C         16.1450  -24.3990   -7.5610 C.3     1  UNL1        0.0620
     19  C         16.2660  -23.7220   -6.2290 C.2     1  UNL1       -0.0100
     20  C         15.4400  -23.8960   -5.1310 C.2     1  UNL1        0.0980
     21  N         15.9030  -23.1030   -4.1110 N.pl3   1  UNL1       -0.3630
     22  C         17.0160  -22.4110   -4.5190 C.2     1  UNL1        0.0610
     23  H         15.4870  -23.0360   -3.1920 H       1  UNL1        0.1650
     24  C         17.8300  -21.4920   -3.8570 C.2     1  UNL1        0.0330
     25  C         17.2630  -22.7830   -5.8360 C.2     1  UNL1        0.0900
     26  C         18.8930  -20.9800   -4.5960 C.2     1  UNL1        0.0220
     27  C         19.0720  -21.3960   -5.9090 C.2     1  UNL1        0.1170
     28  N         18.2900  -22.2790   -6.5710 N.2     1  UNL1       -0.2580
@<TRIPOS>BOND
     1     7     8    2
     2     7     6    1
     3     8     9    1
     4     6     5    2
     5     9    10    1
     6     9    11    2
     7     5     2    1
     8     5    11    1
     9    12    10    2
    10     1     2    2
    11    10    13   am
    12     2     3   am
    13    11    16    1
    14     3     4    1
    15     3    17    1
    16    13    15    1
    17    13    14    1
    18    16    14    2
    19    17    18    1
    20    18    19    1
    21    28    27    2
    22    28    25    1
    23    19    25    1
    24    19    20    2
    25    27    26    1
    26    25    22    2
    27    20    21    1
    28    26    24    2
    29    22    21    1
    30    22    24    1
    31    21    23    1
