@<TRIPOS>MOLECULE
72747_out_ligand_01.pdbqt
 38 42 0 0 0
SMALL
GASTEIGER

@<TRIPOS>ATOM
      1  O         20.9970  -22.1570  -13.0250 O.2     1  UNL1       -0.2470
      2  C         21.2550  -21.3400  -12.1510 C.2     1  UNL1        0.3210
      3  N         20.3280  -20.4480  -11.6530 N.am    1  UNL1       -0.3390
      4  N         22.4790  -21.1380  -11.5580 N.am    1  UNL1       -0.3060
      5  H         20.4660  -20.1780  -10.6930 H       1  UNL1        0.1640
      6  H         22.5960  -20.2630  -11.0680 H       1  UNL1        0.1710
      7  C         18.9550  -20.4840  -12.1050 C.3     1  UNL1        0.1620
      8  C         18.1060  -21.3580  -11.2190 C.2     1  UNL1       -0.0400
      9  C         16.8820  -20.8980  -10.7210 C.2     1  UNL1        0.0090
     10  C         16.1010  -21.7090   -9.8930 C.2     1  UNL1        0.0090
     11  C         16.5320  -22.9950   -9.5360 C.2     1  UNL1       -0.0400
     12  C         17.7590  -23.4550  -10.0390 C.2     1  UNL1        0.0090
     13  C         18.5440  -22.6380  -10.8580 C.2     1  UNL1        0.0090
     14  C         15.6440  -23.8710   -8.6850 C.3     1  UNL1        0.1680
     15  N         16.1490  -24.0630   -7.3340 N.pl3   1  UNL1       -0.3350
     16  C         17.1850  -24.8890   -6.9930 C.2     1  UNL1        0.2110
     17  N         17.4640  -24.8180   -5.7110 N.2     1  UNL1       -0.2420
     18  C         16.5730  -23.9070   -5.2000 C.2     1  UNL1        0.0850
     19  C         16.4240  -23.4500   -3.8820 C.2     1  UNL1        0.0340
     20  C         15.7340  -23.4100   -6.1970 C.2     1  UNL1        0.0640
     21  C         15.4360  -22.4990   -3.6040 C.2     1  UNL1        0.0020
     22  C         14.6100  -22.0120   -4.6180 C.2     1  UNL1        0.0020
     23  C         14.7390  -22.4580   -5.9390 C.2     1  UNL1        0.0320
     24  C         23.6570  -21.8980  -11.7240 C.2     1  UNL1        0.0710
     25  C         24.1390  -22.3140  -12.9640 C.2     1  UNL1        0.0560
     26  C         25.3020  -23.0890  -13.0340 C.2     1  UNL1        0.0360
     27 CL         25.8930  -23.6000  -14.5680 Cl      1  UNL1       -0.0840
     28  C         25.9890  -23.4620  -11.8800 C.2     1  UNL1        0.0260
     29  C         25.5170  -23.0540  -10.6360 C.2     1  UNL1        0.0410
     30  C         24.3660  -22.2630  -10.5650 C.2     1  UNL1        0.1020
     31  O         23.8850  -21.8740   -9.3330 O.2     1  UNL1       -0.3080
     32  C         22.7300  -22.4790   -8.8780 C.2     1  UNL1        0.0770
     33  C         22.5100  -23.7790   -9.3480 C.2     1  UNL1        0.0370
     34  C         21.3590  -24.4770   -8.9770 C.2     1  UNL1        0.0040
     35  C         20.4220  -23.8760   -8.1390 C.2     1  UNL1        0.0190
     36  C         20.6380  -22.5770   -7.6790 C.2     1  UNL1        0.0130
     37 BR         19.3610  -21.7580   -6.5500 Br      1  UNL1       -0.0510
     38  C         21.7830  -21.8710   -8.0480 C.2     1  UNL1        0.0560
@<TRIPOS>BOND
     1    27    26    1
     2    26    25    1
     3    26    28    2
     4     1     2    2
     5    25    24    2
     6     2     3   am
     7     2     4   am
     8     7     3    1
     9     7     8    1
    10    28    29    1
    11    24     4    1
    12    24    30    1
    13     3     5    1
    14     4     6    1
    15     8    13    2
    16     8     9    1
    17    13    12    1
    18     9    10    2
    19    29    30    2
    20    30    31    1
    21    12    11    2
    22    10    11    1
    23    11    14    1
    24    33    34    1
    25    33    32    2
    26    31    32    1
    27    34    35    2
    28    32    38    1
    29    14    15    1
    30    35    36    1
    31    38    36    2
    32    36    37    1
    33    15    16    1
    34    15    20    1
    35    16    17    2
    36    20    23    1
    37    20    18    2
    38    23    22    2
    39    17    18    1
    40    18    19    1
    41    22    21    1
    42    19    21    2
