@<TRIPOS>MOLECULE
72743_out_ligand_01.pdbqt
 40 43 0 0 0
SMALL
GASTEIGER

@<TRIPOS>ATOM
      1  C         19.6380  -21.9910  -10.1370 C.2     1  UNL1        0.0360
      2  C         19.1190  -21.1510  -11.1280 C.2     1  UNL1        0.0290
      3  C         17.7440  -21.1030  -11.3770 C.2     1  UNL1        0.0040
      4  C         16.8720  -21.8990  -10.6440 C.2     1  UNL1        0.0250
      5  C         17.3880  -22.7480   -9.6620 C.2     1  UNL1        0.0770
      6  C         18.7610  -22.7900   -9.3970 C.2     1  UNL1        0.0540
      7  N         21.0100  -22.0890   -9.8290 N.am    1  UNL1       -0.3270
      8  C         21.7200  -23.2300   -9.4810 C.2     1  UNL1        0.2270
      9  O         21.2700  -24.3680   -9.3840 O.2     1  UNL1       -0.2730
     10  H         21.5530  -21.2390   -9.9210 H       1  UNL1        0.1690
     11  C         23.1840  -22.9510   -9.1950 C.3     1  UNL1        0.1630
     12  C         23.9510  -22.8410  -10.4650 C.2     1  UNL1        0.0520
     13  C         25.2730  -23.1920  -10.6580 C.2     1  UNL1        0.0810
     14  S         25.7270  -22.8830  -12.2760 S.3     1  UNL1       -0.0620
     15  C         24.1430  -22.2740  -12.6150 C.2     1  UNL1        0.1720
     16  N         23.7320  -21.8530  -13.8320 N.pl3   1  UNL1       -0.3200
     17  N         23.3080  -22.3480  -11.5950 N.2     1  UNL1       -0.2280
     18  H         22.7610  -21.5640  -13.8480 H       1  UNL1        0.1690
     19  C         24.4940  -21.0670  -14.7290 C.2     1  UNL1        0.1290
     20  C         25.2160  -19.9910  -14.2040 C.2     1  UNL1        0.0520
     21  C         25.9660  -19.1700  -15.0520 C.2     1  UNL1        0.0290
     22  C         25.9790  -19.4440  -16.4120 C.2     1  UNL1        0.0510
     23 CL         26.8790  -18.4710  -17.4990 Cl      1  UNL1       -0.0830
     24  C         25.2390  -20.5260  -16.8620 C.2     1  UNL1        0.1420
     25  N         24.5080  -21.3340  -16.0520 N.2     1  UNL1       -0.2420
     26  S         16.2720  -23.7670   -8.7300 S.O2    1  UNL1        0.2450
     27  O         17.0720  -24.5560   -7.8220 O.2     1  UNL1       -0.2060
     28  O         15.3350  -24.3740   -9.6560 O.2     1  UNL1       -0.2060
     29  N         15.4060  -22.5650   -7.8730 N.pl3   1  UNL1       -0.1810
     30  H         14.4160  -22.7760   -7.9790 H       1  UNL1        0.1460
     31  C         15.7650  -22.4470   -6.4890 C.2     1  UNL1        0.0230
     32  C         14.9160  -22.9520   -5.5030 C.2     1  UNL1        0.0240
     33  C         15.2780  -22.8570   -4.1600 C.2     1  UNL1        0.0030
     34  C         16.4920  -22.2660   -3.8030 C.2     1  UNL1        0.0160
     35  C         17.3580  -21.7640   -4.7880 C.2     1  UNL1        0.0490
     36  C         16.9810  -21.8600   -6.1380 C.2     1  UNL1        0.0400
     37  C         18.6640  -21.1270   -4.3920 C.3     1  UNL1        0.4170
     38  F         18.6220  -19.7660   -4.3570 F       1  UNL1       -0.1660
     39  F         19.0710  -21.5180   -3.1530 F       1  UNL1       -0.1660
     40  F         19.6830  -21.4480   -5.2350 F       1  UNL1       -0.1660
@<TRIPOS>BOND
     1    23    22    1
     2    24    22    2
     3    24    25    1
     4    22    21    1
     5    25    19    2
     6    21    20    2
     7    19    20    1
     8    19    16    1
     9    18    16    1
    10    16    15    1
    11    15    14    1
    12    15    17    2
    13    14    13    1
    14    17    12    1
    15     3     2    1
    16     3     4    2
    17     2     1    2
    18    13    12    2
    19     4     5    1
    20    12    11    1
    21     1     7    1
    22     1     6    1
    23    10     7    1
    24     7     8   am
    25     5     6    2
    26     5    26    1
    27    28    26    2
    28     8     9    2
    29     8    11    1
    30    26    29    1
    31    26    27    2
    32    30    29    1
    33    29    31    1
    34    31    36    2
    35    31    32    1
    36    36    35    1
    37    32    33    2
    38    40    37    1
    39    35    37    1
    40    35    34    2
    41    37    38    1
    42    37    39    1
    43    33    34    1
