@<TRIPOS>MOLECULE
72748_out_ligand_01.pdbqt
 33 36 0 0 0
SMALL
GASTEIGER

@<TRIPOS>ATOM
      1  C         21.7760  -22.8360  -11.0900 C.2     1  UNL1        0.0230
      2  C         21.2590  -21.8150  -11.8890 C.2     1  UNL1        0.0240
      3  C         20.0020  -21.2770  -11.6040 C.2     1  UNL1        0.0030
      4  C         19.2740  -21.7450  -10.5090 C.2     1  UNL1        0.0170
      5  C         19.8120  -22.7450   -9.6870 C.2     1  UNL1        0.0340
      6  C         21.0640  -23.2940   -9.9840 C.2     1  UNL1        0.0410
      7  C         19.0720  -23.2730   -8.5080 C.2     1  UNL1        0.2560
      8  O         19.3920  -24.3690   -8.0630 O.2     1  UNL1       -0.2670
      9  N         18.0910  -22.4390   -8.0140 N.am    1  UNL1       -0.3210
     10  H         18.0070  -21.5070   -8.4130 H       1  UNL1        0.1690
     11  C         17.2180  -22.6830   -6.9340 C.2     1  UNL1        0.0670
     12  C         16.0290  -23.4220   -7.0130 C.2     1  UNL1        0.0320
     13  C         15.2170  -23.6170   -5.8860 C.2     1  UNL1        0.0050
     14  C         15.5510  -23.0850   -4.6370 C.2     1  UNL1        0.0330
     15  C         16.7330  -22.3480   -4.5800 C.ar    1  UNL1        0.0780
     16  N         17.3810  -21.6870   -3.5760 N.ar    1  UNL1       -0.2800
     17  C         17.5570  -22.1390   -5.6770 C.ar    1  UNL1        0.1290
     18  N         18.5110  -21.1020   -4.0050 N.ar    1  UNL1        0.0030
     19  H         17.1200  -21.5890   -2.6020 H       1  UNL1        0.1840
     20  N         18.6350  -21.3750   -5.2980 N.ar    1  UNL1       -0.1560
     21  N         23.0860  -23.3600  -11.3480 N.pl3   1  UNL1       -0.1810
     22  H         23.2280  -23.5110  -12.3470 H       1  UNL1        0.1460
     23  S         24.3490  -22.3370  -10.8170 S.O2    1  UNL1        0.2460
     24  O         23.6980  -21.2360  -10.1350 O.2     1  UNL1       -0.2060
     25  O         25.3880  -23.1120  -10.1770 O.2     1  UNL1       -0.2060
     26  C         24.9770  -21.7310  -12.3760 C.2     1  UNL1        0.0810
     27  C         25.8910  -20.6630  -12.4440 C.2     1  UNL1       -0.0390
     28  C         26.3180  -20.2370  -13.7130 C.2     1  UNL1        0.0090
     29  C         26.4050  -19.9320  -11.2350 C.3     1  UNL1        0.0500
     30  C         25.8590  -20.8600  -14.8780 C.2     1  UNL1        0.0070
     31  C         24.9630  -21.9290  -14.8050 C.2     1  UNL1       -0.0600
     32  C         24.4380  -22.5690  -16.0570 C.3     1  UNL1        0.0480
     33  C         24.5120  -22.3500  -13.5490 C.2     1  UNL1        0.0320
@<TRIPOS>BOND
     1    32    31    1
     2    30    31    2
     3    30    28    1
     4    31    33    1
     5    28    27    2
     6    33    26    2
     7    27    26    1
     8    27    29    1
     9    26    23    1
    10    22    21    1
    11     2     3    1
    12     2     1    2
    13     3     4    2
    14    21     1    1
    15    21    23    1
    16     1     6    1
    17    23    25    2
    18    23    24    2
    19     4     5    1
    20     6     5    2
    21     5     7    1
    22     7     8    2
    23     7     9   am
    24    10     9    1
    25     9    11    1
    26    12    11    2
    27    12    13    1
    28    11    17    1
    29    13    14    2
    30    17    20   ar
    31    17    15   ar
    32    20    18   ar
    33    14    15    1
    34    15    16   ar
    35    18    16   ar
    36    16    19    1
