@<TRIPOS>MOLECULE
72759_out_ligand_01.pdbqt
 38 42 0 0 0
SMALL
GASTEIGER

@<TRIPOS>ATOM
      1  N         22.3220  -23.6780   -9.7860 N.am    1  UNL1       -0.3260
      2  C         23.3730  -22.7910   -9.5920 C.2     1  UNL1        0.2500
      3  O         23.3260  -21.7370   -8.9620 O.2     1  UNL1       -0.2710
      4  H         22.5300  -24.5260  -10.3020 H       1  UNL1        0.1690
      5  C         20.9840  -23.5240   -9.3780 C.2     1  UNL1        0.0340
      6  C         20.5090  -24.4230   -8.4120 C.2     1  UNL1        0.0310
      7  C         19.1910  -24.3490   -7.9540 C.2     1  UNL1        0.0270
      8  C         18.3380  -23.3760   -8.4740 C.2     1  UNL1        0.0790
      9  C         18.7910  -22.4790   -9.4430 C.2     1  UNL1        0.0270
     10  C         20.1160  -22.5530   -9.8870 C.2     1  UNL1        0.0310
     11  S         16.6660  -23.2670   -7.8890 S.O2    1  UNL1        0.2610
     12  O         15.9380  -24.4090   -8.4020 O.2     1  UNL1       -0.2000
     13  O         16.2190  -21.9140   -8.1320 O.2     1  UNL1       -0.2000
     14  N         16.8280  -23.4800   -6.2150 N.3     1  UNL1       -0.3020
     15  C         15.6290  -23.9540   -5.4620 C.3     1  UNL1        0.1670
     16  C         15.0670  -22.9120   -4.4720 C.3     1  UNL1        0.1360
     17  C         14.2820  -21.8050   -5.1600 C.3     1  UNL1        0.0410
     18  O         16.0390  -22.3110   -3.6060 O.3     1  UNL1       -0.3780
     19  C         17.4030  -22.5120   -4.0070 C.3     1  UNL1        0.1360
     20  C         17.5710  -22.3850   -5.5270 C.3     1  UNL1        0.1670
     21  C         18.2470  -21.4800   -3.2690 C.3     1  UNL1        0.0410
     22  C         24.6660  -23.2510  -10.2890 C.3     1  UNL1        0.3750
     23  N         25.5310  -22.1030  -10.6280 N.3     1  UNL1        0.1020
     24  C         26.8320  -22.5400  -11.1810 C.3     1  UNL1        0.2780
     25  C         26.7720  -23.2140  -12.5770 C.3     1  UNL1        0.0710
     26  C         25.7440  -22.5750  -13.4650 C.ar    1  UNL1       -0.0250
     27  C         24.8710  -21.6330  -12.9510 C.ar    1  UNL1        0.0200
     28  C         25.5070  -22.8210  -14.8660 C.ar    1  UNL1        0.0470
     29  S         23.7710  -21.0570  -14.1080 S.2     1  UNL1       -0.0720
     30  C         24.8920  -21.1280  -11.5390 C.3     1  UNL1        0.3190
     31  C         24.4660  -22.0260  -15.3270 C.ar    1  UNL1        0.1130
     32  N         23.9880  -21.9780  -16.5820 N.2     1  UNL1       -0.2340
     33  C         24.6430  -22.8000  -17.4040 C.2     1  UNL1        0.2360
     34  N         25.6520  -23.6300  -17.0970 N.2     1  UNL1       -0.2290
     35  C         26.0960  -23.6590  -15.8280 C.2     1  UNL1        0.1150
     36  N         27.1200  -24.5610  -15.5590 N.pl3   1  UNL1       -0.2860
     37  H         27.2270  -24.6440  -14.5520 H       1  UNL1        0.1250
     38  H         27.9790  -24.3550  -16.0540 H       1  UNL1        0.1250
@<TRIPOS>BOND
     1    33    34    2
     2    33    32    1
     3    34    35    1
     4    32    31    2
     5    38    36    1
     6    35    36    1
     7    35    28    2
     8    36    37    1
     9    31    28   ar
    10    31    29   ar
    11    28    26   ar
    12    29    27   ar
    13    26    27   ar
    14    26    25    1
    15    27    30    1
    16    25    24    1
    17    30    23    1
    18    24    23    1
    19    23    22    1
    20     4     1    1
    21    22     2    1
    22    10     9    1
    23    10     5    2
    24     1     2   am
    25     1     5    1
    26     2     3    2
    27     9     8    2
    28     5     6    1
    29     8     7    1
    30     8    11    1
    31     6     7    2
    32    12    11    2
    33    13    11    2
    34    11    14    1
    35    14    20    1
    36    14    15    1
    37    20    19    1
    38    15    16    1
    39    17    16    1
    40    16    18    1
    41    19    18    1
    42    19    21    1
