@<TRIPOS>MOLECULE
72750_out_ligand_01.pdbqt
 38 42 0 0 0
SMALL
GASTEIGER

@<TRIPOS>ATOM
      1  C         19.2520  -22.7050  -10.5640 C.2     1  UNL1       -0.0330
      2  C         17.8580  -22.6770  -10.3660 C.2     1  UNL1        0.0090
      3  C         17.0870  -21.5920  -10.7890 C.2     1  UNL1        0.0010
      4  C         17.6910  -20.5120  -11.4240 C.2     1  UNL1        0.0010
      5  C         19.0680  -20.5170  -11.6350 C.2     1  UNL1        0.0170
      6  C         19.8530  -21.6050  -11.2050 C.2     1  UNL1        0.0390
      7  C         21.3160  -21.5490  -11.4720 C.2     1  UNL1        0.2520
      8  O         22.0860  -21.0090  -10.6890 O.2     1  UNL1       -0.2680
      9  N         21.7210  -22.1230  -12.6620 N.am    1  UNL1       -0.3510
     10  H         21.0080  -22.3180  -13.3560 H       1  UNL1        0.1630
     11  C         23.1050  -22.0320  -13.0870 C.3     1  UNL1        0.1040
     12  C         24.0420  -21.6050  -11.9670 C.3     1  UNL1        0.0460
     13  C         25.2790  -21.1470  -12.7270 C.3     1  UNL1        0.1260
     14  N         24.7600  -20.5390  -13.9580 N.pl3   1  UNL1       -0.3650
     15  C         23.3660  -20.9690  -14.1670 C.3     1  UNL1        0.1490
     16  C         25.5070  -19.7910  -14.8610 C.2     1  UNL1        0.1120
     17  C         25.8040  -20.2230  -16.0980 C.2     1  UNL1        0.1220
     18  C         26.5970  -19.3900  -17.0200 C.2     1  UNL1        0.2520
     19  O         26.8620  -19.7810  -18.1510 O.2     1  UNL1       -0.2680
     20  N         27.0040  -18.1860  -16.5390 N.am    1  UNL1       -0.2750
     21  C         26.7210  -17.7280  -15.2910 C.2     1  UNL1        0.3280
     22  H         27.5540  -17.5960  -17.1420 H       1  UNL1        0.1730
     23  O         27.1200  -16.6400  -14.8890 O.2     1  UNL1       -0.2470
     24  N         25.9720  -18.5530  -14.5050 N.am    1  UNL1       -0.2940
     25  H         25.7800  -18.2020  -13.5800 H       1  UNL1        0.1720
     26  C         20.0270  -23.9060  -10.0700 C.3     1  UNL1        0.1220
     27  S         20.9550  -23.5720   -8.5490 S.3     1  UNL1       -0.0830
     28  C         19.6310  -23.3860   -7.4370 C.2     1  UNL1        0.2270
     29  N         19.5720  -22.3550   -6.5950 N.2     1  UNL1       -0.1240
     30  N         18.4340  -22.6140   -5.9110 N.pl3   1  UNL1       -0.0620
     31  C         17.8490  -21.8940   -4.8630 C.3     1  UNL1        0.0520
     32  C         17.8400  -23.7790   -6.4160 C.cat   1  UNL1        0.7520
     33  C         16.6940  -22.3430   -4.3390 C.2     1  UNL1        0.0550
     34  C         18.5410  -20.6610   -4.3770 C.3     1  UNL1        0.0710
     35  C         16.1270  -23.5920   -4.9430 C.2     1  UNL1        0.0510
     36  C         14.8320  -24.1090   -4.3630 C.3     1  UNL1        0.0710
     37  N         16.6640  -24.2620   -5.9200 N.2     1  UNL1       -0.0660
     38  N         18.5900  -24.2580   -7.3830 N.pl3   1  UNL1       -0.0330
@<TRIPOS>BOND
     1    19    18    2
     2    22    20    1
     3    18    20   am
     4    18    17    1
     5    20    21   am
     6    17    16    2
     7    21    23    2
     8    21    24   am
     9    16    24    1
    10    16    14    1
    11    24    25    1
    12    15    14    1
    13    15    11    1
    14    14    13    1
    15    10     9    1
    16    11     9    1
    17    11    12    1
    18    13    12    1
    19     9     7   am
    20     5     4    2
    21     5     6    1
    22     7     6    1
    23     7     8    2
    24     4     3    1
    25     6     1    2
    26     3     2    2
    27     1     2    1
    28     1    26    1
    29    26    27    1
    30    27    28    1
    31    28    38    1
    32    28    29    2
    33    38    32    1
    34    29    30    1
    35    32    37    2
    36    32    30    1
    37    37    35    1
    38    30    31    1
    39    35    36    1
    40    35    33    2
    41    31    34    1
    42    31    33    1
