@<TRIPOS>MOLECULE
7275_out_ligand_01.pdbqt
 33 36 0 0 0
SMALL
GASTEIGER

@<TRIPOS>ATOM
      1  N         23.0560  -23.1960  -11.2100 N.pl3   1  UNL1       -0.1800
      2  H         22.7640  -24.1860  -11.1720 H       1  UNL1        0.1460
      3  S         23.3070  -22.6790   -9.6100 S.O2    1  UNL1        0.2450
      4  O         24.3260  -23.5370   -9.0430 O.2     1  UNL1       -0.2060
      5  O         23.4370  -21.2370   -9.5850 O.2     1  UNL1       -0.2060
      6  C         21.7740  -23.1240   -8.8320 C.2     1  UNL1        0.0750
      7  C         21.1540  -22.2340   -7.9510 C.2     1  UNL1        0.0370
      8  C         19.9390  -22.5810   -7.3430 C.2     1  UNL1       -0.0240
      9  C         19.2900  -21.7020   -6.4670 C.2     1  UNL1        0.0150
     10  C         19.3540  -23.8400   -7.6180 C.2     1  UNL1       -0.0230
     11  C         18.0790  -22.0610   -5.8710 C.2     1  UNL1        0.0370
     12  C         17.4940  -23.2990   -6.1370 C.2     1  UNL1        0.0690
     13  C         18.1320  -24.1840   -7.0080 C.2     1  UNL1        0.0490
     14  C         20.0040  -24.7260   -8.4950 C.2     1  UNL1        0.0140
     15  C         21.2120  -24.3730   -9.1000 C.2     1  UNL1        0.0260
     16  O         16.3100  -23.5190   -5.4890 O.2     1  UNL1       -0.3560
     17  C         15.6850  -22.3930   -4.8850 C.3     1  UNL1        0.2100
     18  C         24.1410  -22.9650  -12.1240 C.2     1  UNL1        0.0380
     19  C         25.3280  -23.6800  -11.9430 C.2     1  UNL1        0.0250
     20  C         26.3760  -23.5450  -12.8550 C.2     1  UNL1        0.0020
     21  C         26.2420  -22.6970  -13.9540 C.2     1  UNL1        0.0010
     22  C         25.0590  -21.9810  -14.1460 C.2     1  UNL1        0.0190
     23  C         23.9970  -22.1210  -13.2410 C.2     1  UNL1        0.0540
     24  C         22.7400  -21.3440  -13.4220 C.2     1  UNL1        0.2530
     25  O         22.6280  -20.5800  -14.3760 O.2     1  UNL1       -0.2680
     26  N         21.7650  -21.5220  -12.4650 N.am    1  UNL1       -0.3540
     27  H         22.0440  -21.9000  -11.5660 H       1  UNL1        0.1620
     28  C         20.6040  -20.6490  -12.4200 C.3     1  UNL1        0.1550
     29  C         19.6490  -21.0670  -11.3040 C.3     1  UNL1        0.1390
     30  C         19.2330  -22.5250  -11.3840 C.3     1  UNL1        0.0350
     31  C         17.8980  -22.4990  -10.6830 C.3     1  UNL1        0.0290
     32  C         17.3200  -21.1820  -11.1580 C.3     1  UNL1        0.1680
     33  O         18.4290  -20.2950  -11.3770 O.3     1  UNL1       -0.3840
@<TRIPOS>BOND
     1    25    24    2
     2    22    21    2
     3    22    23    1
     4    21    20    1
     5    24    23    1
     6    24    26   am
     7    23    18    2
     8    20    19    2
     9    26    28    1
    10    26    27    1
    11    28    29    1
    12    18    19    1
    13    18     1    1
    14    30    29    1
    15    30    31    1
    16    33    29    1
    17    33    32    1
    18     1     2    1
    19     1     3    1
    20    32    31    1
    21     3     5    2
    22     3     4    2
    23     3     6    1
    24    15     6    2
    25    15    14    1
    26     6     7    1
    27    14    10    2
    28     7     8    2
    29    10     8    1
    30    10    13    1
    31     8     9    1
    32    13    12    2
    33     9    11    2
    34    12    11    1
    35    12    16    1
    36    16    17    1
