@<TRIPOS>MOLECULE
72754_out_ligand_01.pdbqt
 42 47 0 0 0
SMALL
GASTEIGER

@<TRIPOS>ATOM
      1  C         22.0180  -21.5710  -12.6000 C.2     1  UNL1        0.0540
      2  C         22.3670  -20.9440  -13.8060 C.2     1  UNL1        0.0190
      3  C         23.5710  -21.2640  -14.4390 C.2     1  UNL1        0.0010
      4  C         24.4340  -22.1990  -13.8680 C.2     1  UNL1        0.0020
      5  C         24.1020  -22.8160  -12.6610 C.2     1  UNL1        0.0250
      6  C         22.9030  -22.4980  -12.0170 C.2     1  UNL1        0.0380
      7  C         20.7490  -21.2230  -11.9030 C.2     1  UNL1        0.2590
      8  O         20.6320  -20.0870  -11.4520 O.2     1  UNL1       -0.2670
      9  N         19.8280  -22.2370  -11.8180 N.am    1  UNL1       -0.3060
     10  H         20.0430  -23.1770  -12.1170 H       1  UNL1        0.1700
     11  C         18.5910  -22.1410  -11.2300 C.2     1  UNL1        0.1510
     12  C         17.7940  -21.0050  -10.9770 C.2     1  UNL1        0.0710
     13  C         16.6630  -21.4860  -10.3630 C.2     1  UNL1        0.1160
     14  N         16.8230  -22.8410  -10.2910 N.pl3   1  UNL1       -0.2730
     15  N         17.9960  -23.2640  -10.8140 N.2     1  UNL1       -0.1540
     16  C         15.9020  -23.7950   -9.6880 C.3     1  UNL1        0.2110
     17  C         15.8780  -23.6480   -8.2050 C.2     1  UNL1        0.0720
     18  C         16.5170  -24.4070   -7.2430 C.2     1  UNL1        0.1270
     19  N         16.1670  -23.8590   -6.0370 N.pl3   1  UNL1       -0.3160
     20  C         16.5220  -24.2460   -4.7470 C.2     1  UNL1        0.0980
     21  C         15.3410  -22.7750   -6.3150 C.2     1  UNL1        0.1340
     22  C         16.0530  -23.5440   -3.7020 C.2     1  UNL1        0.0180
     23  C         15.1890  -22.3990   -3.9520 C.2     1  UNL1        0.0050
     24  C         14.8490  -22.0330   -5.2040 C.2     1  UNL1        0.0510
     25  N         15.1600  -22.6290   -7.6120 N.2     1  UNL1       -0.2320
     26  N         22.5630  -23.2100  -10.8170 N.pl3   1  UNL1       -0.1800
     27  H         22.7560  -24.2230  -10.8760 H       1  UNL1        0.1460
     28  S         23.2660  -22.6320   -9.3820 S.O2    1  UNL1        0.2460
     29  O         23.8520  -21.3310   -9.6270 O.2     1  UNL1       -0.2060
     30  O         24.0370  -23.7180   -8.8170 O.2     1  UNL1       -0.2060
     31  C         21.8440  -22.4210   -8.3340 C.2     1  UNL1        0.0770
     32  C         20.7540  -23.3160   -8.4810 C.2     1  UNL1        0.0270
     33  C         19.6150  -23.1880   -7.6800 C.2     1  UNL1        0.0330
     34  C         19.6230  -22.1670   -6.7590 C.ar    1  UNL1        0.0630
     35  N         18.6500  -21.7960   -5.8380 N.ar    1  UNL1       -0.3070
     36  C         20.7050  -21.2960   -6.6130 C.ar    1  UNL1        0.0640
     37  C         19.1160  -20.6920   -5.1080 C.ar    1  UNL1        0.3250
     38  H         17.7540  -22.2280   -5.6840 H       1  UNL1        0.1700
     39  O         18.5250  -20.1070   -4.2190 O.2     1  UNL1       -0.2470
     40  N         20.3940  -20.3930   -5.6040 N.ar    1  UNL1       -0.3060
     41  H         20.9680  -19.6440   -5.2510 H       1  UNL1        0.1700
     42  C         21.8380  -21.3940   -7.3820 C.2     1  UNL1        0.0560
@<TRIPOS>BOND
     1     3     4    2
     2     3     2    1
     3     4     5    1
     4     2     1    2
     5     5     6    2
     6     1     6    1
     7     1     7    1
     8    10     9    1
     9     6    26    1
    10     7     9   am
    11     7     8    2
    12     9    11    1
    13    11    12    1
    14    11    15    2
    15    12    13    2
    16    27    26    1
    17    26    28    1
    18    15    14    1
    19    13    14    1
    20    14    16    1
    21    16    17    1
    22    29    28    2
    23    28    30    2
    24    28    31    1
    25    32    31    2
    26    32    33    1
    27    31    42    1
    28    17    25    1
    29    17    18    2
    30    33    34    2
    31    25    21    2
    32    42    36    2
    33    18    19    1
    34    34    36   ar
    35    34    35   ar
    36    36    40   ar
    37    21    19    1
    38    21    24    1
    39    19    20    1
    40    35    38    1
    41    35    37   ar
    42    40    41    1
    43    40    37   ar
    44    24    23    2
    45    37    39    2
    46    20    22    2
    47    23    22    1
