@<TRIPOS>MOLECULE
72786_out_ligand_01.pdbqt
 38 42 0 0 0
SMALL
GASTEIGER

@<TRIPOS>ATOM
      1  N         25.3270  -20.6890  -11.5340 N.am    1  UNL1       -0.3090
      2  C         24.9840  -21.9910  -11.2420 C.2     1  UNL1        0.3200
      3  O         25.1020  -22.9620  -11.9780 O.2     1  UNL1       -0.2470
      4  N         24.5070  -22.0930   -9.9520 N.am    1  UNL1       -0.3390
      5  H         25.2910  -20.0440  -10.7600 H       1  UNL1        0.1700
      6  H         24.1230  -21.2620   -9.5280 H       1  UNL1        0.1640
      7  C         25.8240  -20.1780  -12.7500 C.2     1  UNL1        0.0370
      8  C         26.6700  -19.0720  -12.8440 C.2     1  UNL1        0.0290
      9  C         27.1200  -18.6290  -14.0930 C.2     1  UNL1        0.0030
     10  C         26.7260  -19.2860  -15.2560 C.2     1  UNL1        0.0150
     11  C         25.8700  -20.3860  -15.1790 C.2     1  UNL1        0.0120
     12  C         25.4380  -20.8370  -13.9250 C.2     1  UNL1        0.0440
     13  C         25.4310  -21.0590  -16.3950 C.2     1  UNL1        0.1390
     14  N         24.4040  -20.6840  -17.1410 N.2     1  UNL1       -0.2410
     15  C         24.3130  -21.6010  -18.1530 C.2     1  UNL1        0.1360
     16  C         25.2990  -22.5510  -18.0380 C.2     1  UNL1        0.1120
     17  N         26.0170  -22.1920  -16.9260 N.pl3   1  UNL1       -0.3400
     18  C         27.1190  -22.9540  -16.3710 C.3     1  UNL1        0.1300
     19  C         26.7710  -23.7290  -15.0960 C.3     1  UNL1        0.0200
     20  C         25.4150  -24.4460  -15.1130 C.3     1  UNL1       -0.0030
     21  C         25.5300  -25.9630  -15.0780 C.3     1  UNL1        0.0050
     22  C         24.0350  -23.3520   -9.4180 C.3     1  UNL1        0.1620
     23  C         22.6440  -23.2070   -8.8590 C.2     1  UNL1       -0.0400
     24  C         22.3240  -22.1550   -7.9930 C.2     1  UNL1        0.0090
     25  C         21.0260  -22.0190   -7.4920 C.2     1  UNL1        0.0130
     26  C         20.0110  -22.9240   -7.8460 C.2     1  UNL1       -0.0260
     27  C         20.3400  -23.9730   -8.7190 C.2     1  UNL1        0.0130
     28  C         21.6380  -24.1120   -9.2230 C.2     1  UNL1        0.0090
     29  C         18.6460  -22.7760   -7.3140 C.2     1  UNL1       -0.0250
     30  C         17.5540  -22.5920   -8.1720 C.2     1  UNL1        0.0130
     31  C         16.2560  -22.4560   -7.6670 C.2     1  UNL1        0.0130
     32  C         16.0160  -22.5020   -6.2870 C.2     1  UNL1       -0.0260
     33  C         14.7200  -22.3700   -5.7630 C.2     1  UNL1        0.0120
     34  C         17.1020  -22.6850   -5.4050 C.2     1  UNL1       -0.0250
     35  C         14.4980  -22.4180   -4.3870 C.2     1  UNL1        0.0010
     36  C         15.5680  -22.5960   -3.5150 C.2     1  UNL1        0.0010
     37  C         16.8630  -22.7290   -4.0200 C.2     1  UNL1        0.0120
     38  C         18.4000  -22.8180   -5.9300 C.2     1  UNL1        0.0240
@<TRIPOS>BOND
     1    15    16    2
     2    15    14    1
     3    16    17    1
     4    14    13    2
     5    17    13    1
     6    17    18    1
     7    13    11    1
     8    18    19    1
     9    10    11    2
    10    10     9    1
    11    11    12    1
    12    20    19    1
    13    20    21    1
    14     9     8    2
    15    12     7    2
    16     8     7    1
    17     7     1    1
    18     3     2    2
    19     1     2   am
    20     1     5    1
    21     2     4   am
    22     4     6    1
    23     4    22    1
    24    22    23    1
    25    28    23    2
    26    28    27    1
    27    23    24    1
    28    27    26    2
    29    30    31    1
    30    30    29    2
    31    24    25    2
    32    26    25    1
    33    26    29    1
    34    31    32    2
    35    29    38    1
    36    32    33    1
    37    32    34    1
    38    38    34    2
    39    33    35    2
    40    34    37    1
    41    35    36    1
    42    37    36    2
