@<TRIPOS>MOLECULE
72781_out_ligand_01.pdbqt
 39 43 0 0 0
SMALL
GASTEIGER

@<TRIPOS>ATOM
      1  C         18.8640  -21.5100  -10.9460 C.2     1  UNL1        0.0540
      2  C         17.7070  -20.7200  -11.0140 C.2     1  UNL1        0.0190
      3  C         16.5010  -21.2150  -10.5170 C.2     1  UNL1        0.0010
      4  C         16.4450  -22.4920   -9.9570 C.2     1  UNL1        0.0020
      5  C         17.5930  -23.2850   -9.8950 C.2     1  UNL1        0.0250
      6  C         18.8030  -22.8040  -10.4010 C.2     1  UNL1        0.0380
      7  N         19.9860  -23.6020  -10.2380 N.pl3   1  UNL1       -0.1800
      8  H         20.6120  -23.5740  -11.0590 H       1  UNL1        0.1460
      9  S         20.9130  -23.2740   -8.8530 S.O2    1  UNL1        0.2460
     10  O         21.6330  -22.0310   -9.0420 O.2     1  UNL1       -0.2060
     11  O         21.5960  -24.4950   -8.4880 O.2     1  UNL1       -0.2060
     12  C         19.6530  -23.0140   -7.6240 C.2     1  UNL1        0.0770
     13  C         19.5820  -21.7720   -6.9460 C.2     1  UNL1        0.0270
     14  C         18.5990  -21.5480   -5.9740 C.2     1  UNL1        0.0330
     15  C         17.7330  -22.5870   -5.7220 C.ar    1  UNL1        0.0630
     16  N         16.6730  -22.6610   -4.8270 N.ar    1  UNL1       -0.3070
     17  C         17.8160  -23.8110   -6.3880 C.ar    1  UNL1        0.0640
     18  C         16.0860  -23.9300   -4.9240 C.ar    1  UNL1        0.3250
     19  H         16.3550  -21.9460   -4.1920 H       1  UNL1        0.1700
     20  O         15.1340  -24.3410   -4.2850 O.2     1  UNL1       -0.2470
     21  N         16.8070  -24.6330   -5.9000 N.ar    1  UNL1       -0.3060
     22  H         16.6050  -25.5820   -6.1710 H       1  UNL1        0.1700
     23  C         18.7680  -24.0650   -7.3440 C.2     1  UNL1        0.0560
     24  C         20.1490  -21.0040  -11.4860 C.2     1  UNL1        0.2590
     25  O         20.3540  -19.7990  -11.3990 O.2     1  UNL1       -0.2670
     26  N         20.9300  -21.9640  -12.0900 N.am    1  UNL1       -0.3070
     27  H         20.5110  -22.8650  -12.2690 H       1  UNL1        0.1700
     28  C         22.1970  -21.7360  -12.6400 C.2     1  UNL1        0.1310
     29  C         22.2600  -21.0450  -13.8340 C.2     1  UNL1        0.0510
     30  C         23.5080  -20.8110  -14.4040 C.2     1  UNL1        0.0190
     31  C         24.6870  -21.2740  -13.7820 C.2     1  UNL1        0.0120
     32  C         25.9950  -21.0710  -14.3020 C.2     1  UNL1        0.0230
     33  C         24.5270  -21.9820  -12.5700 C.2     1  UNL1        0.0920
     34 BR         26.3150  -20.1300  -15.9280 Br      1  UNL1       -0.0500
     35  C         27.1210  -21.5570  -13.6380 C.2     1  UNL1        0.0220
     36  C         26.9630  -22.2530  -12.4490 C.2     1  UNL1        0.0280
     37  C         25.6810  -22.4600  -11.9300 C.2     1  UNL1        0.0630
     38 CL         25.5740  -23.3480  -10.4440 Cl      1  UNL1       -0.0820
     39  N         23.3020  -22.2000  -12.0380 N.2     1  UNL1       -0.2290
@<TRIPOS>BOND
     1    34    32    1
     2    30    29    1
     3    30    31    2
     4    32    31    1
     5    32    35    2
     6    29    28    2
     7    31    33    1
     8    35    36    1
     9    28    26    1
    10    28    39    1
    11    33    39    2
    12    33    37    1
    13    36    37    2
    14    27    26    1
    15    26    24   am
    16    37    38    1
    17    24    25    2
    18    24     1    1
    19     8     7    1
    20     2     1    2
    21     2     3    1
    22     1     6    1
    23     3     4    2
    24     6     7    1
    25     6     5    2
    26     7     9    1
    27     4     5    1
    28    10     9    2
    29     9    11    2
    30     9    12    1
    31    12    23    2
    32    12    13    1
    33    23    17    1
    34    13    14    2
    35    17    21   ar
    36    17    15   ar
    37    22    21    1
    38    14    15    1
    39    21    18   ar
    40    15    16   ar
    41    18    16   ar
    42    18    20    2
    43    16    19    1
