@<TRIPOS>MOLECULE
72802_out_ligand_01.pdbqt
 36 39 0 0 0
SMALL
GASTEIGER

@<TRIPOS>ATOM
      1  C         21.6100  -22.5160   -9.6690 C.2     1  UNL1        0.0980
      2  C         21.0270  -22.9880   -8.5160 C.2     1  UNL1        0.1430
      3  N         19.6910  -22.9460   -8.2990 N.2     1  UNL1       -0.2470
      4  C         18.8870  -22.3830   -9.2320 C.2     1  UNL1        0.1180
      5  C         19.4090  -21.8640  -10.4190 C.2     1  UNL1        0.0890
      6  C         20.7980  -21.9320  -10.6340 C.2     1  UNL1        0.0460
      7  S         23.3530  -22.6270   -9.8650 S.O2    1  UNL1        0.2600
      8  O         23.8920  -21.2880   -9.8300 O.2     1  UNL1       -0.2000
      9  O         23.8300  -23.6700   -8.9860 O.2     1  UNL1       -0.2000
     10  N         23.5130  -23.2090  -11.4250 N.3     1  UNL1       -0.3150
     11  H         22.6530  -23.2260  -11.9710 H       1  UNL1        0.1720
     12  C         24.8130  -23.2260  -12.0940 C.3     1  UNL1        0.1440
     13  C         24.7890  -22.3810  -13.3710 C.3     1  UNL1        0.0010
     14  C         24.8700  -23.2530  -14.6540 C.3     1  UNL1        0.0130
     15  C         24.7150  -22.4450  -15.9470 C.3     1  UNL1        0.0040
     16  C         25.4570  -21.1070  -15.8960 C.3     1  UNL1        0.0380
     17  C         25.3120  -20.4220  -14.5240 C.3     1  UNL1        0.0580
     18  C         25.9260  -19.0300  -14.5280 C.3     1  UNL1        0.0460
     19  O         23.9030  -20.3300  -14.2170 O.3     1  UNL1       -0.3800
     20  C         25.8840  -21.3210  -13.4310 C.3     1  UNL1        0.0510
     21  C         23.5540  -21.4700  -13.4060 C.3     1  UNL1        0.1800
     22  C         18.5070  -21.2810  -11.4660 C.3     1  UNL1        0.4200
     23  F         17.7880  -22.2240  -12.1410 F       1  UNL1       -0.1660
     24  F         19.1820  -20.5630  -12.4080 F       1  UNL1       -0.1660
     25  F         17.5800  -20.4210  -10.9510 F       1  UNL1       -0.1660
     26  N         17.5040  -22.3780   -9.0110 N.pl3   1  UNL1       -0.2720
     27  H         17.2390  -21.5640   -8.4580 H       1  UNL1        0.1290
     28  C         16.9640  -23.5980   -8.4090 C.3     1  UNL1        0.1350
     29  C         16.3890  -23.2780   -7.0520 C.2     1  UNL1       -0.0030
     30  C         15.2490  -22.4670   -6.9160 C.2     1  UNL1        0.0110
     31  C         14.7040  -22.2000   -5.6550 C.2     1  UNL1        0.0040
     32  C         15.2880  -22.7500   -4.5140 C.2     1  UNL1        0.0450
     33  C         16.4090  -23.5630   -4.6430 C.2     1  UNL1        0.1550
     34  F         16.9610  -24.0980   -3.5450 F       1  UNL1       -0.2030
     35  C         16.9530  -23.8290   -5.8970 C.2     1  UNL1        0.1620
     36  F         18.0290  -24.6230   -5.9900 F       1  UNL1       -0.2020
@<TRIPOS>BOND
     1    15    16    1
     2    15    14    1
     3    16    17    1
     4    14    13    1
     5    18    17    1
     6    17    19    1
     7    17    20    1
     8    19    21    1
     9    20    13    1
    10    21    13    1
    11    13    12    1
    12    24    22    1
    13    23    22    1
    14    12    10    1
    15    11    10    1
    16    22    25    1
    17    22     5    1
    18    10     7    1
    19     6     5    1
    20     6     1    2
    21     5     4    2
    22     7     8    2
    23     7     1    1
    24     7     9    2
    25     1     2    1
    26     4    26    1
    27     4     3    1
    28    26    27    1
    29    26    28    1
    30     2     3    2
    31    28    29    1
    32    29    30    2
    33    29    35    1
    34    30    31    1
    35    36    35    1
    36    35    33    2
    37    31    32    2
    38    33    32    1
    39    33    34    1
