@<TRIPOS>MOLECULE
7280_out_ligand_01.pdbqt
 35 38 0 0 0
SMALL
GASTEIGER

@<TRIPOS>ATOM
      1  S         16.1290  -22.6400   -9.7410 S.O2    1  UNL1        0.2850
      2  O         16.3800  -24.0510   -9.9520 O.2     1  UNL1       -0.1980
      3  O         14.8590  -22.0440  -10.0940 O.2     1  UNL1       -0.1980
      4  C         17.3600  -21.8040  -10.6910 C.ar    1  UNL1        0.2370
      5  N         17.3180  -20.5550  -11.1080 N.ar    1  UNL1       -0.1260
      6  N         18.4880  -20.2100  -11.7590 N.ar    1  UNL1       -0.1220
      7  C         19.3540  -21.2020  -11.7800 C.ar    1  UNL1        0.1970
      8  S         18.7840  -22.6530  -11.0930 S.2     1  UNL1       -0.0150
      9  N         20.5990  -21.0670  -12.3400 N.am    1  UNL1       -0.3000
     10  C         21.6740  -21.9050  -12.1560 C.2     1  UNL1        0.2570
     11  O         21.7240  -22.8970  -11.4400 O.2     1  UNL1       -0.2670
     12  H         20.7200  -20.1910  -12.8270 H       1  UNL1        0.1710
     13  C         22.9110  -21.4980  -12.8850 C.2     1  UNL1        0.0320
     14  C         22.8630  -20.8960  -14.1490 C.2     1  UNL1        0.0170
     15  C         24.0480  -20.5220  -14.7900 C.2     1  UNL1        0.0070
     16  C         25.2890  -20.7430  -14.1780 C.2     1  UNL1       -0.0620
     17  C         26.5610  -20.3720  -14.8820 C.3     1  UNL1        0.0480
     18  C         25.3320  -21.3770  -12.9310 C.2     1  UNL1        0.0070
     19  C         24.1510  -21.7520  -12.2870 C.2     1  UNL1        0.0170
     20  N         16.3850  -22.3720   -8.0990 N.3     1  UNL1       -0.3000
     21  H         15.5550  -22.0360   -7.6140 H       1  UNL1        0.1730
     22  C         17.1800  -23.3650   -7.3460 C.3     1  UNL1        0.1590
     23  C         16.7930  -23.3330   -5.8700 C.2     1  UNL1       -0.0300
     24  C         17.6490  -23.8450   -4.8800 C.2     1  UNL1        0.0090
     25  C         17.2980  -23.7730   -3.5310 C.2     1  UNL1        0.0010
     26  C         16.0890  -23.1940   -3.1530 C.2     1  UNL1        0.0000
     27  C         15.2270  -22.6890   -4.1240 C.2     1  UNL1        0.0010
     28  C         15.5740  -22.7570   -5.4740 C.2     1  UNL1        0.0090
     29  C         18.6870  -23.1790   -7.5740 C.2     1  UNL1       -0.0300
     30  C         19.3410  -21.9810   -7.2320 C.2     1  UNL1        0.0100
     31  C         20.7070  -21.8100   -7.4750 C.2     1  UNL1        0.0070
     32  C         21.4570  -22.8250   -8.0720 C.2     1  UNL1       -0.0620
     33  C         22.9140  -22.6210   -8.3620 C.3     1  UNL1        0.0480
     34  C         20.8120  -24.0040   -8.4540 C.2     1  UNL1        0.0070
     35  C         19.4460  -24.1760   -8.2130 C.2     1  UNL1        0.0100
@<TRIPOS>BOND
     1    17    16    1
     2    15    16    2
     3    15    14    1
     4    16    18    1
     5    14    13    2
     6    18    19    2
     7    13    19    1
     8    13    10    1
     9    12     9    1
    10     9    10   am
    11     9     7    1
    12    10    11    2
    13     7     6   ar
    14     7     8   ar
    15     6     5   ar
    16     5     4   ar
    17     8     4   ar
    18     4     1    1
    19     3     1    2
    20     2     1    2
    21     1    20    1
    22    34    35    1
    23    34    32    2
    24    33    32    1
    25    35    29    2
    26    20    21    1
    27    20    22    1
    28    32    31    1
    29    29    22    1
    30    29    30    1
    31    31    30    2
    32    22    23    1
    33    23    28    2
    34    23    24    1
    35    28    27    1
    36    24    25    2
    37    27    26    2
    38    25    26    1
