@<TRIPOS>MOLECULE
72826_out_ligand_01.pdbqt
 30 34 0 0 0
SMALL
GASTEIGER

@<TRIPOS>ATOM
      1  C         21.7170  -21.6930  -11.6600 C.3     1  UNL1        0.1290
      2  N         21.9950  -21.5270  -12.9360 N.2     1  UNL1       -0.2090
      3  C         23.3550  -21.6550  -13.0070 C.2     1  UNL1        0.2190
      4  N         23.9510  -21.8900  -11.8270 N.pl3   1  UNL1       -0.1460
      5  N         22.8920  -21.9060  -10.9840 N.3     1  UNL1       -0.2480
      6  C         23.1000  -22.1600   -9.5700 C.3     1  UNL1        0.2120
      7  C         21.9030  -22.8330   -8.9530 C.2     1  UNL1        0.0550
      8  C         21.6440  -24.1800   -9.1770 C.2     1  UNL1        0.0300
      9  C         20.5400  -24.7580   -8.5600 C.2     1  UNL1        0.0160
     10  C         19.7170  -23.9840   -7.7340 C.2     1  UNL1       -0.0070
     11  C         18.5960  -24.5300   -7.0840 C.2     1  UNL1        0.0140
     12  C         20.0460  -22.6240   -7.5650 C.2     1  UNL1        0.0670
     13  C         17.8010  -23.7310   -6.2660 C.2     1  UNL1        0.0010
     14  C         18.1210  -22.3900   -6.0940 C.2     1  UNL1        0.0020
     15  C         19.2360  -21.8510   -6.7430 C.2     1  UNL1        0.0320
     16  N         21.1120  -22.0620   -8.1630 N.2     1  UNL1       -0.2510
     17  C         20.3560  -21.6350  -11.0310 C.3     1  UNL1        0.0570
     18  C         19.5770  -20.4200  -11.5520 C.3     1  UNL1        0.0130
     19  C         18.1810  -20.3520  -10.9370 C.3     1  UNL1        0.0050
     20  C         17.3790  -21.6400  -11.1840 C.3     1  UNL1       -0.0150
     21  C         18.1670  -22.8680  -10.6980 C.3     1  UNL1        0.0050
     22  C         19.5700  -22.9250  -11.3040 C.3     1  UNL1        0.0130
     23  C         15.9980  -21.5280  -10.5130 C.3     1  UNL1        0.0000
     24  C         15.6960  -22.6590   -9.5410 C.3     1  UNL1        0.0050
     25  C         24.1700  -21.5450  -14.3260 C.2     1  UNL1        0.2000
     26  N         25.1330  -22.3380  -14.7480 N.2     1  UNL1       -0.1270
     27  N         25.5680  -21.8600  -15.9680 N.2     1  UNL1       -0.1430
     28  C         24.8610  -20.7890  -16.2500 C.2     1  UNL1        0.2330
     29  N         23.9740  -20.5580  -15.2480 N.pl3   1  UNL1       -0.3300
     30  H         23.2960  -19.8150  -15.1690 H       1  UNL1        0.1680
@<TRIPOS>BOND
     1    28    27    2
     2    28    29    1
     3    27    26    1
     4    29    30    1
     5    29    25    1
     6    26    25    2
     7    25     3    1
     8     3     2    2
     9     3     4    1
    10     2     1    1
    11     4     5    1
    12     1    17    1
    13     1     5    1
    14    18    17    1
    15    18    19    1
    16    22    17    1
    17    22    21    1
    18    20    19    1
    19    20    21    1
    20    20    23    1
    21     5     6    1
    22    23    24    1
    23     6     7    1
    24     8     7    2
    25     8     9    1
    26     7    16    1
    27     9    10    2
    28    16    12    2
    29    10    12    1
    30    10    11    1
    31    12    15    1
    32    11    13    2
    33    15    14    2
    34    13    14    1
