@<TRIPOS>MOLECULE
72837_out_ligand_01.pdbqt
 32 36 0 0 0
SMALL
GASTEIGER

@<TRIPOS>ATOM
      1  C         21.4200  -23.4440   -9.4110 C.2     1  UNL1       -0.0410
      2  C         20.8130  -22.6830  -10.4190 C.2     1  UNL1        0.0090
      3  C         19.4250  -22.5440  -10.4620 C.2     1  UNL1        0.0070
      4  C         18.6170  -23.1570   -9.4950 C.2     1  UNL1       -0.0570
      5  C         19.2220  -23.9230   -8.4920 C.2     1  UNL1        0.0070
      6  C         20.6100  -24.0610   -8.4490 C.2     1  UNL1        0.0090
      7  C         22.9210  -23.5500   -9.3170 C.3     1  UNL1        0.1610
      8  N         23.5180  -23.3420  -10.6190 N.am    1  UNL1       -0.3560
      9  C         24.0790  -22.1350  -10.9720 C.2     1  UNL1        0.2280
     10  O         24.2350  -21.2240  -10.1620 O.2     1  UNL1       -0.2730
     11  H         23.2520  -23.9950  -11.3420 H       1  UNL1        0.1620
     12  C         24.4820  -21.9950  -12.4410 C.3     1  UNL1        0.0690
     13  C         24.9320  -23.3570  -13.0280 C.3     1  UNL1        0.0230
     14  C         25.3450  -23.2430  -14.4990 C.3     1  UNL1        0.0310
     15  C         24.4380  -22.2900  -15.2810 C.3     1  UNL1        0.2720
     16  N         24.0440  -21.0710  -14.5420 N.3     1  UNL1        0.0890
     17  C         25.2260  -20.3350  -14.0450 C.3     1  UNL1        0.2730
     18  C         23.3410  -21.4700  -13.3090 C.3     1  UNL1        0.2910
     19  C         25.5690  -20.9310  -12.6760 C.3     1  UNL1        0.0510
     20  C         17.1150  -22.9960   -9.5380 C.3     1  UNL1        0.0580
     21  C         16.3930  -23.6410   -8.3490 C.3     1  UNL1        0.1260
     22  N         15.7050  -22.6350   -7.5540 N.pl3   1  UNL1       -0.3730
     23  H         14.7940  -22.3750   -7.9200 H       1  UNL1        0.1610
     24  C         15.8300  -22.5550   -6.1870 C.2     1  UNL1        0.1530
     25  N         14.8730  -22.9530   -5.4040 N.2     1  UNL1       -0.2210
     26  C         15.0370  -22.8660   -4.0450 C.2     1  UNL1        0.2580
     27  N         16.0730  -22.4220   -3.4080 N.2     1  UNL1       -0.1610
     28  N         17.0620  -22.0160   -4.2150 N.pl3   1  UNL1       -0.2400
     29  C         18.2700  -21.5110   -3.8170 C.2     1  UNL1        0.1190
     30  C         17.0150  -22.0470   -5.5730 C.2     1  UNL1        0.1030
     31  C         19.0050  -21.2080   -4.9420 C.2     1  UNL1        0.0220
     32  C         18.2050  -21.5460   -6.0620 C.2     1  UNL1        0.0370
@<TRIPOS>BOND
     1    15    16    1
     2    15    14    1
     3    16    17    1
     4    16    18    1
     5    14    13    1
     6    17    19    1
     7    18    12    1
     8    13    12    1
     9    19    12    1
    10    12     9    1
    11    11     8    1
    12     9     8   am
    13     9    10    2
    14     8     7    1
    15     3     2    1
    16     3     4    2
    17     2     1    2
    18    20     4    1
    19    20    21    1
    20     4     5    1
    21     1     7    1
    22     1     6    1
    23     5     6    2
    24    21    22    1
    25    23    22    1
    26    22    24    1
    27    24    30    1
    28    24    25    2
    29    32    30    2
    30    32    31    1
    31    30    28    1
    32    25    26    1
    33    31    29    2
    34    28    29    1
    35    28    27    1
    36    26    27    2
