@<TRIPOS>MOLECULE
72848_out_ligand_01.pdbqt
 37 42 0 0 0
SMALL
GASTEIGER

@<TRIPOS>ATOM
      1  C         21.6550  -23.7240   -9.6690 C.3     1  UNL1        0.1130
      2  C         22.8390  -23.0850   -8.8960 C.3     1  UNL1        0.1510
      3  N         23.5110  -22.0630   -9.6930 N.am    1  UNL1       -0.3420
      4  C         24.5750  -22.4660  -10.4990 C.2     1  UNL1        0.2550
      5  O         25.0220  -23.6100  -10.5130 O.2     1  UNL1       -0.2670
      6  C         22.6680  -20.9100   -9.9880 C.3     1  UNL1        0.1650
      7  C         21.3550  -21.3440  -10.6040 C.2     1  UNL1       -0.0320
      8  C         20.6000  -20.4040  -11.3240 C.2     1  UNL1        0.0090
      9  C         19.3830  -20.7640  -11.9030 C.2     1  UNL1        0.0010
     10  C         18.9050  -22.0630  -11.7690 C.2     1  UNL1        0.0010
     11  C         19.6390  -23.0040  -11.0470 C.2     1  UNL1        0.0090
     12  C         20.8590  -22.6570  -10.4370 C.2     1  UNL1       -0.0310
     13  C         25.1980  -21.4760  -11.3970 C.2     1  UNL1        0.0430
     14  C         26.1410  -20.5860  -10.8350 C.2     1  UNL1        0.0180
     15  C         26.7870  -19.6310  -11.6320 C.2     1  UNL1        0.0090
     16  C         26.4720  -19.5720  -12.9800 C.2     1  UNL1       -0.0460
     17  C         25.5380  -20.4330  -13.5010 C.2     1  UNL1       -0.0120
     18  C         27.0100  -18.6490  -14.0350 C.2     1  UNL1        0.0440
     19  C         25.3690  -20.1970  -14.8410 C.2     1  UNL1       -0.0460
     20  C         24.8520  -21.4070  -12.7700 C.2     1  UNL1       -0.0090
     21  C         24.4580  -20.9560  -15.5580 C.2     1  UNL1        0.0080
     22  C         26.2550  -19.0850  -15.3180 C.2     1  UNL1        0.0440
     23  C         23.7270  -21.9450  -14.8840 C.2     1  UNL1        0.0010
     24  C         23.9150  -22.1720  -13.5060 C.2     1  UNL1        0.0130
     25  N         20.7250  -24.4040   -8.7500 N.pl3   1  UNL1       -0.2670
     26  H         20.1690  -25.1090   -9.2230 H       1  UNL1        0.1300
     27  C         19.9460  -23.5980   -7.9190 C.2     1  UNL1        0.1070
     28  C         18.6800  -24.0240   -7.5860 C.2     1  UNL1        0.0810
     29  C         17.9710  -23.2130   -6.7270 C.2     1  UNL1        0.1280
     30  N         18.4420  -22.0590   -6.1980 N.2     1  UNL1       -0.2360
     31  C         19.6860  -21.7550   -6.5700 C.2     1  UNL1        0.2350
     32  N         20.4580  -22.4720   -7.4000 N.2     1  UNL1       -0.2300
     33  C         16.5830  -23.6050   -6.3320 C.2     1  UNL1        0.2680
     34  N         15.5770  -22.9710   -7.0110 N.am    1  UNL1       -0.3650
     35  H         15.8020  -22.2840   -7.7200 H       1  UNL1        0.1590
     36  H         14.6150  -23.1840   -6.7900 H       1  UNL1        0.1590
     37  O         16.3530  -24.4370   -5.4650 O.2     1  UNL1       -0.2660
@<TRIPOS>BOND
     1    21    23    1
     2    21    19    2
     3    22    19    1
     4    22    18    2
     5    23    24    2
     6    19    17    1
     7    18    16    1
     8    24    20    1
     9    17    16    2
    10    17    20    1
    11    16    15    1
    12    20    13    2
    13     9    10    2
    14     9     8    1
    15    10    11    1
    16    15    14    2
    17    13    14    1
    18    13     4    1
    19     8     7    2
    20    11    12    2
    21     7    12    1
    22     7     6    1
    23     5     4    2
    24     4     3   am
    25    12     1    1
    26     6     3    1
    27     3     2    1
    28     1     2    1
    29     1    25    1
    30    26    25    1
    31    25    27    1
    32    27    28    2
    33    27    32    1
    34    35    34    1
    35    28    29    1
    36    32    31    2
    37    34    36    1
    38    34    33   am
    39    29    33    1
    40    29    30    2
    41    31    30    1
    42    33    37    2
