@<TRIPOS>MOLECULE
7284_out_ligand_01.pdbqt
 35 37 0 0 0
SMALL
GASTEIGER

@<TRIPOS>ATOM
      1  C         20.9340  -22.1130  -11.1060 C.2     1  UNL1        0.0330
      2  C         20.3750  -21.1900  -11.9960 C.2     1  UNL1        0.0170
      3  C         19.0200  -20.8600  -11.9050 C.2     1  UNL1        0.0090
      4  C         18.1910  -21.4330  -10.9230 C.2     1  UNL1       -0.0390
      5  C         16.7420  -21.0320  -10.9090 C.3     1  UNL1        0.0500
      6  C         18.7560  -22.3820  -10.0500 C.2     1  UNL1        0.0860
      7  C         20.1150  -22.7290  -10.1550 C.2     1  UNL1        0.0420
      8  C         22.3790  -22.4770  -11.1420 C.2     1  UNL1        0.2520
      9  N         23.0470  -22.1880  -12.3120 N.am    1  UNL1       -0.3480
     10  H         22.6130  -21.5410  -12.9550 H       1  UNL1        0.1630
     11  O         22.9120  -22.9670  -10.1540 O.2     1  UNL1       -0.2680
     12  C         24.4980  -22.3190  -12.4200 C.3     1  UNL1        0.1160
     13  C         24.9220  -23.7580  -12.7330 C.3     1  UNL1        0.0370
     14  C         25.0060  -21.3510  -13.4820 C.2     1  UNL1        0.0000
     15  C         25.8890  -20.3020  -13.1640 C.2     1  UNL1        0.0760
     16  C         26.2990  -19.4220  -14.1710 C.2     1  UNL1        0.0400
     17  C         25.8420  -19.5690  -15.4880 C.2     1  UNL1        0.0390
     18  C         24.9700  -20.6020  -15.8150 C.2     1  UNL1        0.0690
     19  C         24.5540  -21.4770  -14.8110 C.2     1  UNL1        0.0480
     20  O         26.2890  -20.2180  -11.8570 O.2     1  UNL1       -0.3550
     21  C         26.9240  -19.0210  -11.4320 C.3     1  UNL1        0.2100
     22  O         24.4430  -20.8540  -17.0510 O.2     1  UNL1       -0.3560
     23  C         24.9570  -20.0890  -18.1330 C.3     1  UNL1        0.2100
     24  S         17.8050  -23.2080   -8.7760 S.O2    1  UNL1        0.2630
     25  O         16.5880  -23.7190   -9.3750 O.2     1  UNL1       -0.2000
     26  O         18.6870  -24.0980   -8.0520 O.2     1  UNL1       -0.2000
     27  N         17.3380  -21.9420   -7.7620 N.pl3   1  UNL1       -0.2800
     28  H         17.7260  -21.0510   -8.0560 H       1  UNL1        0.1790
     29  C         17.0980  -22.1640   -6.3720 C.2     1  UNL1        0.0480
     30  C         15.8830  -22.7060   -5.9400 C.2     1  UNL1        0.0300
     31  C         15.6560  -22.9560   -4.5870 C.2     1  UNL1        0.0020
     32  C         16.6360  -22.6480   -3.6510 C.2     1  UNL1        0.0010
     33  C         17.8400  -22.0780   -4.0680 C.2     1  UNL1        0.0090
     34  C         18.0840  -21.8180   -5.4270 C.2     1  UNL1       -0.0350
     35  C         19.3920  -21.1900   -5.8220 C.3     1  UNL1        0.0500
@<TRIPOS>BOND
     1    23    22    1
     2    22    18    1
     3    18    17    2
     4    18    19    1
     5    17    16    1
     6    19    14    2
     7    16    15    2
     8    14    15    1
     9    14    12    1
    10    15    20    1
    11    10     9    1
    12    13    12    1
    13    12     9    1
    14     9     8   am
    15     2     3    1
    16     2     1    2
    17     3     4    2
    18    20    21    1
    19     8     1    1
    20     8    11    2
    21     1     7    1
    22     4     5    1
    23     4     6    1
    24     7     6    2
    25     6    24    1
    26    25    24    2
    27    24    26    2
    28    24    27    1
    29    28    27    1
    30    27    29    1
    31    29    30    2
    32    29    34    1
    33    30    31    1
    34    35    34    1
    35    34    33    2
    36    31    32    2
    37    33    32    1
