@<TRIPOS>MOLECULE
72866_out_ligand_01.pdbqt
 28 31 0 0 0
SMALL
GASTEIGER

@<TRIPOS>ATOM
      1  C         22.8420  -21.9660  -11.7050 C.2     1  UNL1        0.1030
      2  C         22.7780  -21.4550  -12.9900 C.2     1  UNL1        0.1150
      3  N         21.4760  -21.1100  -13.2360 N.pl3   1  UNL1       -0.3490
      4  C         20.7060  -21.4150  -12.1470 C.2     1  UNL1        0.1390
      5  N         19.3790  -21.2130  -12.0890 N.2     1  UNL1       -0.2420
      6  C         18.8420  -21.5850  -10.9000 C.2     1  UNL1        0.1310
      7  C         19.5240  -22.1260   -9.8050 C.2     1  UNL1       -0.0070
      8  C         20.9100  -22.3150   -9.9480 C.2     1  UNL1        0.0300
      9  C         21.5270  -21.9480  -11.1590 C.2     1  UNL1        0.0350
     10  H         21.1080  -20.6980  -14.0820 H       1  UNL1        0.1670
     11  C         18.8280  -22.4790   -8.5600 C.2     1  UNL1       -0.0250
     12  C         19.4030  -22.2280   -7.3100 C.2     1  UNL1        0.0130
     13  C         18.7330  -22.5660   -6.1260 C.2     1  UNL1        0.0110
     14  C         17.4550  -23.1580   -6.1240 C.2     1  UNL1       -0.0240
     15  C         16.8990  -23.4160   -7.3910 C.2     1  UNL1        0.0110
     16  C         17.5630  -23.0820   -8.5800 C.2     1  UNL1        0.0130
     17  C         16.7270  -23.5420   -4.7370 C.3     1  UNL1        0.0850
     18  C         16.3320  -22.3260   -3.8180 C.3     1  UNL1        0.0430
     19  C         14.9270  -22.3710   -4.4390 C.3     1  UNL1        0.0070
     20  C         15.1850  -23.8510   -4.7620 C.3     1  UNL1        0.0430
     21  O         17.4900  -24.5520   -4.0310 O.3     1  UNL1       -0.3850
     22  H         18.3090  -24.0960   -3.7670 H       1  UNL1        0.2110
     23  S         24.2550  -22.5790  -10.9280 S.O2    1  UNL1        0.2410
     24  O         23.7650  -23.3080   -9.7830 O.2     1  UNL1       -0.2060
     25  O         25.0410  -23.1730  -11.9810 O.2     1  UNL1       -0.2060
     26  N         25.0890  -21.2450  -10.3500 N.3     1  UNL1       -0.2250
     27  H         24.5030  -20.4130  -10.3340 H       1  UNL1        0.1360
     28  H         25.9970  -21.1280  -10.7940 H       1  UNL1        0.1360
@<TRIPOS>BOND
     1    10     3    1
     2     3     2    1
     3     3     4    1
     4     2     1    2
     5     4     5    2
     6     4     9    1
     7     5     6    1
     8    25    23    2
     9     1     9    1
    10     1    23    1
    11     9     8    2
    12    23    26    1
    13    23    24    2
    14     6     7    2
    15    28    26    1
    16    26    27    1
    17     8     7    1
    18     7    11    1
    19    16    11    2
    20    16    15    1
    21    11    12    1
    22    15    14    2
    23    12    13    2
    24    13    14    1
    25    14    17    1
    26    20    17    1
    27    20    19    1
    28    17    21    1
    29    17    18    1
    30    19    18    1
    31    21    22    1
