@<TRIPOS>MOLECULE
72867_out_ligand_01.pdbqt
 36 40 0 0 0
SMALL
GASTEIGER

@<TRIPOS>ATOM
      1  C         19.2200  -22.5210  -10.0050 C.2     1  UNL1        0.0400
      2  C         18.0800  -22.2730  -10.7830 C.2     1  UNL1        0.0170
      3  C         18.1470  -21.3880  -11.8580 C.2     1  UNL1        0.0010
      4  C         19.3490  -20.7500  -12.1560 C.2     1  UNL1        0.0010
      5  C         20.4870  -20.9940  -11.3830 C.2     1  UNL1        0.0100
      6  C         20.4410  -21.8810  -10.2910 C.2     1  UNL1       -0.0230
      7  C         21.7070  -22.1800   -9.5260 C.3     1  UNL1        0.1850
      8  N         22.8730  -21.9870  -10.3730 N.pl3   1  UNL1       -0.2790
      9  C         23.0450  -22.3950  -11.6640 C.2     1  UNL1        0.1420
     10  C         24.3190  -21.9810  -11.9820 C.2     1  UNL1        0.1010
     11  N         24.8590  -21.3400  -10.8920 N.2     1  UNL1       -0.1580
     12  N         23.9640  -21.3510   -9.9120 N.2     1  UNL1        0.0050
     13  C         25.0220  -22.1710  -13.2400 C.2     1  UNL1       -0.0040
     14  C         26.4180  -22.2760  -13.2410 C.2     1  UNL1        0.0150
     15  C         27.1210  -22.4670  -14.4340 C.2     1  UNL1        0.0140
     16  C         26.4360  -22.5600  -15.6560 C.2     1  UNL1       -0.0080
     17  C         27.0840  -22.7560  -16.8790 C.2     1  UNL1        0.1280
     18  C         25.0330  -22.4550  -15.6760 C.2     1  UNL1       -0.0220
     19  N         26.4560  -22.8520  -18.0740 N.2     1  UNL1       -0.2720
     20  C         25.1130  -22.7440  -18.0570 C.2     1  UNL1        0.1170
     21  C         24.3670  -22.5500  -16.9040 C.2     1  UNL1        0.0310
     22  C         24.3400  -22.2600  -14.4650 C.2     1  UNL1        0.0260
     23  C         19.0810  -23.4380   -8.8500 C.2     1  UNL1        0.2520
     24  O         19.8250  -24.4050   -8.7430 O.2     1  UNL1       -0.2680
     25  N         18.1000  -23.0990   -7.9580 N.am    1  UNL1       -0.3460
     26  H         17.4330  -22.3730   -8.1900 H       1  UNL1        0.1630
     27  CA        17.8050  -23.9180   -6.7920 C.3     1  UNL1        0.1410
     28  C         16.4350  -24.6260   -6.9110 C.3     1  UNL1        0.1940
     29  O         15.8510  -24.5080   -8.2100 O.3     1  UNL1       -0.3990
     30  H         14.9800  -24.9590   -8.1720 H       1  UNL1        0.2090
     31  C         17.9980  -23.0820   -5.5360 C.2     1  UNL1       -0.0330
     32  C         17.5050  -23.4780   -4.2830 C.2     1  UNL1        0.0090
     33  C         17.6820  -22.6660   -3.1600 C.2     1  UNL1        0.0010
     34  C         18.3500  -21.4480   -3.2730 C.2     1  UNL1        0.0000
     35  C         18.8280  -21.0320   -4.5100 C.2     1  UNL1        0.0010
     36  C         18.6440  -21.8400   -5.6360 C.2     1  UNL1        0.0090
@<TRIPOS>BOND
     1    19    20    2
     2    19    17    1
     3    20    21    1
     4    21    18    2
     5    17    16    2
     6    18    16    1
     7    18    22    1
     8    16    15    1
     9    22    13    2
    10    15    14    2
    11    14    13    1
    12    13    10    1
    13     4     3    2
    14     4     5    1
    15    10     9    2
    16    10    11    1
    17     3     2    1
    18     9     8    1
    19     5     6    2
    20    11    12    2
    21     2     1    2
    22     8    12    1
    23     8     7    1
    24     6     1    1
    25     6     7    1
    26     1    23    1
    27    23    24    2
    28    23    25   am
    29    29    30    1
    30    29    28    1
    31    26    25    1
    32    25    27    1
    33    28    27    1
    34    27    31    1
    35    36    31    2
    36    36    35    1
    37    31    32    1
    38    35    34    2
    39    32    33    2
    40    34    33    1
