@<TRIPOS>MOLECULE
72869_out_ligand_01.pdbqt
 27 29 0 0 0
SMALL
GASTEIGER

@<TRIPOS>ATOM
      1  N         20.1700  -22.6230  -10.3210 N.am    1  UNL1       -0.3230
      2  C         19.0330  -21.8460  -10.4180 C.2     1  UNL1        0.2590
      3  O         18.9490  -20.7520  -10.9630 O.2     1  UNL1       -0.2670
      4  H         20.0310  -23.5670   -9.9870 H       1  UNL1        0.1690
      5  C         17.8500  -22.4830   -9.8560 C.2     1  UNL1        0.0760
      6  C         16.5400  -22.3760  -10.3710 C.2     1  UNL1        0.1580
      7  N         15.6530  -23.0800   -9.6720 N.2     1  UNL1       -0.1840
      8  N         16.3730  -23.6000   -8.6620 N.pl3   1  UNL1       -0.2770
      9  C         15.6870  -24.3970   -7.6710 C.3     1  UNL1        0.1790
     10  C         17.7070  -23.2560   -8.7050 C.2     1  UNL1        0.0510
     11  C         18.6840  -23.6430   -7.6340 C.3     1  UNL1        0.0980
     12  C         18.6940  -22.7130   -6.4400 C.2     1  UNL1       -0.0520
     13  C         19.4710  -21.5450   -6.4580 C.2     1  UNL1        0.0070
     14  C         19.4730  -20.6770   -5.3640 C.2     1  UNL1        0.0010
     15  C         18.6920  -20.9610   -4.2470 C.2     1  UNL1        0.0000
     16  C         17.9040  -22.1100   -4.2220 C.2     1  UNL1        0.0010
     17  C         17.8990  -22.9780   -5.3140 C.2     1  UNL1        0.0070
     18  C         21.4800  -22.2910  -10.7190 C.2     1  UNL1        0.0350
     19  C         22.5710  -22.2460   -9.8480 C.2     1  UNL1        0.0290
     20  C         23.8420  -21.9170  -10.3250 C.2     1  UNL1        0.0030
     21  C         24.0350  -21.6330  -11.6760 C.2     1  UNL1        0.0100
     22  C         22.9570  -21.6750  -12.5700 C.2     1  UNL1       -0.0280
     23  C         21.6850  -22.0080  -12.0770 C.2     1  UNL1        0.0390
     24  C         23.1530  -21.3680  -14.0390 C.3     1  UNL1        0.1470
     25  C         24.6230  -21.2880  -14.4300 C.3     1  UNL1        0.0440
     26  O         22.5210  -20.1360  -14.3740 O.3     1  UNL1       -0.3910
     27  H         22.3230  -20.1590  -15.3270 H       1  UNL1        0.2100
@<TRIPOS>BOND
     1    27    26    1
     2    25    24    1
     3    26    24    1
     4    24    22    1
     5    22    23    1
     6    22    21    2
     7    23    18    2
     8    21    20    1
     9     3     2    2
    10    18     1    1
    11    18    19    1
    12     2     1   am
    13     2     5    1
    14     6     5    1
    15     6     7    2
    16    20    19    2
    17     1     4    1
    18     5    10    2
    19     7     8    1
    20    10     8    1
    21    10    11    1
    22     8     9    1
    23    11    12    1
    24    13    12    2
    25    13    14    1
    26    12    17    1
    27    14    15    2
    28    17    16    2
    29    15    16    1
