@<TRIPOS>MOLECULE
72880_out_ligand_01.pdbqt
 33 35 0 0 0
SMALL
GASTEIGER

@<TRIPOS>ATOM
      1  C         20.0310  -23.5610   -8.7170 C.2     1  UNL1        0.2730
      2  O         20.6980  -24.5880   -8.7530 O.2     1  UNL1       -0.2660
      3  N         20.2870  -22.3770   -9.3700 N.am    1  UNL1       -0.3190
      4  H         19.7280  -21.5690   -9.1160 H       1  UNL1        0.1690
      5  C         21.2970  -22.1030  -10.3180 C.2     1  UNL1        0.0690
      6  C         22.6580  -22.0570  -10.0030 C.2     1  UNL1        0.0490
      7  C         23.5990  -21.7690  -10.9970 C.2     1  UNL1        0.0340
      8  C         23.1810  -21.5440  -12.3140 C.2     1  UNL1        0.0200
      9  C         21.8220  -21.6030  -12.6390 C.2     1  UNL1        0.0400
     10  C         20.8760  -21.8830  -11.6500 C.2     1  UNL1        0.0950
     11  C         25.0390  -21.7410  -10.6320 C.2     1  UNL1        0.2490
     12  N         25.6120  -22.9300  -10.2690 N.am    1  UNL1       -0.3660
     13  H         25.1960  -23.8150  -10.5190 H       1  UNL1        0.1590
     14  H         26.6190  -22.9070  -10.1660 H       1  UNL1        0.1590
     15  O         25.6970  -20.7110  -10.6750 O.2     1  UNL1       -0.2680
     16  O         19.5180  -21.9650  -11.8510 O.2     1  UNL1       -0.3440
     17  C         18.7340  -20.7670  -11.7980 C.3     1  UNL1        0.2460
     18  C         17.3110  -21.0340  -11.3280 C.3     1  UNL1        0.3770
     19  F         17.3450  -21.7600  -10.1810 F       1  UNL1       -0.2120
     20  F         16.7000  -19.8610  -11.0250 F       1  UNL1       -0.2120
     21  C         18.8630  -23.4680   -7.7710 C.ar    1  UNL1        0.1100
     22  C         18.8540  -22.6780   -6.6740 C.ar    1  UNL1       -0.0180
     23  C         19.9590  -21.7200   -6.3110 C.3     1  UNL1        0.0520
     24  C         17.6470  -22.7200   -5.8010 C.ar    1  UNL1       -0.0120
     25  C         17.5550  -21.9990   -4.5980 C.2     1  UNL1        0.0130
     26  C         16.5450  -23.5130   -6.1680 C.ar    1  UNL1        0.0430
     27  C         16.4040  -22.0620   -3.8030 C.2     1  UNL1        0.0010
     28  C         15.3220  -22.8480   -4.1920 C.2     1  UNL1        0.0010
     29  C         15.3900  -23.5760   -5.3740 C.2     1  UNL1        0.0180
     30  C         16.6030  -24.3050   -7.4180 C.ar    1  UNL1        0.2570
     31  N         17.7750  -24.2310   -8.1210 N.ar    1  UNL1       -0.3180
     32  O         15.6630  -24.9950   -7.7950 O.2     1  UNL1       -0.2670
     33  H         17.8080  -24.7430   -8.9970 H       1  UNL1        0.1690
@<TRIPOS>BOND
     1     9     8    2
     2     9    10    1
     3     8     7    1
     4    16    17    1
     5    16    10    1
     6    17    18    1
     7    10     5    2
     8    18    20    1
     9    18    19    1
    10     7    11    1
    11     7     6    2
    12    15    11    2
    13    11    12   am
    14    13    12    1
    15     5     6    1
    16     5     3    1
    17    12    14    1
    18     3     4    1
    19     3     1   am
    20    33    31    1
    21     2     1    2
    22     1    21    1
    23    31    21   ar
    24    31    30   ar
    25    32    30    2
    26    21    22   ar
    27    30    26   ar
    28    22    23    1
    29    22    24   ar
    30    26    24   ar
    31    26    29    1
    32    24    25    1
    33    29    28    2
    34    25    27    2
    35    28    27    1
