@<TRIPOS>MOLECULE
72886_out_ligand_01.pdbqt
 32 35 0 0 0
SMALL
GASTEIGER

@<TRIPOS>ATOM
      1  C         20.1390  -22.0700  -10.2010 C.2     1  UNL1        0.0350
      2  C         19.7410  -21.6120  -11.4540 C.2     1  UNL1        0.0290
      3  C         20.6830  -21.4200  -12.4650 C.2     1  UNL1        0.0030
      4  C         22.0350  -21.6810  -12.2340 C.2     1  UNL1        0.0100
      5  C         22.4740  -22.1390  -10.9830 C.2     1  UNL1       -0.0190
      6  C         21.5030  -22.3190   -9.9750 C.2     1  UNL1        0.0390
      7  N         19.2600  -22.2930   -9.1200 N.am    1  UNL1       -0.3220
      8  C         17.9840  -22.8280   -9.1680 C.2     1  UNL1        0.2720
      9  O         17.4420  -23.2720  -10.1730 O.2     1  UNL1       -0.2660
     10  H         19.6570  -22.1520   -8.2030 H       1  UNL1        0.1690
     11  C         17.3130  -22.8560   -7.8780 C.2     1  UNL1        0.1020
     12  N         17.8010  -23.4010   -6.7120 N.pl3   1  UNL1       -0.3490
     13  C         16.9040  -23.2450   -5.6830 C.2     1  UNL1        0.0820
     14  H         18.7120  -23.8250   -6.5950 H       1  UNL1        0.1660
     15  C         16.9890  -23.6560   -4.3550 C.2     1  UNL1        0.1430
     16  C         15.8070  -22.5480   -6.1790 C.2     1  UNL1        0.0020
     17  C         15.9380  -23.3640   -3.4960 C.2     1  UNL1        0.0450
     18  F         18.0620  -24.3230   -3.9090 F       1  UNL1       -0.2040
     19  C         14.8240  -22.6680   -3.9660 C.2     1  UNL1        0.0110
     20  C         14.7290  -22.2430   -5.3100 C.2     1  UNL1       -0.0490
     21  C         13.4990  -21.4910   -5.7390 C.3     1  UNL1        0.0490
     22  C         16.0860  -22.2960   -7.5530 C.2     1  UNL1        0.0490
     23  C         23.9460  -22.4110  -10.6880 C.3     1  UNL1        0.1390
     24  C         24.1250  -23.5150   -9.6440 C.3     1  UNL1        0.0540
     25  N         24.6780  -21.2250  -10.2860 N.am    1  UNL1       -0.3210
     26  C         25.7030  -20.9130  -11.1410 C.2     1  UNL1        0.3240
     27  H         24.5390  -20.7040   -9.4320 H       1  UNL1        0.1650
     28  O         26.4870  -19.9960  -10.9820 O.2     1  UNL1       -0.2470
     29  N         25.7080  -21.8010  -12.1560 N.am    1  UNL1       -0.2770
     30  C         24.7580  -22.7570  -11.9640 C.2     1  UNL1        0.2580
     31  H         26.3910  -21.8100  -12.8950 H       1  UNL1        0.1730
     32  O         24.6090  -23.7350  -12.6830 O.2     1  UNL1       -0.2700
@<TRIPOS>BOND
     1    31    29    1
     2    32    30    2
     3     3     4    2
     4     3     2    1
     5     4     5    1
     6    29    30   am
     7    29    26   am
     8    30    23    1
     9     2     1    2
    10    26    28    2
    11    26    25   am
    12     5    23    1
    13     5     6    2
    14    23    25    1
    15    23    24    1
    16    25    27    1
    17     1     6    1
    18     1     7    1
    19     9     8    2
    20     8     7   am
    21     8    11    1
    22     7    10    1
    23    11    22    2
    24    11    12    1
    25    22    16    1
    26    12    14    1
    27    12    13    1
    28    16    13    2
    29    16    20    1
    30    21    20    1
    31    13    15    1
    32    20    19    2
    33    15    18    1
    34    15    17    2
    35    19    17    1
