@<TRIPOS>MOLECULE
72888_out_ligand_01.pdbqt
 35 37 0 0 0
SMALL
GASTEIGER

@<TRIPOS>ATOM
      1  N         22.0370  -22.2890  -10.2310 N.am    1  UNL1       -0.3250
      2  C         21.4960  -23.2710   -9.4050 C.2     1  UNL1        0.2560
      3  O         22.0350  -24.3430   -9.1450 O.2     1  UNL1       -0.2700
      4  H         21.4060  -21.5530  -10.5290 H       1  UNL1        0.1690
      5  C         20.1310  -22.8600   -8.7720 C.3     1  UNL1        0.2540
      6  O         19.3980  -23.9330   -8.1850 O.2     1  UNL1       -0.3320
      7  C         18.6020  -23.6550   -7.1110 C.2     1  UNL1        0.0720
      8  C         17.4850  -24.3880   -6.7130 C.2     1  UNL1        0.0380
      9  C         16.7420  -23.9820   -5.5990 C.2     1  UNL1        0.0280
     10  C         17.1070  -22.8400   -4.8820 C.2     1  UNL1        0.0560
     11 CL         16.1470  -22.4060   -3.5130 Cl      1  UNL1       -0.0830
     12  C         18.2160  -22.0940   -5.2900 C.2     1  UNL1        0.0580
     13 CL         18.7300  -20.6670   -4.4610 Cl      1  UNL1       -0.0820
     14  C         18.9530  -22.5000   -6.4060 C.2     1  UNL1        0.0620
     15  C         19.2020  -22.2390   -9.8130 C.2     1  UNL1       -0.0200
     16  C         19.7120  -21.3900  -10.8100 C.2     1  UNL1        0.0100
     17  C         18.8580  -20.8080  -11.7480 C.2     1  UNL1        0.0010
     18  C         17.4900  -21.0720  -11.7050 C.2     1  UNL1        0.0000
     19  C         16.9740  -21.9220  -10.7290 C.2     1  UNL1        0.0010
     20  C         17.8240  -22.5070   -9.7890 C.2     1  UNL1        0.0100
     21  C         23.3080  -22.2930  -10.8400 C.2     1  UNL1        0.0350
     22  C         24.3530  -21.6760  -10.1390 C.2     1  UNL1        0.0290
     23  C         25.6480  -21.6440  -10.6620 C.2     1  UNL1        0.0030
     24  C         25.9160  -22.2370  -11.8930 C.2     1  UNL1        0.0170
     25  C         24.8790  -22.8590  -12.5980 C.2     1  UNL1        0.0340
     26  C         23.5810  -22.8970  -12.0690 C.2     1  UNL1        0.0460
     27  C         25.1330  -23.5310  -13.8970 C.2     1  UNL1        0.2590
     28  N         24.9820  -22.7210  -15.0050 N.am    1  UNL1       -0.2800
     29  C         24.6810  -23.2080  -16.2480 C.2     1  UNL1        0.2980
     30  H         24.5980  -21.8040  -14.8510 H       1  UNL1        0.1730
     31  N         24.5460  -22.2010  -17.1640 N.am    1  UNL1       -0.2540
     32  O         24.5240  -24.3670  -16.5940 O.2     1  UNL1       -0.2540
     33  H         25.2630  -21.4890  -17.1390 H       1  UNL1        0.1280
     34  H         24.4050  -22.5780  -18.0960 H       1  UNL1        0.1280
     35  O         25.5300  -24.6880  -13.8870 O.2     1  UNL1       -0.2670
@<TRIPOS>BOND
     1    34    31    1
     2    31    33    1
     3    31    29   am
     4    32    29    2
     5    29    28   am
     6    28    30    1
     7    28    27   am
     8    27    35    2
     9    27    25    1
    10    25    26    1
    11    25    24    2
    12    26    21    2
    13    24    23    1
    14    17    18    2
    15    17    16    1
    16    18    19    1
    17    21     1    1
    18    21    22    1
    19    16    15    2
    20    19    20    2
    21    23    22    2
    22     4     1    1
    23     1     2   am
    24    15    20    1
    25    15     5    1
    26     2     3    2
    27     2     5    1
    28     5     6    1
    29     6     7    1
    30     7     8    2
    31     7    14    1
    32     8     9    1
    33    14    12    2
    34     9    10    2
    35    12    10    1
    36    12    13    1
    37    10    11    1
