@<TRIPOS>MOLECULE
72890_out_ligand_01.pdbqt
 35 38 0 0 0
SMALL
GASTEIGER

@<TRIPOS>ATOM
      1  C         22.1070  -21.7740  -11.5670 C.2     1  UNL1        0.2610
      2  O         22.3030  -21.4980  -10.3860 O.2     1  UNL1       -0.2670
      3  N         20.8650  -21.9020  -12.1680 N.am    1  UNL1       -0.3230
      4  H         20.8550  -22.0280  -13.1710 H       1  UNL1        0.1690
      5  C         19.5980  -21.7590  -11.5640 C.2     1  UNL1        0.0350
      6  C         18.6160  -20.8690  -12.0030 C.2     1  UNL1        0.0290
      7  C         17.3810  -20.7920  -11.3510 C.2     1  UNL1        0.0030
      8  C         17.1110  -21.6080  -10.2530 C.2     1  UNL1        0.0170
      9  C         18.0830  -22.5080   -9.8090 C.2     1  UNL1        0.0340
     10  C         19.3250  -22.5690  -10.4550 C.2     1  UNL1        0.0460
     11  C         17.8550  -23.4030   -8.6430 C.2     1  UNL1        0.2520
     12  O         18.8070  -23.9370   -8.0840 O.2     1  UNL1       -0.2680
     13  N         16.5460  -23.6140   -8.2780 N.am    1  UNL1       -0.3530
     14  H         15.7890  -23.2750   -8.8560 H       1  UNL1        0.1630
     15  C         16.2190  -24.5010   -7.1870 C.3     1  UNL1        0.1610
     16  C         16.2000  -23.7570   -5.8780 C.2     1  UNL1       -0.0410
     17  C         15.0970  -22.9710   -5.5130 C.2     1  UNL1        0.0090
     18  C         15.0830  -22.3020   -4.2870 C.2     1  UNL1        0.0010
     19  C         16.1640  -22.4150   -3.4130 C.2     1  UNL1        0.0000
     20  C         17.2590  -23.2100   -3.7590 C.2     1  UNL1        0.0010
     21  C         17.2740  -23.8830   -4.9820 C.2     1  UNL1        0.0090
     22  C         23.2260  -21.9640  -12.4830 C.2     1  UNL1        0.0910
     23  C         23.4000  -21.3240  -13.7000 C.2     1  UNL1        0.1200
     24  N         24.5630  -21.8580  -14.2740 N.pl3   1  UNL1       -0.2220
     25  N         25.2220  -22.6460  -13.3760 N.2     1  UNL1       -0.1770
     26  C         24.3950  -22.7340  -12.3370 C.2     1  UNL1        0.1590
     27  N         22.6270  -20.3470  -14.2580 N.pl3   1  UNL1       -0.2860
     28  H         22.3530  -20.5030  -15.2350 H       1  UNL1        0.1250
     29  H         21.8280  -20.0040  -13.7260 H       1  UNL1        0.1250
     30  C         25.0930  -21.7060  -15.5930 C.2     1  UNL1        0.0600
     31  C         26.0090  -20.6720  -15.8480 C.2     1  UNL1        0.0310
     32  C         26.5490  -20.5030  -17.1260 C.2     1  UNL1        0.0020
     33  C         26.1930  -21.3720  -18.1530 C.2     1  UNL1        0.0000
     34  C         25.3030  -22.4160  -17.9050 C.2     1  UNL1        0.0020
     35  C         24.7550  -22.5860  -16.6290 C.2     1  UNL1        0.0310
@<TRIPOS>BOND
     1    33    34    2
     2    33    32    1
     3    34    35    1
     4    32    31    2
     5    35    30    2
     6    31    30    1
     7    30    24    1
     8    28    27    1
     9    24    23    1
    10    24    25    1
    11    27    29    1
    12    27    23    1
    13    23    22    2
    14    25    26    2
    15     4     3    1
    16    22    26    1
    17    22     1    1
    18     3     1   am
    19     3     5    1
    20     6     5    2
    21     6     7    1
    22     1     2    2
    23     5    10    1
    24     7     8    2
    25    10     9    2
    26     8     9    1
    27     9    11    1
    28    14    13    1
    29    11    13   am
    30    11    12    2
    31    13    15    1
    32    15    16    1
    33    16    17    2
    34    16    21    1
    35    17    18    1
    36    21    20    2
    37    18    19    2
    38    20    19    1
