@<TRIPOS>MOLECULE
728_out_ligand_01.pdbqt
 35 37 0 0 0
SMALL
GASTEIGER

@<TRIPOS>ATOM
      1  C         25.2230  -21.1990  -12.1010 C.2     1  UNL1        0.0760
      2  C         26.1840  -20.2370  -11.7760 C.2     1  UNL1        0.0250
      3  C         26.7320  -19.4460  -12.7860 C.2     1  UNL1        0.0030
      4  C         26.3160  -19.6170  -14.1080 C.2     1  UNL1        0.0230
      5  C         25.3470  -20.5770  -14.4290 C.2     1  UNL1        0.0460
      6  C         24.9260  -20.7420  -15.7900 C.1     1  UNL1        0.0990
      7  N         24.5920  -20.8810  -16.8920 N.1     1  UNL1       -0.1910
      8  C         24.7930  -21.3720  -13.4200 C.2     1  UNL1        0.0470
      9  S         24.5230  -22.1880  -10.7990 S.O2    1  UNL1        0.2450
     10  O         23.8360  -21.3000   -9.8890 O.2     1  UNL1       -0.2060
     11  O         25.5530  -23.1040  -10.3630 O.2     1  UNL1       -0.2060
     12  N         23.3130  -23.0260  -11.6680 N.pl3   1  UNL1       -0.1810
     13  H         23.5790  -22.9920  -12.6550 H       1  UNL1        0.1460
     14  C         21.9900  -22.5050  -11.4760 C.2     1  UNL1        0.0240
     15  C         21.4810  -21.5660  -12.3680 C.2     1  UNL1        0.0250
     16  C         20.1800  -21.0850  -12.2100 C.2     1  UNL1        0.0100
     17  C         19.3610  -21.5300  -11.1570 C.2     1  UNL1       -0.0390
     18  C         17.9670  -20.9750  -11.0680 C.3     1  UNL1        0.0500
     19  C         19.8890  -22.4820  -10.2640 C.2     1  UNL1        0.0870
     20  C         21.1960  -22.9770  -10.4360 C.2     1  UNL1        0.0500
     21  S         18.9720  -23.1560   -8.8870 S.O2    1  UNL1        0.2630
     22  O         19.6650  -24.3560   -8.4600 O.2     1  UNL1       -0.2000
     23  O         17.5580  -23.1920   -9.1730 O.2     1  UNL1       -0.2000
     24  N         19.2660  -22.0150   -7.6670 N.pl3   1  UNL1       -0.2810
     25  H         20.2700  -21.8820   -7.5510 H       1  UNL1        0.1790
     26  C         18.4770  -22.0870   -6.4880 C.2     1  UNL1        0.0430
     27  C         18.9150  -21.4410   -5.3330 C.2     1  UNL1        0.0300
     28  C         18.1350  -21.4780   -4.1800 C.2     1  UNL1        0.0030
     29  C         16.9120  -22.1520   -4.1860 C.2     1  UNL1        0.0160
     30  C         16.4550  -22.7910   -5.3500 C.2     1  UNL1        0.0500
     31  C         17.2550  -22.7570   -6.5030 C.2     1  UNL1        0.0460
     32  C         15.1410  -23.5310   -5.3480 C.3     1  UNL1        0.4170
     33  F         14.0630  -22.6990   -5.3810 F       1  UNL1       -0.1660
     34  F         14.9940  -24.3750   -6.4060 F       1  UNL1       -0.1660
     35  F         14.9870  -24.2990   -4.2340 F       1  UNL1       -0.1660
@<TRIPOS>BOND
     1     7     6    3
     2     6     5    1
     3     5     4    2
     4     5     8    1
     5     4     3    1
     6     8     1    2
     7     3     2    2
     8    13    12    1
     9    15    16    1
    10    15    14    2
    11    16    17    2
    12     1     2    1
    13     1     9    1
    14    12    14    1
    15    12     9    1
    16    14    20    1
    17    17    18    1
    18    17    19    1
    19     9    11    2
    20     9    10    2
    21    20    19    2
    22    19    21    1
    23    23    21    2
    24    21    22    2
    25    21    24    1
    26    24    25    1
    27    24    26    1
    28    31    26    2
    29    31    30    1
    30    26    27    1
    31    34    32    1
    32    33    32    1
    33    30    32    1
    34    30    29    2
    35    32    35    1
    36    27    28    2
    37    29    28    1
