@<TRIPOS>MOLECULE
72902_out_ligand_01.pdbqt
 32 35 0 0 0
SMALL
GASTEIGER

@<TRIPOS>ATOM
      1  C         21.8540  -22.9130   -8.9200 C.2     1  UNL1        0.0320
      2  C         21.4800  -24.2450   -9.1320 C.2     1  UNL1        0.0200
      3  C         20.3200  -24.7510   -8.5410 C.2     1  UNL1        0.0380
      4  C         19.5240  -23.9300   -7.7370 C.2     1  UNL1        0.0780
      5  C         19.9140  -22.6100   -7.4940 C.2     1  UNL1        0.0380
      6  C         21.0750  -22.1000   -8.0860 C.2     1  UNL1        0.0200
      7  O         18.4050  -24.5310   -7.2020 O.2     1  UNL1       -0.2900
      8  C         17.4560  -23.6950   -6.6550 C.2     1  UNL1        0.2060
      9  N         17.6960  -23.2780   -5.3840 N.2     1  UNL1       -0.2330
     10  C         16.7310  -22.5080   -4.8380 C.2     1  UNL1        0.1380
     11  C         15.5760  -22.1680   -5.5220 C.2     1  UNL1        0.1370
     12  N         15.3260  -22.5890   -6.7830 N.2     1  UNL1       -0.2480
     13  C         16.2810  -23.3760   -7.3500 C.2     1  UNL1        0.1510
     14  S         15.9270  -23.9600   -8.9950 S.3     1  UNL1       -0.0660
     15  C         16.9200  -22.8240   -9.9440 C.2     1  UNL1        0.0070
     16  C         16.4820  -21.5070  -10.1290 C.2     1  UNL1        0.0220
     17  C         17.2510  -20.6090  -10.8730 C.2     1  UNL1        0.0430
     18  C         18.4490  -21.0350  -11.4340 C.2     1  UNL1        0.1160
     19  F         19.1860  -20.1730  -12.1470 F       1  UNL1       -0.2060
     20  C         18.8920  -22.3420  -11.2690 C.2     1  UNL1        0.0430
     21  C         18.1250  -23.2390  -10.5250 C.2     1  UNL1        0.0220
     22  C         23.0980  -22.4130   -9.5700 C.2     1  UNL1        0.2510
     23  O         23.4720  -21.2630   -9.3730 O.2     1  UNL1       -0.2680
     24  N         23.7850  -23.3230  -10.3450 N.am    1  UNL1       -0.3530
     25  H         23.5620  -24.3030  -10.2520 H       1  UNL1        0.1630
     26  C         25.0850  -23.0090  -10.8960 C.3     1  UNL1        0.1610
     27  C         25.0180  -22.9010  -12.3980 C.2     1  UNL1       -0.0410
     28  C         24.4990  -21.7520  -13.0130 C.2     1  UNL1        0.0090
     29  C         24.4210  -21.6700  -14.4050 C.2     1  UNL1        0.0010
     30  C         24.8540  -22.7350  -15.1930 C.2     1  UNL1        0.0000
     31  C         25.3620  -23.8850  -14.5930 C.2     1  UNL1        0.0010
     32  C         25.4420  -23.9690  -13.2020 C.2     1  UNL1        0.0090
@<TRIPOS>BOND
     1    30    31    2
     2    30    29    1
     3    31    32    1
     4    29    28    2
     5    32    27    2
     6    28    27    1
     7    27    26    1
     8    19    18    1
     9    18    20    2
    10    18    17    1
    11    20    21    1
    12    26    24    1
    13    17    16    2
    14    21    15    2
    15    24    25    1
    16    24    22   am
    17    16    15    1
    18    15    14    1
    19    22    23    2
    20    22     1    1
    21     2     1    2
    22     2     3    1
    23    14    13    1
    24     1     6    1
    25     3     4    2
    26     6     5    2
    27     4     5    1
    28     4     7    1
    29    13    12    2
    30    13     8    1
    31     7     8    1
    32    12    11    1
    33     8     9    2
    34    11    10    2
    35     9    10    1
