@<TRIPOS>MOLECULE
72903_out_ligand_01.pdbqt
 29 32 0 0 0
SMALL
GASTEIGER

@<TRIPOS>ATOM
      1  C         19.7390  -22.8420  -10.0150 C.2     1  UNL1       -0.0330
      2  C         20.2670  -21.7840  -10.7660 C.2     1  UNL1        0.0120
      3  C         21.6500  -21.6210  -10.8870 C.2     1  UNL1        0.0180
      4  C         22.5240  -22.5140  -10.2550 C.2     1  UNL1        0.0320
      5  C         22.0030  -23.5530   -9.4740 C.2     1  UNL1        0.0180
      6  C         20.6170  -23.7120   -9.3550 C.2     1  UNL1        0.0120
      7  C         18.2920  -23.0270   -9.8400 C.2     1  UNL1        0.0540
      8  C         17.6250  -22.9050   -8.6790 C.2     1  UNL1        0.1440
      9  O         18.2780  -22.5690   -7.4990 O.2     1  UNL1       -0.3030
     10  C         16.1390  -23.1260   -8.7100 C.2     1  UNL1        0.2800
     11  C         17.5370  -22.4680   -6.3510 C.2     1  UNL1        0.1030
     12  C         18.2140  -22.1440   -5.1770 C.2     1  UNL1        0.0390
     13  C         16.1590  -22.6750   -6.3300 C.2     1  UNL1        0.0690
     14  C         17.5070  -22.0280   -3.9790 C.2     1  UNL1        0.0030
     15  C         16.1260  -22.2360   -3.9600 C.2     1  UNL1        0.0020
     16  C         15.4490  -22.5610   -5.1370 C.2     1  UNL1        0.0320
     17  N         15.4960  -22.9970   -7.5120 N.am    1  UNL1       -0.3190
     18  H         14.4970  -23.1480   -7.5210 H       1  UNL1        0.1690
     19  O         15.5190  -23.4040   -9.7330 O.2     1  UNL1       -0.2650
     20  C         23.9890  -22.3020  -10.4110 C.2     1  UNL1        0.2510
     21  O         24.4690  -21.1830  -10.2690 O.2     1  UNL1       -0.2680
     22  N         24.7360  -23.4130  -10.7470 N.am    1  UNL1       -0.3540
     23  H         24.2480  -24.2250  -11.1020 H       1  UNL1        0.1620
     24  C         26.1500  -23.3050  -11.0600 C.3     1  UNL1        0.1550
     25  C         26.5170  -23.5870  -12.5270 C.3     1  UNL1        0.1390
     26  C         25.3290  -23.9900  -13.3950 C.3     1  UNL1        0.0350
     27  C         24.8700  -22.6750  -13.9710 C.3     1  UNL1        0.0290
     28  C         26.1830  -21.9550  -14.1730 C.3     1  UNL1        0.1680
     29  O         27.0380  -22.3650  -13.0990 O.3     1  UNL1       -0.3840
@<TRIPOS>BOND
     1    28    27    1
     2    28    29    1
     3    27    26    1
     4    26    25    1
     5    29    25    1
     6    25    24    1
     7    23    22    1
     8    24    22    1
     9     3     2    1
    10     3     4    2
    11     2     1    2
    12    22    20   am
    13    20    21    2
    14    20     4    1
    15     4     5    1
    16     1     7    1
    17     1     6    1
    18     7     8    2
    19    19    10    2
    20     5     6    2
    21    10     8    1
    22    10    17   am
    23     8     9    1
    24    18    17    1
    25    17    13    1
    26     9    11    1
    27    11    13    2
    28    11    12    1
    29    13    16    1
    30    12    14    2
    31    16    15    2
    32    14    15    1
