@<TRIPOS>MOLECULE
72916_out_ligand_01.pdbqt
 33 37 0 0 0
SMALL
GASTEIGER

@<TRIPOS>ATOM
      1  C         23.0310  -21.7610  -12.6650 C.2     1  UNL1        0.0350
      2  C         23.8400  -22.1190  -11.5760 C.2     1  UNL1        0.0310
      3  C         23.2730  -22.4920  -10.3540 C.2     1  UNL1        0.0270
      4  C         21.8850  -22.5110  -10.2200 C.2     1  UNL1        0.0790
      5  C         21.0670  -22.1490  -11.2910 C.2     1  UNL1        0.0270
      6  C         21.6420  -21.7780  -12.5120 C.2     1  UNL1        0.0310
      7  S         21.1430  -22.9880   -8.6820 S.O2    1  UNL1        0.2590
      8  O         21.7410  -22.1590   -7.6570 O.2     1  UNL1       -0.2010
      9  O         21.1480  -24.4300   -8.5850 O.2     1  UNL1       -0.2010
     10  N         19.5640  -22.4540   -8.8360 N.3     1  UNL1       -0.3050
     11  H         19.5240  -21.5140   -9.2320 H       1  UNL1        0.1730
     12  C         18.4370  -22.8770   -7.9850 C.3     1  UNL1        0.0410
     13  C         17.1380  -22.5470   -8.7680 C.3     1  UNL1        0.0360
     14  C         15.8940  -22.9070   -7.9400 C.3     1  UNL1       -0.0120
     15  C         15.9210  -24.4090   -7.6180 C.3     1  UNL1        0.0090
     16  C         15.9140  -22.1050   -6.6290 C.3     1  UNL1        0.0090
     17  C         17.1940  -24.7520   -6.8280 C.3     1  UNL1       -0.0120
     18  C         17.2140  -23.9410   -5.5200 C.3     1  UNL1        0.0090
     19  C         18.4300  -24.3860   -7.6700 C.3     1  UNL1        0.0360
     20  C         17.1860  -22.4350   -5.8300 C.3     1  UNL1       -0.0120
     21  C         18.4240  -22.0670   -6.6720 C.3     1  UNL1        0.0360
     22  N         23.6930  -21.4010  -13.8570 N.am    1  UNL1       -0.3220
     23  C         24.5530  -22.1600  -14.6270 C.2     1  UNL1        0.2750
     24  O         24.8740  -23.3140  -14.3560 O.2     1  UNL1       -0.2660
     25  H         23.5090  -20.4650  -14.1920 H       1  UNL1        0.1690
     26  C         25.0630  -21.4920  -15.8140 C.ar    1  UNL1        0.1390
     27  N         24.9260  -22.0040  -17.0900 N.ar    1  UNL1       -0.2670
     28  N         25.4670  -21.2330  -18.0560 N.ar    1  UNL1       -0.1760
     29  C         24.2720  -23.2340  -17.4860 C.3     1  UNL1        0.1800
     30  C         25.9770  -20.1870  -17.4010 C.ar    1  UNL1        0.0700
     31  C         26.6680  -19.1090  -18.1510 C.3     1  UNL1        0.0740
     32  C         25.7540  -20.3090  -16.0130 C.ar    1  UNL1        0.0700
     33 BR         26.3470  -19.0370  -14.7630 Br      1  UNL1       -0.0460
@<TRIPOS>BOND
     1    31    30    1
     2    28    30   ar
     3    28    27   ar
     4    29    27    1
     5    30    32   ar
     6    27    26   ar
     7    32    26   ar
     8    32    33    1
     9    26    23    1
    10    23    24    2
    11    23    22   am
    12    25    22    1
    13    22     1    1
    14     1     6    2
    15     1     2    1
    16     6     5    1
    17     2     3    2
    18     5     4    2
    19     3     4    1
    20     4     7    1
    21    11    10    1
    22    10     7    1
    23    10    12    1
    24    13    12    1
    25    13    14    1
    26     7     9    2
    27     7     8    2
    28    12    19    1
    29    12    21    1
    30    14    15    1
    31    14    16    1
    32    19    17    1
    33    15    17    1
    34    17    18    1
    35    21    20    1
    36    16    20    1
    37    20    18    1
