@<TRIPOS>MOLECULE
72910_out_ligand_01.pdbqt
 32 36 0 0 0
SMALL
GASTEIGER

@<TRIPOS>ATOM
      1  C         16.0940  -23.2670   -7.7810 C.ar    1  UNL1        0.1710
      2  N         15.2100  -22.6240   -7.0470 N.ar    1  UNL1       -0.2210
      3  C         15.6580  -22.7620   -5.7590 C.ar    1  UNL1        0.1050
      4  C         15.1320  -22.3020   -4.5480 C.2     1  UNL1        0.0370
      5  C         15.8370  -22.6220   -3.3830 C.2     1  UNL1        0.0220
      6  C         17.0080  -23.3680   -3.4810 C.2     1  UNL1        0.1190
      7  N         17.5590  -23.8340   -4.6280 N.2     1  UNL1       -0.2410
      8  C         16.8360  -23.4990   -5.7180 C.ar    1  UNL1        0.1610
      9  N         17.1060  -23.8090   -7.0270 N.ar    1  UNL1       -0.3040
     10  S         16.0180  -23.4080   -9.5070 S.3     1  UNL1       -0.0870
     11  C         16.4580  -21.7210  -10.0160 C.3     1  UNL1        0.1210
     12  C         17.8300  -21.6490  -10.6470 C.2     1  UNL1       -0.0480
     13  C         18.3610  -20.4170  -11.0620 C.2     1  UNL1        0.0090
     14  C         19.6380  -20.3460  -11.6280 C.2     1  UNL1        0.0170
     15  C         20.3980  -21.5100  -11.7890 C.2     1  UNL1        0.0320
     16  C         19.8830  -22.7380  -11.3570 C.2     1  UNL1        0.0170
     17  C         18.6070  -22.8060  -10.7940 C.2     1  UNL1        0.0090
     18  C         21.7630  -21.4830  -12.3810 C.2     1  UNL1        0.2520
     19  O         21.9290  -21.0660  -13.5230 O.2     1  UNL1       -0.2680
     20  N         22.7880  -21.9170  -11.5600 N.am    1  UNL1       -0.3520
     21  H         22.5980  -22.0650  -10.5780 H       1  UNL1        0.1630
     22  C         24.1520  -21.9010  -11.9830 C.3     1  UNL1        0.0840
     23  C         25.2290  -21.3610  -11.0810 C.3     1  UNL1        0.0270
     24  C         25.1520  -22.8350  -11.3570 C.3     1  UNL1        0.0270
     25  C         18.2230  -24.6270   -7.4640 C.3     1  UNL1        0.1740
     26  C         19.4670  -23.8150   -7.7110 C.2     1  UNL1       -0.0010
     27  C         19.6000  -22.5070   -7.2180 C.2     1  UNL1        0.0120
     28  C         20.7660  -21.7720   -7.4550 C.2     1  UNL1        0.0010
     29  C         21.8170  -22.3370   -8.1760 C.2     1  UNL1        0.0030
     30  C         21.7050  -23.6430   -8.6540 C.2     1  UNL1        0.0430
     31  C         20.5390  -24.3670   -8.4180 C.2     1  UNL1        0.1240
     32  F         20.4610  -25.6240   -8.8790 F       1  UNL1       -0.2050
@<TRIPOS>BOND
     1    19    18    2
     2    18    15    1
     3    18    20   am
     4    22    20    1
     5    22    24    1
     6    22    23    1
     7    15    14    2
     8    15    16    1
     9    14    13    1
    10    20    21    1
    11    24    23    1
    12    16    17    2
    13    13    12    2
    14    17    12    1
    15    12    11    1
    16    11    10    1
    17    10     1    1
    18    32    31    1
    19    30    31    1
    20    30    29    2
    21    31    26    2
    22    29    28    1
    23     1     2   ar
    24     1     9   ar
    25    26    25    1
    26    26    27    1
    27    25     9    1
    28    28    27    2
    29     2     3   ar
    30     9     8   ar
    31     3     8   ar
    32     3     4    1
    33     8     7    1
    34     7     6    2
    35     4     5    2
    36     6     5    1
