@<TRIPOS>MOLECULE
72925_out_ligand_01.pdbqt
 34 37 0 0 0
SMALL
GASTEIGER

@<TRIPOS>ATOM
      1  C         22.2200  -22.6320   -8.9080 C.2     1  UNL1        0.0420
      2  C         21.4160  -21.9720   -7.9770 C.2     1  UNL1        0.0330
      3  C         20.2610  -22.5860   -7.4940 C.2     1  UNL1        0.0390
      4  C         19.9060  -23.8540   -7.9590 C.2     1  UNL1        0.0780
      5  C         20.7250  -24.5300   -8.8640 C.2     1  UNL1        0.0390
      6  C         21.8810  -23.9140   -9.3460 C.2     1  UNL1        0.0330
      7  O         18.7970  -24.5140   -7.4880 O.2     1  UNL1       -0.2910
      8  C         17.8980  -23.7620   -6.7440 C.2     1  UNL1        0.1850
      9  N         18.0280  -23.7980   -5.3900 N.2     1  UNL1       -0.2360
     10  C         17.1650  -23.0550   -4.6670 C.2     1  UNL1        0.1190
     11  C         16.1810  -22.2640   -5.2300 C.2     1  UNL1        0.0200
     12  C         16.0770  -22.2290   -6.6180 C.2     1  UNL1        0.0230
     13  C         16.9570  -22.9800   -7.4090 C.2     1  UNL1        0.0850
     14  C         16.7920  -22.9150   -8.8860 C.2     1  UNL1        0.2560
     15  O         15.8730  -23.5330   -9.4180 O.2     1  UNL1       -0.2680
     16  N         17.6840  -22.1480   -9.6070 N.am    1  UNL1       -0.3520
     17  H         18.4860  -21.7550   -9.1290 H       1  UNL1        0.1630
     18  C         17.6950  -22.1520  -11.0610 C.3     1  UNL1        0.0840
     19  C         17.7210  -20.7330  -11.6210 C.3     1  UNL1        0.0250
     20  C         19.1900  -20.3140  -11.5700 C.3     1  UNL1        0.0020
     21  C         20.0020  -21.6080  -11.5090 C.3     1  UNL1        0.0020
     22  C         18.9890  -22.7460  -11.6110 C.3     1  UNL1        0.0250
     23  N         23.3620  -21.9910   -9.4600 N.pl3   1  UNL1       -0.2810
     24  H         23.9500  -21.4450   -8.8340 H       1  UNL1        0.1790
     25  S         24.2860  -22.8200  -10.6110 S.O2    1  UNL1        0.2630
     26  O         23.3350  -23.4240  -11.5220 O.2     1  UNL1       -0.2000
     27  O         25.2900  -23.6190   -9.9420 O.2     1  UNL1       -0.2000
     28  C         25.1100  -21.5100  -11.4880 C.2     1  UNL1        0.0790
     29  C         26.0180  -20.6900  -10.8140 C.2     1  UNL1        0.0260
     30  C         26.6590  -19.6610  -11.5060 C.2     1  UNL1        0.0080
     31  C         26.4020  -19.4520  -12.8680 C.2     1  UNL1       -0.0620
     32  C         27.1210  -18.3660  -13.6130 C.3     1  UNL1        0.0480
     33  C         25.5160  -20.3070  -13.5390 C.2     1  UNL1        0.0080
     34  C         24.8680  -21.3350  -12.8520 C.2     1  UNL1        0.0260
@<TRIPOS>BOND
     1    32    31    1
     2    33    31    2
     3    33    34    1
     4    31    30    1
     5    34    28    2
     6    19    20    1
     7    19    18    1
     8    22    21    1
     9    22    18    1
    10    20    21    1
    11    26    25    2
    12    30    29    2
    13    28    29    1
    14    28    25    1
    15    18    16    1
    16    25    27    2
    17    25    23    1
    18    16    17    1
    19    16    14   am
    20    23     1    1
    21    23    24    1
    22    15    14    2
    23     6     1    2
    24     6     5    1
    25     1     2    1
    26    14    13    1
    27     5     4    2
    28     2     3    2
    29     4     3    1
    30     4     7    1
    31     7     8    1
    32    13     8    1
    33    13    12    2
    34     8     9    2
    35    12    11    1
    36     9    10    1
    37    11    10    2
