@<TRIPOS>MOLECULE
72928_out_ligand_01.pdbqt
 32 35 0 0 0
SMALL
GASTEIGER

@<TRIPOS>ATOM
      1  C         21.4670  -23.2180   -8.6090 C.2     1  UNL1        0.0320
      2  C         20.9040  -22.1770   -7.8620 C.2     1  UNL1        0.0190
      3  C         19.6720  -22.3520   -7.2140 C.2     1  UNL1        0.0320
      4  C         18.9850  -23.5700   -7.3030 C.2     1  UNL1        0.0570
      5  C         19.5780  -24.6230   -8.0270 C.2     1  UNL1        0.0320
      6  C         20.8070  -24.4480   -8.6720 C.2     1  UNL1        0.0190
      7  N         17.7280  -23.8040   -6.6700 N.ar    1  UNL1       -0.2170
      8  N         17.6630  -23.8680   -5.3080 N.ar    1  UNL1        0.0030
      9  N         16.3890  -24.0290   -4.9930 N.ar    1  UNL1        0.0190
     10  N         15.6170  -24.1260   -6.1100 N.ar    1  UNL1       -0.1350
     11  C         16.4330  -24.0020   -7.1370 C.ar    1  UNL1        0.2030
     12  S         15.9320  -24.2200   -8.7810 S.3     1  UNL1       -0.0850
     13  C         15.8030  -22.4950   -9.3440 C.3     1  UNL1        0.1210
     14  C         16.9750  -22.0870  -10.2060 C.2     1  UNL1       -0.0480
     15  C         17.0700  -20.7810  -10.7120 C.2     1  UNL1        0.0110
     16  C         18.1640  -20.4010  -11.4900 C.2     1  UNL1        0.0430
     17  C         19.1630  -21.3270  -11.7680 C.2     1  UNL1        0.1160
     18  F         20.2150  -20.9610  -12.5110 F       1  UNL1       -0.2060
     19  C         19.0920  -22.6250  -11.2770 C.2     1  UNL1        0.0430
     20  C         18.0000  -23.0060  -10.4950 C.2     1  UNL1        0.0110
     21  C         22.7730  -23.0770   -9.3140 C.2     1  UNL1        0.2560
     22  N         22.7790  -22.1670  -10.3560 N.am    1  UNL1       -0.3230
     23  H         21.8940  -21.7410  -10.6000 H       1  UNL1        0.1690
     24  O         23.7040  -23.7850   -8.9510 O.2     1  UNL1       -0.2670
     25  C         23.8620  -21.8490  -11.2050 C.2     1  UNL1        0.0370
     26  C         25.0820  -21.3370  -10.7590 C.2     1  UNL1        0.0300
     27  C         26.1180  -21.0590  -11.6630 C.2     1  UNL1        0.0120
     28  C         25.9440  -21.2820  -13.0300 C.2     1  UNL1       -0.0230
     29  C         27.0420  -21.0070  -14.0130 C.3     1  UNL1        0.0510
     30  C         24.7190  -21.7860  -13.4670 C.2     1  UNL1        0.1240
     31  C         23.6860  -22.0670  -12.5740 C.2     1  UNL1        0.0720
     32  F         24.5200  -22.0130  -14.7730 F       1  UNL1       -0.2050
@<TRIPOS>BOND
     1    32    30    1
     2    29    28    1
     3    30    28    2
     4    30    31    1
     5    28    27    1
     6    31    25    2
     7    18    17    1
     8    17    16    2
     9    17    19    1
    10    27    26    2
    11    16    15    1
    12    19    20    2
    13    25    26    1
    14    25    22    1
    15    15    14    2
    16    23    22    1
    17    20    14    1
    18    22    21   am
    19    14    13    1
    20    13    12    1
    21    21    24    2
    22    21     1    1
    23    12    11    1
    24     6     1    2
    25     6     5    1
    26     1     2    1
    27     5     4    2
    28     2     3    2
    29     4     3    1
    30     4     7    1
    31    11     7   ar
    32    11    10   ar
    33     7     8   ar
    34    10     9   ar
    35     8     9   ar
