@<TRIPOS>MOLECULE
72963_out_ligand_01.pdbqt
 31 33 0 0 0
SMALL
GASTEIGER

@<TRIPOS>ATOM
      1  C         16.8750  -20.6470  -11.2780 C.3     1  UNL1        0.0500
      2  C         18.2430  -21.2440  -11.0980 C.2     1  UNL1       -0.0390
      3  C         19.3050  -20.7120  -11.8540 C.2     1  UNL1        0.0090
      4  C         20.6030  -21.2140  -11.7290 C.2     1  UNL1        0.0170
      5  C         20.8660  -22.2510  -10.8300 C.2     1  UNL1        0.0330
      6  C         19.8260  -22.7960  -10.0710 C.2     1  UNL1        0.0420
      7  C         18.5220  -22.2940  -10.2010 C.2     1  UNL1        0.0810
      8  S         17.2540  -23.0290   -9.1780 S.O2    1  UNL1        0.2460
      9  O         16.5410  -21.9630   -8.5050 O.2     1  UNL1       -0.2060
     10  O         16.5560  -24.0260   -9.9580 O.2     1  UNL1       -0.2060
     11  N         18.2100  -23.7860   -7.9760 N.pl3   1  UNL1       -0.1810
     12  H         19.1640  -23.8200   -8.3430 H       1  UNL1        0.1460
     13  C         18.1720  -23.1120   -6.7110 C.2     1  UNL1        0.0250
     14  C         19.0240  -22.0320   -6.4660 C.2     1  UNL1        0.0240
     15  C         18.9450  -21.3400   -5.2550 C.2     1  UNL1        0.0040
     16  C         18.0070  -21.7190   -4.2930 C.2     1  UNL1        0.0360
     17  C         17.1440  -22.7920   -4.5570 C.2     1  UNL1        0.1040
     18  C         17.2170  -23.4890   -5.7690 C.2     1  UNL1        0.0600
     19  N         16.1520  -23.1900   -3.5530 N.pl3   1  UNL1       -0.1160
     20  O         16.1750  -24.3640   -3.1530 O.2     1  UNL1       -0.5320
     21  O         15.3570  -22.3290   -3.1550 O.2     1  UNL1       -0.5320
     22  C         22.2310  -22.8280  -10.6830 C.2     1  UNL1        0.2560
     23  O         22.4330  -23.5770   -9.7370 O.2     1  UNL1       -0.2670
     24  N         23.1380  -22.4170  -11.6410 N.am    1  UNL1       -0.3230
     25  H         22.8370  -21.6950  -12.2830 H       1  UNL1        0.1690
     26  C         24.4810  -22.8260  -11.7780 C.2     1  UNL1        0.0350
     27  C         25.4990  -22.4700  -10.8920 C.2     1  UNL1        0.0290
     28  C         26.8070  -22.9230  -11.0960 C.2     1  UNL1        0.0020
     29  C         27.1070  -23.7360  -12.1860 C.2     1  UNL1        0.0000
     30  C         26.0980  -24.1000  -13.0740 C.2     1  UNL1        0.0020
     31  C         24.7920  -23.6480  -12.8700 C.2     1  UNL1        0.0290
@<TRIPOS>BOND
     1    30    31    1
     2    30    29    2
     3    31    26    2
     4    25    24    1
     5    29    28    1
     6     3     4    1
     7     3     2    2
     8    26    24    1
     9    26    27    1
    10     4     5    2
    11    24    22   am
    12     1     2    1
    13     2     7    1
    14    28    27    2
    15     5    22    1
    16     5     6    1
    17    22    23    2
    18     7     6    2
    19     7     8    1
    20    10     8    2
    21     8     9    2
    22     8    11    1
    23    12    11    1
    24    11    13    1
    25    13    14    2
    26    13    18    1
    27    14    15    1
    28    18    17    2
    29    15    16    2
    30    17    16    1
    31    17    19    1
    32    19    21    2
    33    19    20    2
