@<TRIPOS>MOLECULE
72977_out_ligand_01.pdbqt
 31 34 0 0 0
SMALL
GASTEIGER

@<TRIPOS>ATOM
      1  C         20.4340  -22.1690  -11.0490 C.2     1  UNL1       -0.0070
      2  C         21.6240  -22.8480  -10.7260 C.2     1  UNL1        0.0150
      3  C         22.7840  -22.7030  -11.5000 C.2     1  UNL1        0.0180
      4  C         22.7790  -21.8640  -12.6200 C.2     1  UNL1        0.0320
      5  C         21.6010  -21.2030  -12.9760 C.2     1  UNL1        0.0180
      6  C         20.4490  -21.3530  -12.1970 C.2     1  UNL1        0.0150
      7  C         19.2030  -22.3070  -10.2400 C.2     1  UNL1        0.0720
      8  C         19.1860  -22.9100   -8.9940 C.2     1  UNL1        0.0900
      9  C         17.9700  -22.9600   -8.3420 C.2     1  UNL1        0.1730
     10  N         16.8310  -22.4980   -8.8870 N.2     1  UNL1       -0.2170
     11  C         16.9500  -21.9270  -10.0870 C.2     1  UNL1        0.2360
     12  N         18.0810  -21.8000  -10.7930 N.2     1  UNL1       -0.2410
     13  O         17.7890  -23.5570   -7.1100 O.2     1  UNL1       -0.2890
     14  C         17.9250  -22.7800   -5.9810 C.2     1  UNL1        0.1110
     15  C         18.8240  -21.7130   -6.0660 C.2     1  UNL1        0.0400
     16  C         19.0400  -20.8980   -4.9570 C.2     1  UNL1        0.0030
     17  C         18.3690  -21.1640   -3.7640 C.2     1  UNL1        0.0030
     18  C         17.4900  -22.2480   -3.6700 C.2     1  UNL1        0.0390
     19  C         17.2680  -23.0760   -4.7750 C.2     1  UNL1        0.1020
     20  O         16.4410  -24.1670   -4.7800 O.2     1  UNL1       -0.3530
     21  C         15.1030  -23.9810   -4.3410 C.3     1  UNL1        0.2100
     22  C         23.9880  -21.6820  -13.4720 C.2     1  UNL1        0.2560
     23  O         25.0780  -21.5930  -12.9200 O.2     1  UNL1       -0.2670
     24  N         23.7410  -21.6710  -14.8330 N.am    1  UNL1       -0.3230
     25  H         22.8000  -21.8940  -15.1310 H       1  UNL1        0.1690
     26  C         24.6770  -21.4780  -15.8710 C.2     1  UNL1        0.0350
     27  C         24.8120  -22.5100  -16.8110 C.2     1  UNL1        0.0290
     28  C         25.7130  -22.3940  -17.8740 C.2     1  UNL1        0.0020
     29  C         26.4850  -21.2440  -18.0090 C.2     1  UNL1        0.0000
     30  C         26.3540  -20.2130  -17.0820 C.2     1  UNL1        0.0020
     31  C         25.4530  -20.3280  -16.0190 C.2     1  UNL1        0.0290
@<TRIPOS>BOND
     1    29    28    2
     2    29    30    1
     3    28    27    1
     4    30    31    2
     5    27    26    2
     6    31    26    1
     7    26    24    1
     8    25    24    1
     9    24    22   am
    10    22    23    2
    11    22     4    1
    12     5     4    2
    13     5     6    1
    14     4     3    1
    15     6     1    2
    16     3     2    2
    17     1     2    1
    18     1     7    1
    19    12     7    1
    20    12    11    2
    21     7     8    2
    22    11    10    1
    23     8     9    1
    24    10     9    2
    25     9    13    1
    26    13    14    1
    27    15    14    2
    28    15    16    1
    29    14    19    1
    30    16    17    2
    31    20    19    1
    32    20    21    1
    33    19    18    2
    34    17    18    1
