@<TRIPOS>MOLECULE
72986_out_ligand_01.pdbqt
 32 34 0 0 0
SMALL
GASTEIGER

@<TRIPOS>ATOM
      1  C         18.3890  -21.9020  -10.7690 C.2     1  UNL1       -0.0170
      2  C         18.8880  -23.0310  -10.1140 C.2     1  UNL1        0.0150
      3  C         20.2470  -23.3340  -10.2020 C.2     1  UNL1        0.0380
      4  C         21.0920  -22.5230  -10.9640 C.2     1  UNL1        0.0790
      5  C         20.5960  -21.4010  -11.6260 C.2     1  UNL1        0.0380
      6  C         19.2360  -21.0990  -11.5410 C.2     1  UNL1        0.0150
      7  C         16.9410  -21.6240  -10.6670 C.2     1  UNL1        0.1500
      8  N         16.0440  -22.1600   -9.8870 N.2     1  UNL1       -0.1840
      9  N         16.3730  -23.2730   -9.1540 N.am    1  UNL1       -0.2460
     10  C         16.0130  -23.3690   -7.8050 C.2     1  UNL1        0.2500
     11  O         15.3090  -22.5690   -7.1890 O.2     1  UNL1       -0.2700
     12  H         17.3280  -23.5800   -9.3340 H       1  UNL1        0.1920
     13  C         16.6220  -24.5990   -7.1210 C.3     1  UNL1        0.1970
     14  N         17.0940  -24.2830   -5.7610 N.pl3   1  UNL1       -0.2840
     15  H         16.2910  -24.1930   -5.1410 H       1  UNL1        0.1280
     16  C         17.9360  -23.1550   -5.6830 C.2     1  UNL1        0.0140
     17  C         18.9120  -22.9530   -6.6700 C.2     1  UNL1        0.0240
     18  C         19.7360  -21.8290   -6.6550 C.2     1  UNL1        0.0020
     19  C         19.5980  -20.8880   -5.6410 C.2     1  UNL1        0.0010
     20  C         18.6430  -21.0760   -4.6450 C.2     1  UNL1        0.0080
     21  C         17.8090  -22.2070   -4.6480 C.2     1  UNL1       -0.0410
     22  C         16.7900  -22.3510   -3.5480 C.3     1  UNL1        0.0500
     23  O         22.4560  -22.8790  -10.9400 O.3     1  UNL1       -0.2750
     24  C         23.4730  -21.9380  -10.9360 C.2     1  UNL1        0.3000
     25  O         23.7560  -21.1360  -10.0640 O.2     1  UNL1       -0.2590
     26  C         24.1910  -22.0710  -12.2190 C.2     1  UNL1        0.0570
     27  C         23.5770  -21.5720  -13.3790 C.2     1  UNL1        0.0190
     28  C         24.2050  -21.6990  -14.6170 C.2     1  UNL1        0.0010
     29  C         25.4500  -22.3200  -14.7040 C.2     1  UNL1        0.0010
     30  C         26.0630  -22.8210  -13.5560 C.2     1  UNL1        0.0200
     31  C         25.4350  -22.7050  -12.3100 C.2     1  UNL1        0.0270
     32 BR         26.3670  -23.3930  -10.8040 Br      1  UNL1       -0.0500
@<TRIPOS>BOND
     1    29    28    2
     2    29    30    1
     3    28    27    1
     4    30    31    2
     5    27    26    2
     6    31    26    1
     7    31    32    1
     8    26    24    1
     9     5     6    1
    10     5     4    2
    11     6     1    2
    12     4    23    1
    13     4     3    1
    14    23    24    1
    15    24    25    2
    16     1     7    1
    17     1     2    1
    18     7     8    2
    19     3     2    2
    20     8     9    1
    21    12     9    1
    22     9    10   am
    23    10    11    2
    24    10    13    1
    25    13    14    1
    26    17    18    1
    27    17    16    2
    28    18    19    2
    29    14    16    1
    30    14    15    1
    31    16    21    1
    32    19    20    1
    33    21    20    2
    34    21    22    1
