@<TRIPOS>MOLECULE
72982_out_ligand_01.pdbqt
 31 34 0 0 0
SMALL
GASTEIGER

@<TRIPOS>ATOM
      1  C         21.2330  -23.3310   -8.4300 C.2     1  UNL1        0.0320
      2  C         20.7770  -22.2350   -7.6920 C.2     1  UNL1        0.0190
      3  C         19.5880  -22.3120   -6.9530 C.2     1  UNL1        0.0320
      4  C         18.8370  -23.4920   -6.9430 C.2     1  UNL1        0.0570
      5  C         19.2830  -24.5800   -7.7200 C.2     1  UNL1        0.0320
      6  C         20.4710  -24.5020   -8.4580 C.2     1  UNL1        0.0190
      7  N         17.6210  -23.6350   -6.2070 N.ar    1  UNL1       -0.2170
      8  N         17.6300  -24.3140   -5.0230 N.ar    1  UNL1        0.0030
      9  N         16.3790  -24.3510   -4.5950 N.ar    1  UNL1        0.0190
     10  N         15.5520  -23.6750   -5.4400 N.ar    1  UNL1       -0.1350
     11  C         16.3100  -23.2220   -6.4160 C.ar    1  UNL1        0.2030
     12  S         15.7170  -22.1790   -7.6630 S.3     1  UNL1       -0.0850
     13  C         16.1240  -23.1580   -9.1400 C.3     1  UNL1        0.1210
     14  C         17.0370  -22.4130  -10.0870 C.2     1  UNL1       -0.0480
     15  C         16.6790  -21.1450  -10.5760 C.2     1  UNL1        0.0110
     16  C         17.5330  -20.4530  -11.4360 C.2     1  UNL1        0.0430
     17  C         18.7440  -21.0220  -11.8070 C.2     1  UNL1        0.1160
     18  F         19.5620  -20.3570  -12.6330 F       1  UNL1       -0.2060
     19  C         19.1220  -22.2720  -11.3310 C.2     1  UNL1        0.0430
     20  C         18.2690  -22.9680  -10.4720 C.2     1  UNL1        0.0110
     21  C         22.5040  -23.1980   -9.1980 C.2     1  UNL1        0.2560
     22  N         22.5240  -22.1550  -10.1070 N.am    1  UNL1       -0.3220
     23  H         21.6520  -21.6690  -10.2500 H       1  UNL1        0.1690
     24  O         23.3850  -24.0230   -8.9960 O.2     1  UNL1       -0.2670
     25  C         23.5960  -21.7470  -10.9370 C.2     1  UNL1        0.0410
     26  C         24.8420  -21.3720  -10.4200 C.2     1  UNL1        0.0300
     27  C         25.8810  -20.9700  -11.2640 C.2     1  UNL1        0.0020
     28  C         25.6890  -20.9370  -12.6390 C.2     1  UNL1        0.0010
     29  C         24.4540  -21.3010  -13.1720 C.2     1  UNL1        0.0090
     30  C         23.3970  -21.7030  -12.3360 C.2     1  UNL1       -0.0350
     31  C         22.0900  -22.0840  -12.9790 C.3     1  UNL1        0.0500
@<TRIPOS>BOND
     1    29    28    2
     2    29    30    1
     3    31    30    1
     4    28    27    1
     5    18    17    1
     6    30    25    2
     7    17    16    2
     8    17    19    1
     9    16    15    1
    10    19    20    2
    11    27    26    2
    12    25    26    1
    13    25    22    1
    14    15    14    2
    15    20    14    1
    16    23    22    1
    17    22    21   am
    18    14    13    1
    19    21    24    2
    20    21     1    1
    21    13    12    1
    22     6     1    2
    23     6     5    1
    24     1     2    1
    25     5     4    2
    26     2     3    2
    27    12    11    1
    28     3     4    1
    29     4     7    1
    30    11     7   ar
    31    11    10   ar
    32     7     8   ar
    33    10     9   ar
    34     8     9   ar
