@<TRIPOS>MOLECULE
72997_out_ligand_01.pdbqt
 34 37 0 0 0
SMALL
GASTEIGER

@<TRIPOS>ATOM
      1  C         21.7900  -23.4070   -9.5350 C.2     1  UNL1        0.1610
      2  N         22.0330  -24.5580   -8.7830 N.2     1  UNL1       -0.2280
      3  C         20.8410  -25.0940   -8.6530 C.2     1  UNL1        0.2590
      4  O         19.8340  -24.4240   -9.2690 O.2     1  UNL1       -0.3010
      5  C         20.4400  -23.3240   -9.8220 C.2     1  UNL1        0.1220
      6  C         19.5560  -22.4200  -10.5420 C.2     1  UNL1        0.0160
      7  C         19.9830  -21.8500  -11.7510 C.2     1  UNL1        0.0150
      8  C         19.1430  -21.0070  -12.4860 C.2     1  UNL1        0.0010
      9  C         17.8600  -20.7200  -12.0270 C.2     1  UNL1        0.0010
     10  C         17.4150  -21.2730  -10.8280 C.2     1  UNL1        0.0180
     11  C         18.2580  -22.1230  -10.0920 C.2     1  UNL1        0.0450
     12  C         17.7480  -22.6570   -8.8060 C.2     1  UNL1        0.2570
     13  O         16.7990  -23.4300   -8.8250 O.2     1  UNL1       -0.2670
     14  N         18.4410  -22.1940   -7.7030 N.am    1  UNL1       -0.3230
     15  H         19.1650  -21.5070   -7.8810 H       1  UNL1        0.1690
     16  C         18.2120  -22.5190   -6.3500 C.2     1  UNL1        0.0370
     17  C         17.7610  -23.7680   -5.9140 C.2     1  UNL1        0.0290
     18  C         17.5560  -24.0170   -4.5500 C.2     1  UNL1        0.0050
     19  C         17.8030  -23.0180   -3.6140 C.2     1  UNL1        0.0420
     20  C         18.2520  -21.7790   -4.0490 C.2     1  UNL1        0.1180
     21  F         18.4920  -20.8130   -3.1530 F       1  UNL1       -0.2060
     22  C         18.4590  -21.5220   -5.4010 C.2     1  UNL1        0.0710
     23  C         22.8560  -22.4780   -9.9060 C.2     1  UNL1        0.2770
     24  N         23.5800  -22.9660  -10.9770 N.am    1  UNL1       -0.3210
     25  H         23.2490  -23.8700  -11.3030 H       1  UNL1        0.1690
     26  O         23.0300  -21.4140   -9.3260 O.2     1  UNL1       -0.2660
     27  C         24.6780  -22.3880  -11.6480 C.2     1  UNL1        0.0410
     28  C         25.9820  -22.7740  -11.2690 C.2     1  UNL1       -0.0350
     29  C         27.0860  -22.2010  -11.9230 C.2     1  UNL1        0.0090
     30  C         26.2400  -23.7790  -10.1790 C.3     1  UNL1        0.0500
     31  C         26.9100  -21.2650  -12.9390 C.2     1  UNL1        0.0070
     32  C         25.6260  -20.8870  -13.3300 C.2     1  UNL1       -0.0600
     33  C         25.4280  -19.8520  -14.3990 C.3     1  UNL1        0.0480
     34  C         24.5190  -21.4440  -12.6700 C.2     1  UNL1        0.0370
@<TRIPOS>BOND
     1    33    32    1
     2    32    31    2
     3    32    34    1
     4    31    29    1
     5    34    27    2
     6     8     9    2
     7     8     7    1
     8     9    10    1
     9    29    28    2
    10     7     6    2
    11    27    28    1
    12    27    24    1
    13    25    24    1
    14    28    30    1
    15    24    23   am
    16    10    11    2
    17     6    11    1
    18     6     5    1
    19    11    12    1
    20    23     1    1
    21    23    26    2
    22     5     1    2
    23     5     4    1
    24     1     2    1
    25     4     3    1
    26    13    12    2
    27    12    14   am
    28     2     3    2
    29    15    14    1
    30    14    16    1
    31    16    17    2
    32    16    22    1
    33    17    18    1
    34    22    20    2
    35    18    19    2
    36    20    19    1
    37    20    21    1
