@<TRIPOS>MOLECULE
72998_out_ligand_01.pdbqt
 32 35 0 0 0
SMALL
GASTEIGER

@<TRIPOS>ATOM
      1  C         19.9890  -23.1950   -8.3720 C.2     1  UNL1        0.2580
      2  O         21.0340  -23.8130   -8.1790 O.2     1  UNL1       -0.2670
      3  N         19.6680  -22.4670   -9.5120 N.am    1  UNL1       -0.3090
      4  C         20.5580  -22.2200  -10.5830 C.2     1  UNL1        0.0440
      5  C         21.8590  -22.6610  -10.7590 C.2     1  UNL1        0.0390
      6  C         22.5690  -22.2590  -11.9050 C.2     1  UNL1       -0.0380
      7  C         21.9510  -21.3990  -12.8380 C.2     1  UNL1        0.0090
      8  C         20.6400  -20.9590  -12.6550 C.2     1  UNL1        0.0100
      9  C         19.9570  -21.3860  -11.5260 C.2     1  UNL1       -0.0290
     10  C         18.5870  -20.9750  -11.0930 C.3     1  UNL1        0.0660
     11  C         18.3370  -21.9150   -9.8940 C.3     1  UNL1        0.0930
     12  C         17.3570  -23.0310  -10.2680 C.3     1  UNL1        0.0330
     13  C         23.9950  -22.7100  -12.1120 C.3     1  UNL1        0.1610
     14  N         24.4370  -22.4470  -13.4650 N.am    1  UNL1       -0.3530
     15  C         24.8870  -23.4410  -14.3010 C.2     1  UNL1        0.2550
     16  O         24.9000  -24.6260  -13.9800 O.2     1  UNL1       -0.2680
     17  H         24.5140  -21.4770  -13.7440 H       1  UNL1        0.1630
     18  C         25.3860  -23.0370  -15.6460 C.2     1  UNL1        0.0700
     19  C         26.6040  -22.3410  -15.7210 C.2     1  UNL1        0.0200
     20  C         27.1170  -21.9320  -16.9560 C.2     1  UNL1        0.0010
     21  C         26.4170  -22.2140  -18.1300 C.2     1  UNL1        0.0030
     22  C         25.2060  -22.9020  -18.0670 C.2     1  UNL1        0.0430
     23  C         24.6960  -23.3060  -16.8320 C.2     1  UNL1        0.1320
     24  F         23.5200  -23.9520  -16.8200 F       1  UNL1       -0.2050
     25  C         19.0010  -23.2360   -7.2700 C.2     1  UNL1        0.0320
     26  C         18.1540  -24.3330   -7.1040 C.2     1  UNL1        0.0200
     27  C         17.2200  -24.3330   -6.0650 C.2     1  UNL1        0.0380
     28  C         17.1060  -23.2340   -5.2080 C.2     1  UNL1        0.0680
     29  C         17.9290  -22.1220   -5.4040 C.2     1  UNL1        0.0380
     30  C         18.8730  -22.1200   -6.4360 C.2     1  UNL1        0.0200
     31  O         16.1530  -23.3680   -4.2360 O.2     1  UNL1       -0.3560
     32  C         15.1000  -22.4120   -4.2320 C.3     1  UNL1        0.2100
@<TRIPOS>BOND
     1    21    22    2
     2    21    20    1
     3    22    23    1
     4    20    19    2
     5    23    24    1
     6    23    18    2
     7    19    18    1
     8    18    15    1
     9    15    16    2
    10    15    14   am
    11    17    14    1
    12    14    13    1
    13     7     8    2
    14     7     6    1
    15     8     9    1
    16    13     6    1
    17     6     5    2
    18     9    10    1
    19     9     4    2
    20    10    11    1
    21     5     4    1
    22     4     3    1
    23    12    11    1
    24    11     3    1
    25     3     1   am
    26     1     2    2
    27     1    25    1
    28    25    26    2
    29    25    30    1
    30    26    27    1
    31    30    29    2
    32    27    28    2
    33    29    28    1
    34    28    31    1
    35    31    32    1
