@<TRIPOS>MOLECULE
72_out_ligand_01.pdbqt
 31 34 0 0 0
SMALL
GASTEIGER

@<TRIPOS>ATOM
      1  S         21.6520  -23.2510   -8.9820 S.O2    1  UNL1        0.2580
      2  O         21.8930  -22.2220   -7.9950 O.2     1  UNL1       -0.2010
      3  O         22.2820  -24.5490   -8.9100 O.2     1  UNL1       -0.2010
      4  C         22.0080  -22.5760  -10.5870 C.2     1  UNL1        0.0800
      5  C         23.2590  -22.8280  -11.1600 C.2     1  UNL1        0.0440
      6  C         23.5290  -22.3160  -12.4300 C.ar    1  UNL1        0.0600
      7  C         24.8200  -22.5780  -13.0930 C.ar    1  UNL1        0.2610
      8  C         22.5780  -21.5520  -13.1090 C.ar    1  UNL1        0.0520
      9  N         24.9870  -22.0150  -14.3340 N.ar    1  UNL1       -0.2750
     10  O         25.6820  -23.2660  -12.5580 O.2     1  UNL1       -0.2670
     11  C         24.0660  -21.2700  -15.0120 C.ar    1  UNL1        0.3270
     12  H         25.8660  -22.1840  -14.8020 H       1  UNL1        0.1730
     13  O         24.2900  -20.8230  -16.1310 O.2     1  UNL1       -0.2470
     14  N         22.8760  -21.0510  -14.3790 N.ar    1  UNL1       -0.3080
     15  H         22.2010  -20.5000  -14.8950 H       1  UNL1        0.1700
     16  C         21.3410  -21.2880  -12.5230 C.2     1  UNL1        0.0320
     17  C         21.0510  -21.8030  -11.2550 C.2     1  UNL1        0.0270
     18  N         19.9990  -23.5150   -9.0610 N.3     1  UNL1       -0.3140
     19  H         19.4980  -22.8480   -9.6470 H       1  UNL1        0.1720
     20  C         19.3120  -24.1860   -7.9490 C.3     1  UNL1        0.1460
     21  C         17.9490  -23.5200   -7.5900 C.3     1  UNL1        0.0030
     22  C         17.3990  -22.7480   -8.8270 C.3     1  UNL1        0.0160
     23  C         15.8880  -22.8270   -8.6910 C.3     1  UNL1        0.0010
     24  C         15.6830  -24.2740   -8.2850 C.3     1  UNL1        0.0010
     25  C         16.8150  -24.5580   -7.2930 C.3     1  UNL1        0.0160
     26  C         18.1780  -22.6520   -6.3280 C.2     1  UNL1       -0.0480
     27  C         17.5630  -23.0320   -5.1120 C.2     1  UNL1        0.0080
     28  C         17.7530  -22.3020   -3.9370 C.2     1  UNL1        0.0010
     29  C         18.5600  -21.1700   -3.9460 C.2     1  UNL1        0.0000
     30  C         19.1750  -20.7710   -5.1300 C.2     1  UNL1        0.0010
     31  C         18.9870  -21.5040   -6.3070 C.2     1  UNL1        0.0080
@<TRIPOS>BOND
     1    13    11    2
     2    11    14   ar
     3    11     9   ar
     4    15    14    1
     5    12     9    1
     6    14     8   ar
     7     9     7   ar
     8     8    16    2
     9     8     6   ar
    10     7    10    2
    11     7     6   ar
    12    16    17    1
    13     6     5    2
    14    17     4    2
    15     5     4    1
    16     4     1    1
    17    19    18    1
    18    18     1    1
    19    18    20    1
    20     1     3    2
    21     1     2    2
    22    22    23    1
    23    22    21    1
    24    23    24    1
    25    24    25    1
    26    20    21    1
    27    21    25    1
    28    21    26    1
    29    26    31    2
    30    26    27    1
    31    31    30    1
    32    30    29    2
    33    27    28    2
    34    29    28    1
