@<TRIPOS>MOLECULE
73025_out_ligand_01.pdbqt
 28 31 0 0 0
SMALL
GASTEIGER

@<TRIPOS>ATOM
      1  O         22.2180  -24.1810   -9.1670 O.2     1  UNL1       -0.2920
      2  C         22.3570  -23.3630  -10.0750 C.2     1  UNL1        0.1620
      3  C         23.7240  -22.9950  -10.6030 C.3     1  UNL1        0.0940
      4  C         23.6520  -22.7220  -12.1060 C.3     1  UNL1        0.0380
      5  C         22.6310  -21.6140  -12.4130 C.3     1  UNL1        0.0680
      6  C         21.3200  -21.8450  -11.7080 C.2     1  UNL1        0.0270
      7  N         20.2210  -21.1860  -12.2160 N.am    1  UNL1       -0.3250
      8  C         18.9350  -21.2980  -11.7230 C.2     1  UNL1        0.2610
      9  O         18.0020  -20.7260  -12.2730 O.2     1  UNL1       -0.2670
     10  C         18.7750  -22.1800  -10.5350 C.2     1  UNL1        0.1000
     11  C         19.8570  -22.8090  -10.0370 C.2     1  UNL1        0.0400
     12  C         21.1660  -22.6580  -10.6460 C.2     1  UNL1        0.0340
     13  H         20.3090  -20.5770  -13.0230 H       1  UNL1        0.1690
     14  C         17.4800  -22.3120   -9.8310 C.2     1  UNL1        0.2570
     15  O         16.4670  -21.7610  -10.2400 O.2     1  UNL1       -0.2670
     16  N         17.5410  -23.0710   -8.6800 N.am    1  UNL1       -0.3520
     17  H         18.4320  -23.4400   -8.3780 H       1  UNL1        0.1630
     18  C         16.3930  -23.2050   -7.7910 C.3     1  UNL1        0.0840
     19  C         16.3710  -24.5910   -7.1350 C.3     1  UNL1        0.0250
     20  C         17.4540  -24.7650   -6.0690 C.3     1  UNL1        0.0020
     21  C         17.4160  -23.6460   -5.0330 C.3     1  UNL1        0.0000
     22  C         17.4810  -22.2690   -5.6870 C.3     1  UNL1        0.0020
     23  C         16.3820  -22.0920   -6.7330 C.3     1  UNL1        0.0250
     24  C         25.0080  -22.4340  -12.7090 C.2     1  UNL1       -0.0130
     25  C         25.9440  -21.5210  -12.2630 C.2     1  UNL1        0.0150
     26  C         27.1210  -21.5040  -13.0660 C.2     1  UNL1        0.0080
     27  C         27.0480  -22.4050  -14.1020 C.2     1  UNL1        0.0500
     28  S         25.5720  -23.2630  -14.1030 S.3     1  UNL1       -0.1060
@<TRIPOS>BOND
     1    28    27    1
     2    28    24    1
     3    27    26    2
     4    26    25    1
     5    13     7    1
     6    24    25    2
     7    24     4    1
     8     5     4    1
     9     5     6    1
    10     9     8    2
    11     7     8   am
    12     7     6    1
    13     4     3    1
    14     8    10    1
    15     6    12    2
    16    12     2    1
    17    12    11    1
    18     3     2    1
    19    10    11    2
    20    10    14    1
    21    15    14    2
    22     2     1    2
    23    14    16   am
    24    16    17    1
    25    16    18    1
    26    18    19    1
    27    18    23    1
    28    19    20    1
    29    23    22    1
    30    20    21    1
    31    22    21    1
