@<TRIPOS>MOLECULE
73022_out_ligand_01.pdbqt
 31 34 0 0 0
SMALL
GASTEIGER

@<TRIPOS>ATOM
      1  C         17.7460  -22.3620   -9.8920 C.2     1  UNL1        0.0400
      2  C         17.4490  -21.4890  -10.9460 C.2     1  UNL1        0.0180
      3  C         18.4680  -21.0090  -11.7790 C.2     1  UNL1        0.0030
      4  C         19.7960  -21.3910  -11.5720 C.2     1  UNL1        0.0300
      5  C         20.0850  -22.2610  -10.5300 C.2     1  UNL1        0.0460
      6  C         19.0740  -22.7210   -9.6760 C.2     1  UNL1       -0.0140
      7  C         19.6560  -23.5690   -8.5820 C.3     1  UNL1        0.0620
      8  C         21.1520  -23.2840   -8.7360 C.3     1  UNL1        0.1380
      9  N         21.3320  -22.7410  -10.0850 N.am    1  UNL1       -0.2990
     10  C         22.6050  -22.5930  -10.6110 C.2     1  UNL1        0.3270
     11  O         23.5990  -22.7250   -9.8990 O.2     1  UNL1       -0.2460
     12  N         22.6430  -22.3820  -11.9700 N.am    1  UNL1       -0.3090
     13  H         21.8200  -22.7000  -12.4590 H       1  UNL1        0.1700
     14  C         16.6300  -22.8210   -9.0310 C.2     1  UNL1        0.2520
     15  O         15.9510  -23.7830   -9.3680 O.2     1  UNL1       -0.2680
     16  N         16.4610  -22.1340   -7.8490 N.am    1  UNL1       -0.3570
     17  H         17.1820  -21.4910   -7.5500 H       1  UNL1        0.1620
     18  C         15.4600  -22.5390   -6.8780 C.3     1  UNL1        0.1280
     19  C         16.0600  -23.3410   -5.7190 C.3     1  UNL1        0.0660
     20  C         17.0550  -22.5280   -4.9450 C.2     1  UNL1       -0.0160
     21  C         18.1230  -21.8020   -5.4330 C.2     1  UNL1        0.0150
     22  C         18.8530  -21.1520   -4.3970 C.2     1  UNL1        0.0080
     23  C         18.3200  -21.4060   -3.1540 C.2     1  UNL1        0.0500
     24  S         16.9480  -22.4220   -3.2380 S.3     1  UNL1       -0.1060
     25  C         23.7660  -22.0730  -12.7620 C.2     1  UNL1        0.0360
     26  C         25.0770  -22.4090  -12.4090 C.2     1  UNL1        0.0320
     27  C         26.1440  -22.0540  -13.2390 C.2     1  UNL1        0.0440
     28  C         25.9000  -21.3600  -14.4160 C.2     1  UNL1        0.1160
     29  F         26.9230  -21.0190  -15.2100 F       1  UNL1       -0.2060
     30  C         24.6060  -21.0090  -14.7790 C.2     1  UNL1        0.0440
     31  C         23.5390  -21.3640  -13.9500 C.2     1  UNL1        0.0320
@<TRIPOS>BOND
     1    29    28    1
     2    30    28    2
     3    30    31    1
     4    28    27    1
     5    31    25    2
     6    27    26    2
     7    25    26    1
     8    25    12    1
     9    13    12    1
    10    12    10   am
    11     3     4    2
    12     3     2    1
    13     4     5    1
    14     2     1    2
    15    10     9   am
    16    10    11    2
    17     5     9    1
    18     5     6    2
    19     9     8    1
    20     1     6    1
    21     1    14    1
    22     6     7    1
    23    15    14    2
    24    14    16   am
    25     8     7    1
    26    16    17    1
    27    16    18    1
    28    18    19    1
    29    19    20    1
    30    21    20    2
    31    21    22    1
    32    20    24    1
    33    22    23    2
    34    24    23    1
