@<TRIPOS>MOLECULE
73038_out_ligand_01.pdbqt
 44 48 0 0 0
SMALL
GASTEIGER

@<TRIPOS>ATOM
      1  C         20.1810  -23.9360   -9.0520 C.ar    1  UNL1        0.1610
      2  N         21.4710  -24.2600   -8.8360 N.ar    1  UNL1       -0.1310
      3  N         22.4800  -23.6190   -9.5000 N.ar    1  UNL1       -0.1470
      4  C         22.2030  -22.6390  -10.3880 C.ar    1  UNL1        0.1000
      5  C         20.8780  -22.2310  -10.6450 C.ar    1  UNL1        0.0090
      6  C         20.5300  -21.1720  -11.5250 C.2     1  UNL1        0.0150
      7  C         19.2020  -20.8280  -11.7720 C.2     1  UNL1        0.0010
      8  C         18.1820  -21.5260  -11.1450 C.2     1  UNL1        0.0010
      9  C         18.4950  -22.5530  -10.2550 C.2     1  UNL1        0.0160
     10  C         19.8380  -22.9170   -9.9720 C.ar    1  UNL1        0.0240
     11  C         23.4050  -22.0860  -11.0380 C.2     1  UNL1       -0.0030
     12  C         24.4690  -21.5940  -10.2690 C.2     1  UNL1        0.0140
     13  C         25.6270  -21.0900  -10.8700 C.2     1  UNL1        0.0090
     14  C         25.7730  -21.0720  -12.2650 C.2     1  UNL1       -0.0390
     15  C         27.0370  -20.5010  -12.8430 C.3     1  UNL1        0.0500
     16  C         24.7150  -21.5730  -13.0450 C.2     1  UNL1        0.0860
     17  C         23.5500  -22.0780  -12.4340 C.2     1  UNL1        0.0390
     18  S         24.7670  -21.5790  -14.8300 S.O2    1  UNL1        0.2590
     19  O         23.4230  -21.7650  -15.3280 O.2     1  UNL1       -0.2010
     20  O         25.8390  -22.4620  -15.2380 O.2     1  UNL1       -0.2010
     21  N         25.2310  -20.0270  -15.2060 N.3     1  UNL1       -0.3100
     22  H         25.4160  -19.4030  -14.4210 H       1  UNL1        0.1720
     23  C         26.0100  -19.7810  -16.4190 C.3     1  UNL1        0.1910
     24  C         26.3910  -18.3210  -16.5250 C.2     1  UNL1        0.0520
     25  C         26.2680  -17.6400  -17.7340 C.2     1  UNL1        0.0290
     26  C         26.6020  -16.2890  -17.7800 C.2     1  UNL1        0.0030
     27  C         27.0410  -15.6560  -16.6230 C.2     1  UNL1        0.0190
     28  C         27.1200  -16.4010  -15.4590 C.2     1  UNL1        0.1170
     29  N         26.8010  -17.7110  -15.3800 N.2     1  UNL1       -0.2640
     30  N         19.1490  -24.5910   -8.3220 N.pl3   1  UNL1       -0.3390
     31  H         18.7390  -25.2980   -8.9240 H       1  UNL1        0.1670
     32  C         18.1870  -24.0100   -7.4670 C.2     1  UNL1        0.0340
     33  C         16.8600  -24.4410   -7.5510 C.2     1  UNL1        0.0320
     34  C         15.8780  -23.9470   -6.6840 C.2     1  UNL1        0.0400
     35  C         16.2040  -23.0250   -5.6820 C.2     1  UNL1        0.0840
     36  C         17.5470  -22.6190   -5.5460 C.2     1  UNL1        0.0670
     37  C         18.5190  -23.1200   -6.4390 C.2     1  UNL1        0.0490
     38  O         15.2790  -22.5070   -4.8110 O.2     1  UNL1       -0.3550
     39  C         14.1900  -21.7680   -5.3560 C.3     1  UNL1        0.2100
     40  C         18.0490  -21.6790   -4.4910 C.2     1  UNL1        0.2520
     41  N         17.5890  -21.8320   -3.2150 N.am    1  UNL1       -0.3660
     42  H         17.8650  -21.1430   -2.5290 H       1  UNL1        0.1590
     43  H         16.8360  -22.4760   -3.0060 H       1  UNL1        0.1590
     44  O         18.8600  -20.7920   -4.7410 O.2     1  UNL1       -0.2680
@<TRIPOS>BOND
     1    26    25    1
     2    26    27    2
     3    25    24    2
     4    27    28    1
     5    24    23    1
     6    24    29    1
     7    23    21    1
     8    28    29    2
     9    19    18    2
    10    20    18    2
    11    21    18    1
    12    21    22    1
    13    18    16    1
    14    16    17    1
    15    16    14    2
    16    15    14    1
    17    17    11    2
    18    14    13    1
    19     7     6    2
    20     7     8    1
    21     6     5    1
    22     8     9    2
    23    11     4    1
    24    11    12    1
    25    13    12    2
    26     5     4   ar
    27     5    10   ar
    28     4     3   ar
    29     9    10    1
    30    10     1   ar
    31     3     2   ar
    32     1     2   ar
    33     1    30    1
    34    31    30    1
    35    30    32    1
    36    33    32    2
    37    33    34    1
    38    32    37    1
    39    34    35    2
    40    37    36    2
    41    35    36    1
    42    35    38    1
    43    36    40    1
    44    39    38    1
    45    44    40    2
    46    40    41   am
    47    41    43    1
    48    41    42    1
