@<TRIPOS>MOLECULE
73049_out_ligand_01.pdbqt
 32 34 0 0 0
SMALL
GASTEIGER

@<TRIPOS>ATOM
      1  C         20.5640  -24.2950   -8.6790 C.2     1  UNL1        0.2540
      2  O         20.7410  -25.4810   -8.9260 O.2     1  UNL1       -0.2680
      3  N         21.5600  -23.3470   -8.6590 N.am    1  UNL1       -0.3530
      4  H         21.2980  -22.3710   -8.6340 H       1  UNL1        0.1630
      5  C         19.2060  -23.7400   -8.4250 C.2     1  UNL1        0.0580
      6  C         18.6230  -24.0610   -7.2590 C.2     1  UNL1        0.1120
      7  N         17.3560  -23.6270   -6.9150 N.am    1  UNL1       -0.3210
      8  C         16.5910  -22.8060   -7.7480 C.2     1  UNL1        0.2580
      9  C         17.1870  -22.4530   -9.0650 C.2     1  UNL1        0.0430
     10  O         15.4840  -22.3720   -7.4360 O.2     1  UNL1       -0.2670
     11  C         16.4610  -21.6510   -9.9560 C.2     1  UNL1        0.0180
     12  C         18.4700  -22.9180   -9.3970 C.2     1  UNL1       -0.0030
     13  C         17.0110  -21.3050  -11.1890 C.2     1  UNL1        0.0010
     14  C         18.2830  -21.7600  -11.5300 C.2     1  UNL1        0.0010
     15  C         19.0090  -22.5590  -10.6420 C.2     1  UNL1        0.0130
     16  C         16.7950  -23.9990   -5.6140 C.3     1  UNL1        0.1580
     17  C         17.5950  -23.4140   -4.4460 C.3     1  UNL1        0.1870
     18  O         17.3170  -22.0240   -4.2560 O.3     1  UNL1       -0.3940
     19  C         18.4780  -21.2110   -4.3880 C.3     1  UNL1        0.2010
     20  C         22.9060  -23.6640   -9.0790 C.3     1  UNL1        0.1610
     21  C         23.2100  -23.0330  -10.4150 C.2     1  UNL1       -0.0400
     22  C         22.1710  -22.4910  -11.1890 C.2     1  UNL1        0.0100
     23  C         22.4460  -21.8690  -12.4080 C.2     1  UNL1        0.0250
     24  C         23.7660  -21.7940  -12.8590 C.2     1  UNL1        0.0740
     25  C         24.8130  -22.3140  -12.0940 C.2     1  UNL1        0.0250
     26  C         24.5320  -22.9310  -10.8740 C.2     1  UNL1        0.0100
     27  S         24.1060  -20.9920  -14.4030 S.O2    1  UNL1        0.2390
     28  O         24.0480  -21.9810  -15.4560 O.2     1  UNL1       -0.2060
     29  O         25.2360  -20.1140  -14.2210 O.2     1  UNL1       -0.2060
     30  N         22.7300  -20.0440  -14.6010 N.3     1  UNL1       -0.2250
     31  H         21.9480  -20.5490  -15.0170 H       1  UNL1        0.1360
     32  H         22.9770  -19.2110  -15.1380 H       1  UNL1        0.1360
@<TRIPOS>BOND
     1    28    27    2
     2    32    30    1
     3    31    30    1
     4    30    27    1
     5    27    29    2
     6    27    24    1
     7    24    23    2
     8    24    25    1
     9    23    22    1
    10    25    26    2
    11    14    13    2
    12    14    15    1
    13    22    21    2
    14    13    11    1
    15    26    21    1
    16    15    12    2
    17    21    20    1
    18    11     9    2
    19    12     9    1
    20    12     5    1
    21    20     3    1
    22     9     8    1
    23     2     1    2
    24     1     3   am
    25     1     5    1
    26     3     4    1
    27     5     6    2
    28     8    10    2
    29     8     7   am
    30     6     7    1
    31     7    16    1
    32    16    17    1
    33    17    18    1
    34    19    18    1
