@<TRIPOS>MOLECULE
73057_out_ligand_01.pdbqt
 37 40 0 0 0
SMALL
GASTEIGER

@<TRIPOS>ATOM
      1  C         17.7460  -22.8990   -9.6790 C.3     1  UNL1        0.1660
      2  N         18.9640  -23.3020   -8.9390 N.pl3   1  UNL1       -0.2770
      3  C         20.1850  -23.2020   -9.6240 C.2     1  UNL1        0.0360
      4  C         21.3190  -23.8200   -9.0840 C.2     1  UNL1        0.0270
      5  C         22.5740  -23.6530   -9.6770 C.2     1  UNL1        0.0190
      6  C         22.7140  -22.8520  -10.8150 C.2     1  UNL1        0.0340
      7  C         21.5980  -22.1910  -11.3400 C.2     1  UNL1        0.0480
      8  C         20.3480  -22.3690  -10.7410 C.2     1  UNL1        0.0570
      9  N         19.2450  -21.6900  -11.2600 N.am    1  UNL1       -0.3240
     10  C         17.9800  -21.8280  -10.7610 C.2     1  UNL1        0.2410
     11  O         17.0680  -21.1470  -11.2340 O.2     1  UNL1       -0.2710
     12  H         18.8640  -24.2530   -8.5690 H       1  UNL1        0.1280
     13  H         19.3550  -21.0140  -12.0050 H       1  UNL1        0.1690
     14  C         16.6760  -22.3570   -8.7400 C.3     1  UNL1        0.1700
     15  S         16.0480  -23.5600   -7.5960 S.O2    1  UNL1        0.1500
     16  O         15.5670  -24.6950   -8.3710 O.2     1  UNL1       -0.2280
     17  O         15.1230  -22.8720   -6.7090 O.2     1  UNL1       -0.2280
     18  C         17.4380  -24.1380   -6.6130 C.3     1  UNL1        0.1780
     19  C         17.7750  -23.1800   -5.5050 C.2     1  UNL1       -0.0440
     20  C         17.3850  -23.4580   -4.1870 C.2     1  UNL1        0.0080
     21  C         17.7160  -22.5820   -3.1530 C.2     1  UNL1        0.0010
     22  C         18.4280  -21.4140   -3.4240 C.2     1  UNL1        0.0070
     23  C         18.8030  -21.1040   -4.7350 C.2     1  UNL1       -0.0610
     24  C         19.5990  -19.8670   -5.0270 C.3     1  UNL1        0.0480
     25  C         18.4800  -21.9950   -5.7670 C.2     1  UNL1        0.0140
     26  C         24.0710  -22.6840  -11.4010 C.2     1  UNL1        0.2520
     27  O         25.0530  -22.6600  -10.6710 O.2     1  UNL1       -0.2680
     28  N         24.1300  -22.5860  -12.7770 N.am    1  UNL1       -0.3520
     29  H         23.3240  -22.8790  -13.3130 H       1  UNL1        0.1630
     30  C         25.4100  -22.5090  -13.4850 C.3     1  UNL1        0.0840
     31  C         25.8420  -21.0380  -13.5910 C.3     1  UNL1        0.0250
     32  C         25.1300  -20.2490  -14.6900 C.3     1  UNL1        0.0020
     33  C         26.0550  -19.7540  -15.7990 C.3     1  UNL1        0.0000
     34  C         27.0620  -20.7550  -16.3700 C.3     1  UNL1        0.0000
     35  C         26.4910  -22.1080  -16.7960 C.3     1  UNL1        0.0000
     36  C         26.5460  -23.2010  -15.7180 C.3     1  UNL1        0.0020
     37  C         25.3170  -23.2820  -14.8130 C.3     1  UNL1        0.0250
@<TRIPOS>BOND
     1    35    34    1
     2    35    36    1
     3    34    33    1
     4    33    32    1
     5    36    37    1
     6    37    30    1
     7    32    31    1
     8    31    30    1
     9    30    28    1
    10    29    28    1
    11    28    26   am
    12    13     9    1
    13    26     6    1
    14    26    27    2
    15     7     6    2
    16     7     8    1
    17     9    10   am
    18     9     8    1
    19    11    10    2
    20     6     5    1
    21    10     1    1
    22     8     3    2
    23     1     2    1
    24     1    14    1
    25     5     4    2
    26     3     4    1
    27     3     2    1
    28     2    12    1
    29    14    15    1
    30    16    15    2
    31    15    17    2
    32    15    18    1
    33    18    19    1
    34    25    19    2
    35    25    23    1
    36    19    20    1
    37    24    23    1
    38    23    22    2
    39    20    21    2
    40    22    21    1
