@<TRIPOS>MOLECULE
73091_out_ligand_01.pdbqt
 35 38 0 0 0
SMALL
GASTEIGER

@<TRIPOS>ATOM
      1  C         17.6040  -22.4990  -10.5540 C.2     1  UNL1        0.0690
      2  C         17.3870  -21.2560  -11.1490 C.2     1  UNL1        0.0370
      3  C         18.4650  -20.4100  -11.4240 C.2     1  UNL1        0.0040
      4  C         19.7660  -20.8030  -11.1110 C.2     1  UNL1        0.0110
      5  C         19.9970  -22.0510  -10.5310 C.2     1  UNL1       -0.0330
      6  C         18.9130  -22.8930  -10.2540 C.2     1  UNL1        0.0480
      7  C         21.3540  -22.4730  -10.1780 C.3     1  UNL1        0.0320
      8  C         22.4560  -22.4520  -10.9530 C.ar    1  UNL1        0.0820
      9  C         22.5150  -21.9740  -12.3770 C.ar    1  UNL1        0.1620
     10  C         23.7330  -22.9790  -10.3260 C.ar    1  UNL1        0.2830
     11  N         21.4950  -21.4660  -13.0020 N.pl3   1  UNL1       -0.2810
     12  N         23.7450  -22.1040  -12.9950 N.ar    1  UNL1       -0.1890
     13  H         21.8090  -21.2290  -13.9530 H       1  UNL1        0.1880
     14  N         23.9630  -21.7240  -14.3110 N.ar    1  UNL1       -0.1510
     15  C         24.8160  -22.6270  -12.3190 C.ar    1  UNL1        0.2010
     16  C         25.2070  -21.9680  -14.6190 C.ar    1  UNL1        0.2050
     17  S         26.2190  -22.6760  -13.3560 S.2     1  UNL1       -0.0240
     18  N         24.8720  -23.0420  -11.1050 N.ar    1  UNL1       -0.1820
     19  O         23.7500  -23.3410   -9.1550 O.2     1  UNL1       -0.2650
     20  C         25.8380  -21.7020  -15.9640 C.3     1  UNL1        0.4430
     21  F         26.5230  -22.7790  -16.4370 F       1  UNL1       -0.1640
     22  F         24.9130  -21.3870  -16.9120 F       1  UNL1       -0.1640
     23  F         26.7250  -20.6690  -15.9370 F       1  UNL1       -0.1640
     24  O         16.6480  -23.4200  -10.2250 O.2     1  UNL1       -0.3490
     25  C         15.8410  -23.1820   -9.0710 C.3     1  UNL1        0.2020
     26  C         15.9690  -24.3220   -8.0590 C.3     1  UNL1        0.2020
     27  O         17.2870  -24.3990   -7.5100 O.2     1  UNL1       -0.3490
     28  C         17.6260  -23.4580   -6.5760 C.2     1  UNL1        0.0690
     29  C         18.6830  -22.5550   -6.6890 C.2     1  UNL1        0.0430
     30  C         18.9290  -21.6190   -5.6730 C.2     1  UNL1       -0.0590
     31  C         18.1330  -21.6310   -4.5210 C.2     1  UNL1        0.0130
     32  C         20.0760  -20.6580   -5.7920 C.3     1  UNL1        0.0480
     33  C         17.0990  -22.5630   -4.3770 C.2     1  UNL1       -0.0590
     34  C         16.2310  -22.5590   -3.1540 C.3     1  UNL1        0.0480
     35  C         16.8490  -23.4670   -5.4170 C.2     1  UNL1        0.0430
@<TRIPOS>BOND
     1    22    20    1
     2    21    20    1
     3    20    23    1
     4    20    16    1
     5    16    14   ar
     6    16    17   ar
     7    14    12   ar
     8    13    11    1
     9    17    15   ar
    10    11     9    1
    11    12     9   ar
    12    12    15   ar
    13     9     8   ar
    14    15    18   ar
    15     3     2    1
    16     3     4    2
    17     2     1    2
    18     4     5    1
    19    18    10   ar
    20     8    10   ar
    21     8     7    1
    22     1     6    1
    23     1    24    1
    24     5     6    2
    25     5     7    1
    26    10    19    2
    27    24    25    1
    28    25    26    1
    29    26    27    1
    30    27    28    1
    31    29    28    2
    32    29    30    1
    33    28    35    1
    34    32    30    1
    35    30    31    2
    36    35    33    2
    37    31    33    1
    38    33    34    1
