@<TRIPOS>MOLECULE
73106_out_ligand_01.pdbqt
 31 34 0 0 0
SMALL
GASTEIGER

@<TRIPOS>ATOM
      1  C         19.6580  -21.9340  -10.8880 C.2     1  UNL1        0.1430
      2  C         19.9160  -21.1940  -12.0310 C.2     1  UNL1        0.0450
      3  C         21.2680  -21.4310  -12.3830 C.2     1  UNL1        0.0380
      4  C         21.7710  -22.2970  -11.4360 C.2     1  UNL1        0.0780
      5  O         20.7990  -22.6090  -10.5340 O.2     1  UNL1       -0.3070
      6  C         18.4770  -22.1170  -10.0520 C.2     1  UNL1        0.2800
      7  O         17.3580  -21.7680  -10.4170 O.2     1  UNL1       -0.2650
      8  N         18.7400  -22.7110   -8.8330 N.am    1  UNL1       -0.3190
      9  H         19.6970  -22.9730   -8.6130 H       1  UNL1        0.1690
     10  C         17.8460  -23.0360   -7.7830 C.2     1  UNL1        0.0650
     11  C         16.7960  -23.9430   -7.9180 C.2     1  UNL1        0.0330
     12  C         15.9610  -24.2080   -6.8360 C.2     1  UNL1        0.0220
     13  C         16.1780  -23.5640   -5.6180 C.2     1  UNL1        0.0230
     14 BR         14.9790  -23.9990   -4.2030 Br      1  UNL1       -0.0500
     15  C         17.2390  -22.6390   -5.4590 C.2     1  UNL1        0.0120
     16  C         17.5280  -21.9440   -4.2620 C.2     1  UNL1        0.0170
     17  C         18.0810  -22.3770   -6.5640 C.2     1  UNL1        0.0940
     18  C         18.5920  -21.0530   -4.1930 C.2     1  UNL1        0.0200
     19  C         19.3520  -20.8690   -5.3270 C.2     1  UNL1        0.1170
     20  N         19.1180  -21.5050   -6.4940 N.2     1  UNL1       -0.2580
     21  C         23.0920  -22.9420  -11.2230 C.3     1  UNL1        0.2400
     22  O         23.8660  -22.7090  -12.4000 O.2     1  UNL1       -0.3420
     23  C         24.7920  -21.7050  -12.3530 C.2     1  UNL1        0.1020
     24  C         25.4400  -21.2900  -11.1850 C.2     1  UNL1        0.0390
     25  C         26.3430  -20.2180  -11.2140 C.2     1  UNL1        0.0030
     26  C         26.6040  -19.5400  -12.4060 C.2     1  UNL1        0.0030
     27  C         25.9630  -19.9310  -13.5770 C.2     1  UNL1        0.0390
     28  C         25.0690  -21.0100  -13.5380 C.2     1  UNL1        0.1360
     29  N         24.4310  -21.4050  -14.7810 N.pl3   1  UNL1       -0.1130
     30  O         23.3640  -20.8430  -15.0670 O.2     1  UNL1       -0.5320
     31  O         25.0180  -22.2330  -15.4930 O.2     1  UNL1       -0.5320
@<TRIPOS>BOND
     1    31    29    2
     2    30    29    2
     3    29    28    1
     4    27    28    1
     5    27    26    2
     6    28    23    2
     7    26    25    1
     8    22    23    1
     9    22    21    1
    10     3     2    1
    11     3     4    2
    12    23    24    1
    13     2     1    2
    14     4    21    1
    15     4     5    1
    16    25    24    2
    17     1     5    1
    18     1     6    1
    19     7     6    2
    20     6     8   am
    21     8     9    1
    22     8    10    1
    23    11    10    2
    24    11    12    1
    25    10    17    1
    26    12    13    2
    27    17    20    1
    28    17    15    2
    29    20    19    2
    30    13    15    1
    31    13    14    1
    32    15    16    1
    33    19    18    1
    34    16    18    2
