@<TRIPOS>MOLECULE
73124_out_ligand_01.pdbqt
 30 33 0 0 0
SMALL
GASTEIGER

@<TRIPOS>ATOM
      1  C         21.1530  -22.8330  -10.3050 C.2     1  UNL1       -0.0380
      2  C         20.6960  -22.1530  -11.4510 C.2     1  UNL1        0.0090
      3  C         19.3680  -21.7350  -11.5580 C.2     1  UNL1        0.0100
      4  C         18.5090  -21.9980  -10.5030 C.2     1  UNL1       -0.0300
      5  C         18.9480  -22.6730   -9.3640 C.2     1  UNL1        0.0440
      6  C         20.2610  -23.1030   -9.2540 C.2     1  UNL1        0.0390
      7  N         17.9020  -22.7840   -8.4320 N.am    1  UNL1       -0.3130
      8  C         17.9700  -23.4650   -7.2280 C.2     1  UNL1        0.2580
      9  O         18.8770  -24.2090   -6.8660 O.2     1  UNL1       -0.2670
     10  C         16.7270  -22.0740   -8.9730 C.2     1  UNL1        0.1370
     11  C         17.0550  -21.6720  -10.4170 C.2     1  UNL1        0.0610
     12  C         22.5850  -23.3000  -10.2220 C.3     1  UNL1        0.1630
     13  N         23.3110  -22.9530  -11.4250 N.am    1  UNL1       -0.3390
     14  C         24.0910  -21.8150  -11.4760 C.2     1  UNL1        0.3200
     15  O         24.2820  -21.1000  -10.5000 O.2     1  UNL1       -0.2470
     16  N         24.6150  -21.6420  -12.7380 N.am    1  UNL1       -0.3090
     17  H         24.4770  -22.4080  -13.3770 H       1  UNL1        0.1700
     18  H         22.8740  -23.2360  -12.2870 H       1  UNL1        0.1640
     19  C         25.4280  -20.5850  -13.1970 C.2     1  UNL1        0.0360
     20  C         26.3480  -19.9040  -12.3960 C.2     1  UNL1        0.0290
     21  C         27.1200  -18.8670  -12.9280 C.2     1  UNL1        0.0020
     22  C         26.9760  -18.4970  -14.2630 C.2     1  UNL1        0.0000
     23  C         26.0570  -19.1640  -15.0700 C.2     1  UNL1        0.0020
     24  C         25.2870  -20.2020  -14.5380 C.2     1  UNL1        0.0290
     25  C         16.8400  -23.2850   -6.2890 C.2     1  UNL1        0.0320
     26  C         15.6580  -24.0030   -6.4910 C.2     1  UNL1        0.0170
     27  C         14.5990  -23.8510   -5.5960 C.2     1  UNL1        0.0010
     28  C         14.7270  -22.9960   -4.4980 C.2     1  UNL1        0.0000
     29  C         15.9170  -22.2980   -4.2860 C.2     1  UNL1        0.0010
     30  C         16.9790  -22.4470   -5.1760 C.2     1  UNL1        0.0170
@<TRIPOS>BOND
     1    23    24    1
     2    23    22    2
     3    24    19    2
     4    22    21    1
     5    17    16    1
     6    19    16    1
     7    19    20    1
     8    21    20    2
     9    16    14   am
    10    18    13    1
    11     3     2    1
    12     3     4    2
    13    14    13   am
    14    14    15    2
    15     2     1    2
    16    13    12    1
    17     4    11    1
    18     4     5    1
    19    11    10    2
    20     1    12    1
    21     1     6    1
    22     5     6    2
    23     5     7    1
    24    10     7    1
    25     7     8   am
    26     8     9    2
    27     8    25    1
    28    26    25    2
    29    26    27    1
    30    25    30    1
    31    27    28    2
    32    30    29    2
    33    28    29    1
