@<TRIPOS>MOLECULE
73133_out_ligand_01.pdbqt
 37 40 0 0 0
SMALL
GASTEIGER

@<TRIPOS>ATOM
      1  C         25.8090  -23.2730  -10.7650 C.3     1  UNL1        0.1640
      2  N         24.4460  -22.8370  -10.9940 N.ar    1  UNL1       -0.2690
      3  C         23.4810  -23.2020  -10.0490 C.ar    1  UNL1        0.2820
      4  O         23.7170  -23.8960   -9.0650 O.2     1  UNL1       -0.2650
      5  C         22.1820  -22.7120  -10.3640 C.ar    1  UNL1        0.1670
      6  C         21.9090  -22.0390  -11.5150 C.ar    1  UNL1        0.1850
      7  N         20.5950  -21.7120  -11.6140 N.ar    1  UNL1       -0.0440
      8  C         20.0400  -22.1750  -10.5130 C.ar    1  UNL1        0.7050
      9  N         20.9850  -22.7730   -9.6960 N.ar    1  UNL1       -0.1680
     10  N         22.8780  -21.7670  -12.4490 N.ar    1  UNL1       -0.2850
     11  C         22.5320  -21.0770  -13.6780 C.3     1  UNL1        0.1630
     12  C         24.1890  -22.1810  -12.2140 C.ar    1  UNL1        0.3320
     13  O         25.0900  -21.9940  -13.0380 O.2     1  UNL1       -0.2460
     14  N         18.7330  -22.0980  -10.1750 N.pl3   1  UNL1       -0.2240
     15  H         18.2470  -21.2150  -10.2840 H       1  UNL1        0.1770
     16  C         17.8960  -23.2620  -10.4690 C.3     1  UNL1        0.1420
     17  C         16.4230  -22.9830  -10.1280 C.3     1  UNL1        0.0580
     18  C         16.1000  -23.1880   -8.6610 C.2     1  UNL1       -0.0570
     19  C         15.5600  -22.1410   -7.8990 C.2     1  UNL1        0.0090
     20  C         15.3260  -22.3090   -6.5340 C.2     1  UNL1        0.0250
     21  C         15.6210  -23.5340   -5.9310 C.2     1  UNL1        0.0740
     22  C         16.1500  -24.5890   -6.6750 C.2     1  UNL1        0.0250
     23  C         16.3840  -24.4150   -8.0400 C.2     1  UNL1        0.0090
     24  S         15.3580  -23.7180   -4.1870 S.O2    1  UNL1        0.2390
     25  O         15.0690  -22.4180   -3.6270 O.2     1  UNL1       -0.2060
     26  O         14.5040  -24.8630   -3.9840 O.2     1  UNL1       -0.2060
     27  N         16.9050  -24.1070   -3.6480 N.3     1  UNL1       -0.2250
     28  H         16.9900  -25.0690   -3.3240 H       1  UNL1        0.1360
     29  H         17.5740  -23.8970   -4.3910 H       1  UNL1        0.1360
     30  C         20.7540  -23.3990   -8.4040 C.3     1  UNL1        0.1860
     31  C         20.3310  -22.4000   -7.3480 C.2     1  UNL1       -0.0390
     32  C         21.1650  -21.3330   -6.9710 C.2     1  UNL1        0.0120
     33  C         20.7480  -20.4090   -6.0090 C.2     1  UNL1        0.0430
     34  C         19.4990  -20.5510   -5.4190 C.2     1  UNL1        0.1160
     35  F         19.1000  -19.6710   -4.4910 F       1  UNL1       -0.2060
     36  C         18.6570  -21.5970   -5.7740 C.2     1  UNL1        0.0430
     37  C         19.0700  -22.5160   -6.7390 C.2     1  UNL1        0.0120
@<TRIPOS>BOND
     1    11    10    1
     2    13    12    2
     3    10    12   ar
     4    10     6   ar
     5    12     2   ar
     6     7     6   ar
     7     7     8   ar
     8     6     5   ar
     9     2     1    1
    10     2     3   ar
    11     8    14    1
    12     8     9   ar
    13    16    14    1
    14    16    17    1
    15     5     3   ar
    16     5     9   ar
    17    15    14    1
    18    17    18    1
    19     3     4    2
    20     9    30    1
    21    18    23    2
    22    18    19    1
    23    30    31    1
    24    23    22    1
    25    19    20    2
    26    31    32    2
    27    31    37    1
    28    32    33    1
    29    37    36    2
    30    22    21    2
    31    20    21    1
    32    33    34    2
    33    21    24    1
    34    36    34    1
    35    34    35    1
    36    29    27    1
    37    24    26    2
    38    24    27    1
    39    24    25    2
    40    27    28    1
