@<TRIPOS>MOLECULE
73151_out_ligand_01.pdbqt
 32 34 0 0 0
SMALL
GASTEIGER

@<TRIPOS>ATOM
      1  C         17.3490  -23.2610   -8.6260 C.2     1  UNL1        0.0760
      2  C         16.4530  -22.5690   -9.4480 C.2     1  UNL1        0.0280
      3  C         16.9480  -21.7780  -10.4840 C.2     1  UNL1        0.0450
      4  C         18.3250  -21.6880  -10.6930 C.2     1  UNL1        0.1320
      5  F         18.7530  -20.9090  -11.6980 F       1  UNL1       -0.2050
      6  C         19.2300  -22.3860   -9.8870 C.2     1  UNL1        0.0720
      7  C         18.7280  -23.1910   -8.8510 C.2     1  UNL1        0.0450
      8  S         16.7050  -24.2920   -7.3200 S.O2    1  UNL1        0.2480
      9  O         17.8260  -24.9850   -6.7170 O.2     1  UNL1       -0.2050
     10  O         15.6010  -25.0330   -7.8960 O.2     1  UNL1       -0.2050
     11  N         16.0980  -23.1450   -6.2040 N.pl3   1  UNL1       -0.1690
     12  C         15.1130  -22.1760   -6.7550 C.3     1  UNL1        0.1400
     13  C         14.0410  -21.8440   -5.7500 C.2     1  UNL1       -0.0210
     14  C         13.0240  -20.9770   -5.8700 C.2     1  UNL1        0.0080
     15  C         17.1140  -22.5340   -5.3770 C.2     1  UNL1        0.0250
     16  C         17.1130  -22.8350   -4.0130 C.2     1  UNL1        0.0240
     17  C         18.0180  -22.2100   -3.1530 C.2     1  UNL1        0.0020
     18  C         18.9120  -21.2630   -3.6520 C.2     1  UNL1        0.0000
     19  C         18.8940  -20.9340   -5.0070 C.2     1  UNL1        0.0020
     20  C         17.9890  -21.5590   -5.8670 C.2     1  UNL1        0.0240
     21  C         20.7120  -22.3070  -10.0660 C.2     1  UNL1        0.2590
     22  O         21.3990  -22.1430   -9.0630 O.2     1  UNL1       -0.2670
     23  N         21.1890  -22.4190  -11.3600 N.am    1  UNL1       -0.3230
     24  H         20.4980  -22.5330  -12.0950 H       1  UNL1        0.1690
     25  C         22.5330  -22.3830  -11.7910 C.2     1  UNL1        0.0360
     26  C         23.5920  -22.9880  -11.1070 C.2     1  UNL1        0.0320
     27  C         24.8980  -22.9050  -11.6020 C.2     1  UNL1        0.0460
     28  C         25.1480  -22.2180  -12.7830 C.2     1  UNL1        0.1380
     29  F         26.4070  -22.1520  -13.2390 F       1  UNL1       -0.2040
     30  C         24.1050  -21.6120  -13.4750 C.2     1  UNL1        0.0740
     31 CL         24.4020  -20.7570  -14.9400 Cl      1  UNL1       -0.0810
     32  C         22.8000  -21.6930  -12.9820 C.2     1  UNL1        0.0560
@<TRIPOS>BOND
     1    31    30    1
     2    30    32    1
     3    30    28    2
     4    29    28    1
     5    32    25    2
     6    28    27    1
     7    24    23    1
     8    25    23    1
     9    25    26    1
    10     5     4    1
    11    27    26    2
    12    23    21   am
    13     4     3    2
    14     4     6    1
    15     3     2    1
    16    21     6    1
    17    21    22    2
    18     6     7    2
    19     2     1    2
    20     7     1    1
    21     1     8    1
    22    10     8    2
    23     8     9    2
    24     8    11    1
    25    12    11    1
    26    12    13    1
    27    11    15    1
    28    14    13    2
    29    20    15    2
    30    20    19    1
    31    15    16    1
    32    19    18    2
    33    16    17    2
    34    18    17    1
