@<TRIPOS>MOLECULE
73169_out_ligand_01.pdbqt
 32 34 0 0 0
SMALL
GASTEIGER

@<TRIPOS>ATOM
      1  C         20.0920  -22.4080   -7.3410 C.2     1  UNL1        0.0720
      2  C         18.8330  -23.0290   -7.3540 C.2     1  UNL1        0.0450
      3  C         17.8300  -22.6010   -6.4760 C.2     1  UNL1        0.0800
      4  C         18.0670  -21.5660   -5.5690 C.2     1  UNL1        0.0280
      5  C         19.3180  -20.9520   -5.5460 C.2     1  UNL1        0.0450
      6  C         20.3170  -21.3720   -6.4270 C.2     1  UNL1        0.1320
      7  F         21.5030  -20.7480   -6.3700 F       1  UNL1       -0.2050
      8  S         16.2430  -23.4010   -6.5260 S.O2    1  UNL1        0.2590
      9  O         15.2310  -22.3700   -6.5850 O.2     1  UNL1       -0.2010
     10  O         16.2490  -24.4170   -5.4990 O.2     1  UNL1       -0.2010
     11  N         16.2650  -24.1790   -7.9970 N.3     1  UNL1       -0.3110
     12  H         16.9960  -24.8750   -8.1330 H       1  UNL1        0.1720
     13  C         15.6650  -23.5500   -9.1640 C.3     1  UNL1        0.1700
     14  C         16.7000  -22.7950   -9.9560 C.2     1  UNL1       -0.0400
     15  C         17.8900  -23.4260  -10.3440 C.2     1  UNL1        0.0090
     16  C         18.8650  -22.7240  -11.0570 C.2     1  UNL1        0.0070
     17  C         18.6670  -21.3800  -11.3950 C.2     1  UNL1       -0.0620
     18  C         19.7300  -20.6180  -12.1300 C.3     1  UNL1        0.0480
     19  C         17.4920  -20.7420  -10.9840 C.2     1  UNL1        0.0070
     20  C         16.5160  -21.4420  -10.2710 C.2     1  UNL1        0.0090
     21  C         21.1200  -22.8730   -8.3200 C.2     1  UNL1        0.2590
     22  N         21.7110  -21.9010   -9.1070 N.am    1  UNL1       -0.3230
     23  H         21.3960  -20.9460   -8.9750 H       1  UNL1        0.1690
     24  O         21.3590  -24.0760   -8.3580 O.2     1  UNL1       -0.2670
     25  C         22.7050  -22.0750  -10.0960 C.2     1  UNL1        0.0370
     26  C         22.5510  -22.8850  -11.2220 C.2     1  UNL1        0.0290
     27  C         23.5860  -23.0030  -12.1520 C.2     1  UNL1        0.0050
     28  C         24.7800  -22.3100  -11.9610 C.2     1  UNL1        0.0370
     29  C         24.9530  -21.4970  -10.8420 C.2     1  UNL1        0.0700
     30  C         23.9140  -21.3820   -9.9130 C.2     1  UNL1        0.0660
     31  O         26.1690  -20.8750  -10.7720 O.2     1  UNL1       -0.3560
     32  C         26.5560  -20.0810  -11.8870 C.3     1  UNL1        0.2100
@<TRIPOS>BOND
     1    27    28    2
     2    27    26    1
     3    18    17    1
     4    28    29    1
     5    32    31    1
     6    17    16    2
     7    17    19    1
     8    26    25    2
     9    16    15    1
    10    19    20    2
    11    29    31    1
    12    29    30    2
    13    15    14    2
    14    20    14    1
    15    25    30    1
    16    25    22    1
    17    14    13    1
    18    13    11    1
    19    22    23    1
    20    22    21   am
    21    24    21    2
    22    21     1    1
    23    12    11    1
    24    11     8    1
    25     2     1    2
    26     2     3    1
    27     1     6    1
    28     9     8    2
    29     8     3    1
    30     8    10    2
    31     3     4    2
    32     6     7    1
    33     6     5    2
    34     4     5    1
