@<TRIPOS>MOLECULE
73170_out_ligand_01.pdbqt
 34 37 0 0 0
SMALL
GASTEIGER

@<TRIPOS>ATOM
      1  C         21.6280  -23.0580  -10.3930 C.2     1  UNL1       -0.0380
      2  C         22.4720  -23.4730   -9.3460 C.2     1  UNL1        0.0090
      3  C         23.8630  -23.3880   -9.4630 C.2     1  UNL1        0.0100
      4  C         24.3970  -22.8640  -10.6270 C.2     1  UNL1       -0.0290
      5  C         23.5790  -22.4190  -11.6640 C.2     1  UNL1        0.0440
      6  C         22.2000  -22.5090  -11.5580 C.2     1  UNL1        0.0390
      7  N         24.3610  -21.8790  -12.7110 N.am    1  UNL1       -0.3090
      8  C         23.8440  -21.3080  -13.8660 C.2     1  UNL1        0.2580
      9  O         22.6620  -21.3200  -14.2110 O.2     1  UNL1       -0.2670
     10  C         25.7910  -22.1690  -12.4030 C.3     1  UNL1        0.0930
     11  C         26.3400  -23.2720  -13.3110 C.3     1  UNL1        0.0330
     12  C         25.8380  -22.5980  -10.9200 C.3     1  UNL1        0.0660
     13  C         20.1220  -23.0910  -10.2800 C.3     1  UNL1        0.1630
     14  N         19.5980  -22.1900   -9.2710 N.am    1  UNL1       -0.3390
     15  C         19.1650  -22.7340   -8.0750 C.2     1  UNL1        0.3200
     16  N         18.7290  -21.7410   -7.2200 N.am    1  UNL1       -0.3090
     17  O         19.1650  -23.9400   -7.8670 O.2     1  UNL1       -0.2470
     18  H         18.5550  -20.8530   -7.6660 H       1  UNL1        0.1700
     19  H         20.1140  -21.3270   -9.1640 H       1  UNL1        0.1640
     20  C         18.2670  -21.9010   -5.8960 C.2     1  UNL1        0.0370
     21  C         18.8190  -21.2340   -4.8010 C.2     1  UNL1        0.0290
     22  C         18.3230  -21.4470   -3.5120 C.2     1  UNL1        0.0030
     23  C         17.2610  -22.3280   -3.3090 C.2     1  UNL1        0.0150
     24  C         16.6840  -22.9960   -4.3970 C.2     1  UNL1        0.0110
     25  C         17.1840  -22.7720   -5.6880 C.2     1  UNL1        0.0440
     26  C         15.5580  -23.9450   -4.1290 C.2     1  UNL1        0.1550
     27  C         14.3660  -23.9490   -5.0520 C.3     1  UNL1        0.0960
     28  O         15.6150  -24.7120   -3.1700 O.2     1  UNL1       -0.2930
     29  C         24.7810  -20.6090  -14.7760 C.2     1  UNL1        0.0320
     30  C         24.8660  -21.0220  -16.1100 C.2     1  UNL1        0.0170
     31  C         25.7210  -20.3570  -16.9890 C.2     1  UNL1        0.0010
     32  C         26.4770  -19.2720  -16.5410 C.2     1  UNL1        0.0000
     33  C         26.3660  -18.8350  -15.2180 C.2     1  UNL1        0.0010
     34  C         25.5060  -19.4930  -14.3370 C.2     1  UNL1        0.0170
@<TRIPOS>BOND
     1    31    32    2
     2    31    30    1
     3    32    33    1
     4    30    29    2
     5    33    34    2
     6    29    34    1
     7    29     8    1
     8     9     8    2
     9     8     7   am
    10    11    10    1
    11     7    10    1
    12     7     5    1
    13    10    12    1
    14     5     6    1
    15     5     4    2
    16     6     1    2
    17    12     4    1
    18     4     3    1
    19     1    13    1
    20     1     2    1
    21    13    14    1
    22     3     2    2
    23    14    19    1
    24    14    15   am
    25    15    17    2
    26    15    16   am
    27    18    16    1
    28    16    20    1
    29    20    25    2
    30    20    21    1
    31    25    24    1
    32    27    26    1
    33    21    22    2
    34    24    26    1
    35    24    23    2
    36    26    28    2
    37    22    23    1
