@<TRIPOS>MOLECULE
73178_out_ligand_01.pdbqt
 30 32 0 0 0
SMALL
GASTEIGER

@<TRIPOS>ATOM
      1  C         20.9150  -21.7400  -10.8370 C.2     1  UNL1        0.0350
      2  C         20.3090  -20.7990  -11.6850 C.2     1  UNL1        0.0170
      3  C         18.9160  -20.7200  -11.7620 C.2     1  UNL1        0.0040
      4  C         18.1260  -21.5690  -10.9880 C.2     1  UNL1        0.0370
      5  C         18.7460  -22.4780  -10.1320 C.2     1  UNL1        0.0790
      6  C         20.1300  -22.5850  -10.0490 C.2     1  UNL1        0.0540
      7  O         17.9610  -23.3400   -9.3430 O.3     1  UNL1       -0.2840
      8  C         16.6880  -22.9740   -8.8790 C.2     1  UNL1        0.2200
      9  S         15.4540  -23.7940   -9.6390 S.2     1  UNL1       -0.0330
     10  N         16.6760  -22.0710   -7.8370 N.am    1  UNL1       -0.3270
     11  H         16.9350  -21.1370   -8.1210 H       1  UNL1        0.1690
     12  C         16.4410  -22.2110   -6.4460 C.2     1  UNL1        0.0410
     13  C         15.1740  -22.4720   -5.9180 C.2     1  UNL1        0.0300
     14  C         14.9710  -22.5580   -4.5420 C.2     1  UNL1        0.0030
     15  C         16.0320  -22.3650   -3.6660 C.2     1  UNL1        0.0070
     16  C         17.3150  -22.0800   -4.1530 C.2     1  UNL1       -0.0540
     17  C         18.4210  -21.8680   -3.1530 C.3     1  UNL1        0.0490
     18  C         17.5330  -22.0130   -5.5530 C.2     1  UNL1       -0.0290
     19  C         18.9170  -21.7250   -6.0910 C.3     1  UNL1        0.0510
     20  C         22.3930  -21.8370  -10.7240 C.2     1  UNL1        0.2560
     21  N         22.9720  -22.7690  -11.5650 N.am    1  UNL1       -0.3230
     22  H         22.3460  -23.3580  -12.0960 H       1  UNL1        0.1690
     23  O         22.9500  -21.1220   -9.9010 O.2     1  UNL1       -0.2670
     24  C         24.3450  -23.0620  -11.7020 C.2     1  UNL1        0.0350
     25  C         25.2970  -22.8190  -10.7120 C.2     1  UNL1        0.0290
     26  C         26.6390  -23.1420  -10.9270 C.2     1  UNL1        0.0030
     27  C         27.0420  -23.7070  -12.1360 C.2     1  UNL1        0.0070
     28  C         26.1080  -23.9430  -13.1470 C.2     1  UNL1       -0.0600
     29  C         26.5290  -24.5830  -14.4370 C.3     1  UNL1        0.0480
     30  C         24.7610  -23.6270  -12.9170 C.2     1  UNL1        0.0360
@<TRIPOS>BOND
     1    29    28    1
     2    28    30    1
     3    28    27    2
     4    30    24    2
     5    27    26    1
     6    22    21    1
     7     3     2    1
     8     3     4    2
     9    24    21    1
    10    24    25    1
    11     2     1    2
    12    21    20   am
    13     4     5    1
    14    26    25    2
    15     1    20    1
    16     1     6    1
    17    20    23    2
    18     5     6    2
    19     5     7    1
    20     9     8    2
    21     7     8    1
    22     8    10    1
    23    11    10    1
    24    10    12    1
    25    12    13    2
    26    12    18    1
    27    19    18    1
    28    13    14    1
    29    18    16    2
    30    14    15    2
    31    16    15    1
    32    16    17    1
