@<TRIPOS>MOLECULE
73181_out_ligand_01.pdbqt
 33 36 0 0 0
SMALL
GASTEIGER

@<TRIPOS>ATOM
      1  C         17.1150  -23.8830   -8.0710 C.ar    1  UNL1        0.1410
      2  N         15.8890  -23.6540   -8.4950 N.ar    1  UNL1       -0.1330
      3  N         15.9660  -22.9720   -9.6750 N.ar    1  UNL1       -0.1220
      4  C         17.2350  -22.8050   -9.9680 C.ar    1  UNL1        0.1960
      5  N         18.0290  -23.3710   -8.9870 N.ar    1  UNL1       -0.2750
      6  C         17.4320  -24.4170   -6.7080 C.3     1  UNL1        0.1380
      7  C         17.2210  -23.4220   -5.5880 C.2     1  UNL1        0.0260
      8  C         18.2240  -22.8210   -4.9350 C.2     1  UNL1        0.1000
      9  C         17.9120  -21.8790   -3.8390 C.2     1  UNL1        0.2510
     10  O         18.8120  -21.3800   -3.1740 O.2     1  UNL1       -0.2680
     11  N         16.5900  -21.6260   -3.6220 N.am    1  UNL1       -0.2750
     12  C         15.5610  -22.2660   -4.2490 C.2     1  UNL1        0.3270
     13  H         16.3480  -21.0050   -2.8650 H       1  UNL1        0.1730
     14  N         15.9210  -23.1480   -5.2310 N.am    1  UNL1       -0.3120
     15  O         14.3870  -22.0770   -3.9510 O.2     1  UNL1       -0.2470
     16  H         15.1470  -23.5990   -5.7150 H       1  UNL1        0.1700
     17  C         19.4440  -23.3710   -8.8740 C.2     1  UNL1        0.0430
     18  C         20.0920  -22.3420   -8.1730 C.2     1  UNL1        0.0330
     19  C         21.4870  -22.3300   -8.0870 C.2     1  UNL1        0.0440
     20  C         22.2230  -23.3410   -8.6950 C.2     1  UNL1        0.1160
     21  F         23.5590  -23.3230   -8.6120 F       1  UNL1       -0.2060
     22  C         21.5910  -24.3680   -9.3860 C.2     1  UNL1        0.0440
     23  C         20.1950  -24.3890   -9.4760 C.2     1  UNL1        0.0330
     24  S         17.8300  -22.1120  -11.4440 S.3     1  UNL1       -0.0860
     25  C         18.7530  -20.6770  -10.8330 C.3     1  UNL1        0.1090
     26  C         20.1200  -20.6190  -11.4450 C.2     1  UNL1       -0.0150
     27  C         20.8080  -21.7120  -11.8090 C.2     1  UNL1        0.0080
     28  C         22.1160  -21.6910  -12.4710 C.2     1  UNL1       -0.0360
     29  C         22.2570  -20.9560  -13.6550 C.2     1  UNL1        0.0110
     30  C         23.4770  -20.9260  -14.3350 C.2     1  UNL1        0.0010
     31  C         24.5640  -21.6430  -13.8430 C.2     1  UNL1        0.0000
     32  C         24.4330  -22.3900  -12.6740 C.2     1  UNL1        0.0010
     33  C         23.2120  -22.4190  -11.9950 C.2     1  UNL1        0.0110
@<TRIPOS>BOND
     1    30    31    2
     2    30    29    1
     3    31    32    1
     4    29    28    2
     5    32    33    2
     6    28    33    1
     7    28    27    1
     8    27    26    2
     9    26    25    1
    10    24    25    1
    11    24     4    1
    12     4     3   ar
    13     4     5   ar
    14     3     2   ar
    15    23    22    1
    16    23    17    2
    17    22    20    2
    18     5    17    1
    19     5     1   ar
    20    17    18    1
    21    20    21    1
    22    20    19    1
    23     2     1   ar
    24    18    19    2
    25     1     6    1
    26     6     7    1
    27    16    14    1
    28     7    14    1
    29     7     8    2
    30    14    12   am
    31     8     9    1
    32    12    15    2
    33    12    11   am
    34     9    11   am
    35     9    10    2
    36    11    13    1
