@<TRIPOS>MOLECULE
73189_out_ligand_01.pdbqt
 33 36 0 0 0
SMALL
GASTEIGER

@<TRIPOS>ATOM
      1  O         20.6390  -22.3920   -8.5390 O.2     1  UNL1       -0.3400
      2  C         21.7770  -23.0480   -9.0750 C.3     1  UNL1        0.2780
      3  C         22.6880  -22.2680  -10.0390 C.2     1  UNL1        0.2460
      4  N         22.7290  -22.7870  -11.3210 N.am    1  UNL1       -0.3250
      5  H         22.2760  -23.6930  -11.4550 H       1  UNL1        0.1690
      6  O         23.2680  -21.2570   -9.6470 O.2     1  UNL1       -0.2710
      7  C         23.4320  -22.2710  -12.4280 C.2     1  UNL1        0.0340
      8  C         24.7690  -22.5640  -12.7090 C.2     1  UNL1        0.0300
      9  C         25.4040  -22.0110  -13.8300 C.2     1  UNL1        0.0190
     10  C         24.7020  -21.1620  -14.6930 C.2     1  UNL1        0.0320
     11  C         23.3700  -20.8520  -14.4050 C.2     1  UNL1        0.0190
     12  C         22.7440  -21.4040  -13.2830 C.2     1  UNL1        0.0300
     13  C         25.3230  -20.5580  -15.9040 C.2     1  UNL1        0.2490
     14  N         24.5000  -20.2320  -16.9460 N.am    1  UNL1       -0.3660
     15  H         23.4990  -20.1620  -16.8470 H       1  UNL1        0.1590
     16  H         24.9290  -19.7120  -17.7010 H       1  UNL1        0.1590
     17  O         26.5230  -20.3230  -15.9640 O.2     1  UNL1       -0.2680
     18  C         19.6300  -22.1560   -9.4500 C.2     1  UNL1        0.0990
     19  C         19.9010  -21.6330  -10.7180 C.2     1  UNL1        0.0390
     20  C         18.8600  -21.4370  -11.6190 C.2     1  UNL1        0.0040
     21  C         17.5590  -21.7740  -11.2530 C.2     1  UNL1        0.0140
     22  C         17.2960  -22.3250   -9.9870 C.2     1  UNL1       -0.0040
     23  C         16.0070  -22.6780   -9.5910 C.2     1  UNL1        0.0170
     24  C         18.3360  -22.5330   -9.0670 C.2     1  UNL1        0.1020
     25  C         15.7980  -23.2380   -8.3310 C.2     1  UNL1        0.0510
     26  C         16.8720  -23.4550   -7.4720 C.2     1  UNL1        0.1260
     27  N         18.1080  -23.0510   -7.8380 N.2     1  UNL1       -0.2280
     28  N         16.6950  -24.0270   -6.2070 N.pl3   1  UNL1       -0.3660
     29  C         15.3180  -24.0080   -5.6800 C.3     1  UNL1        0.1240
     30  C         14.9920  -22.6580   -5.0370 C.3     1  UNL1        0.0200
     31  C         16.0300  -22.2820   -3.9800 C.3     1  UNL1        0.0030
     32  C         17.4500  -22.3770   -4.5370 C.3     1  UNL1        0.0200
     33  C         17.7020  -23.7470   -5.1720 C.3     1  UNL1        0.1240
@<TRIPOS>BOND
     1    16    14    1
     2    14    15    1
     3    14    13   am
     4    17    13    2
     5    13    10    1
     6    10    11    2
     7    10     9    1
     8    11    12    1
     9     9     8    2
    10    12     7    2
    11     8     7    1
    12     7     4    1
    13    20    21    2
    14    20    19    1
    15     5     4    1
    16     4     3   am
    17    21    22    1
    18    19    18    2
    19     3     6    2
    20     3     2    1
    21    22    23    2
    22    22    24    1
    23    23    25    1
    24    18    24    1
    25    18     1    1
    26     2     1    1
    27    24    27    2
    28    25    26    2
    29    27    26    1
    30    26    28    1
    31    28    29    1
    32    28    33    1
    33    29    30    1
    34    33    32    1
    35    30    31    1
    36    32    31    1
