@<TRIPOS>MOLECULE
73242_out_ligand_01.pdbqt
 34 37 0 0 0
SMALL
GASTEIGER

@<TRIPOS>ATOM
      1  C         16.8670  -23.1290   -7.3390 C.2     1  UNL1        0.1060
      2  C         15.7740  -23.0120   -8.1940 C.2     1  UNL1        0.0450
      3  C         15.9630  -22.6030   -9.5120 C.2     1  UNL1        0.0170
      4  C         17.2470  -22.3100   -9.9660 C.2     1  UNL1       -0.0040
      5  C         17.4800  -21.8970  -11.2880 C.2     1  UNL1        0.0140
      6  C         18.7720  -21.6090  -11.7140 C.2     1  UNL1        0.0040
      7  C         19.8370  -21.7160  -10.8230 C.2     1  UNL1        0.0390
      8  C         19.6040  -22.1400   -9.5100 C.2     1  UNL1        0.0990
      9  C         18.3120  -22.4480   -9.0570 C.2     1  UNL1        0.1020
     10  N         18.1150  -22.8830   -7.7910 N.2     1  UNL1       -0.2330
     11  O         20.6050  -22.2210   -8.5670 O.2     1  UNL1       -0.3400
     12  C         21.8170  -22.8230   -8.9810 C.3     1  UNL1        0.2780
     13  C         22.6410  -22.0740  -10.0330 C.2     1  UNL1        0.2460
     14  O         23.2790  -21.0730   -9.7080 O.2     1  UNL1       -0.2710
     15  N         22.6140  -22.6670  -11.2810 N.am    1  UNL1       -0.3250
     16  H         21.9880  -23.4660  -11.3760 H       1  UNL1        0.1690
     17  C         23.3180  -22.2800  -12.4370 C.2     1  UNL1        0.0340
     18  C         24.5720  -22.7790  -12.7890 C.2     1  UNL1        0.0300
     19  C         25.1910  -22.3720  -13.9780 C.2     1  UNL1        0.0190
     20  C         24.5670  -21.4510  -14.8280 C.2     1  UNL1        0.0320
     21  C         23.3100  -20.9450  -14.4790 C.2     1  UNL1        0.0190
     22  C         22.6970  -21.3560  -13.2880 C.2     1  UNL1        0.0300
     23  C         25.2610  -21.0710  -16.0950 C.2     1  UNL1        0.2490
     24  N         24.5600  -20.3390  -17.0200 N.am    1  UNL1       -0.3660
     25  H         25.1010  -20.0060  -17.8100 H       1  UNL1        0.1590
     26  H         23.7110  -19.8460  -16.7860 H       1  UNL1        0.1590
     27  O         26.4310  -21.3730  -16.3030 O.2     1  UNL1       -0.2680
     28  N         16.6820  -23.5380   -6.0050 N.pl3   1  UNL1       -0.2640
     29  C         17.6630  -22.9670   -5.0670 C.3     1  UNL1        0.0970
     30  C         17.5960  -23.7110   -3.7300 C.3     1  UNL1        0.0150
     31  C         16.1820  -23.7030   -3.1540 C.3     1  UNL1        0.0030
     32  C         15.1880  -24.2520   -4.1770 C.3     1  UNL1        0.0200
     33  C         15.2740  -23.5250   -5.5330 C.3     1  UNL1        0.0600
     34  C         14.6920  -22.1070   -5.4530 C.3     1  UNL1        0.0270
@<TRIPOS>BOND
     1    25    24    1
     2    24    26    1
     3    24    23   am
     4    27    23    2
     5    23    20    1
     6    20    21    2
     7    20    19    1
     8    21    22    1
     9    19    18    2
    10    22    17    2
    11    18    17    1
    12    17    15    1
    13     6     5    2
    14     6     7    1
    15    16    15    1
    16     5     4    1
    17    15    13   am
    18     7     8    2
    19    13    14    2
    20    13    12    1
    21     4     3    2
    22     4     9    1
    23     3     2    1
    24     8     9    1
    25     8    11    1
    26     9    10    2
    27    12    11    1
    28     2     1    2
    29    10     1    1
    30     1    28    1
    31    28    33    1
    32    28    29    1
    33    33    34    1
    34    33    32    1
    35    29    30    1
    36    32    31    1
    37    30    31    1
