@<TRIPOS>MOLECULE
73257_out_ligand_01.pdbqt
 30 33 0 0 0
SMALL
GASTEIGER

@<TRIPOS>ATOM
      1  C         18.3260  -22.4970  -10.2590 C.2     1  UNL1        0.1450
      2  N         17.9600  -21.4840  -11.0840 N.2     1  UNL1       -0.2230
      3  C         18.9010  -20.8120  -11.7670 C.2     1  UNL1        0.2370
      4  N         20.2250  -21.0080  -11.7500 N.2     1  UNL1       -0.2210
      5  C         20.5810  -22.0160  -10.9280 C.2     1  UNL1        0.1680
      6  C         19.7020  -22.7810  -10.1760 C.2     1  UNL1        0.0770
      7  C         20.5240  -23.6910   -9.4920 C.2     1  UNL1        0.1580
      8  N         21.8170  -23.5410   -9.7710 N.2     1  UNL1       -0.1770
      9  N         21.8610  -22.5030  -10.6600 N.pl3   1  UNL1       -0.2150
     10  N         17.3840  -23.2380   -9.5300 N.pl3   1  UNL1       -0.3400
     11  H         16.8070  -23.8380  -10.1040 H       1  UNL1        0.1670
     12  C         17.1000  -23.3310   -8.1560 C.2     1  UNL1        0.0330
     13  C         16.0910  -22.5080   -7.6270 C.2     1  UNL1        0.0300
     14  C         15.7650  -22.5360   -6.2660 C.2     1  UNL1        0.0190
     15  C         16.4530  -23.3850   -5.3960 C.2     1  UNL1        0.0320
     16  C         17.4520  -24.2170   -5.9060 C.2     1  UNL1        0.0190
     17  C         17.7700  -24.1820   -7.2720 C.2     1  UNL1        0.0300
     18  C         16.0750  -23.3810   -3.9580 C.2     1  UNL1        0.2490
     19  N         16.1040  -22.1840   -3.2980 N.am    1  UNL1       -0.3660
     20  H         16.1130  -21.3010   -3.7880 H       1  UNL1        0.1590
     21  H         15.7200  -22.1900   -2.3610 H       1  UNL1        0.1590
     22  O         15.7150  -24.4020   -3.3850 O.2     1  UNL1       -0.2680
     23  C         23.1250  -22.0740  -11.1730 C.2     1  UNL1        0.0630
     24  C         24.1530  -21.6130  -10.3340 C.2     1  UNL1        0.0350
     25  C         25.3770  -21.2020  -10.8740 C.2     1  UNL1        0.0480
     26  C         25.5790  -21.2500  -12.2490 C.2     1  UNL1        0.1540
     27  F         26.7530  -20.8550  -12.7570 F       1  UNL1       -0.2030
     28  C         24.5700  -21.7040  -13.0870 C.2     1  UNL1        0.1570
     29  F         24.7650  -21.7500  -14.4110 F       1  UNL1       -0.2030
     30  C         23.3470  -22.1160  -12.5620 C.2     1  UNL1        0.0770
@<TRIPOS>BOND
     1    29    28    1
     2    28    30    1
     3    28    26    2
     4    27    26    1
     5    30    23    2
     6    26    25    1
     7     3     4    2
     8     3     2    1
     9     4     5    1
    10    23     9    1
    11    23    24    1
    12     2     1    2
    13     5     9    1
    14     5     6    2
    15    25    24    2
    16     9     8    1
    17     1     6    1
    18     1    10    1
    19     6     7    1
    20    11    10    1
    21     8     7    2
    22    10    12    1
    23    12    13    2
    24    12    17    1
    25    13    14    1
    26    17    16    2
    27    14    15    2
    28    16    15    1
    29    15    18    1
    30    18    22    2
    31    18    19   am
    32    20    19    1
    33    19    21    1
