@<TRIPOS>MOLECULE
73251_out_ligand_01.pdbqt
 26 29 0 0 0
SMALL
GASTEIGER

@<TRIPOS>ATOM
      1  N         19.5400  -22.3780   -9.2850 N.am    1  UNL1       -0.3230
      2  C         19.5070  -23.5670   -8.5800 C.2     1  UNL1        0.2570
      3  O         20.1130  -24.6000   -8.8280 O.2     1  UNL1       -0.2670
      4  H         18.9100  -21.6510   -8.9630 H       1  UNL1        0.1690
      5  C         20.3270  -22.0720  -10.4130 C.2     1  UNL1        0.0360
      6  C         21.6650  -22.4920  -10.3820 C.2     1  UNL1        0.0470
      7  C         22.4540  -22.2040  -11.4790 C.2     1  UNL1        0.0500
      8  C         23.8600  -22.5070  -11.7380 C.2     1  UNL1        0.2590
      9  C         21.9660  -21.5270  -12.5820 C.2     1  UNL1        0.0480
     10  N         24.1420  -22.0000  -12.9690 N.am    1  UNL1       -0.2890
     11  O         24.6010  -23.0990  -10.9790 O.2     1  UNL1       -0.2670
     12  C         23.0630  -21.4000  -13.5410 C.2     1  UNL1        0.2590
     13  H         25.0460  -22.0650  -13.4100 H       1  UNL1        0.1720
     14  O         22.9940  -20.8610  -14.6270 O.2     1  UNL1       -0.2670
     15  C         20.6580  -21.1020  -12.6460 C.2     1  UNL1        0.0200
     16  C         19.8350  -21.3830  -11.5450 C.2     1  UNL1        0.0300
     17  C         18.5620  -23.5570   -7.4340 C.2     1  UNL1        0.0430
     18  C         17.5820  -24.5580   -7.4360 C.2     1  UNL1        0.0180
     19  C         16.6180  -24.5820   -6.4360 C.2     1  UNL1        0.0020
     20  C         16.6360  -23.6120   -5.4340 C.2     1  UNL1        0.0120
     21  C         17.6260  -22.6150   -5.4040 C.2     1  UNL1       -0.0250
     22  C         17.6330  -21.6580   -4.3750 C.2     1  UNL1        0.0120
     23  C         18.6250  -22.5790   -6.4070 C.2     1  UNL1       -0.0100
     24  C         18.6210  -20.6760   -4.3130 C.2     1  UNL1        0.0010
     25  C         19.6220  -20.6430   -5.2740 C.2     1  UNL1        0.0010
     26  C         19.6290  -21.5840   -6.3050 C.2     1  UNL1        0.0130
@<TRIPOS>BOND
     1    14    12    2
     2    12    10   am
     3    12     9    1
     4    13    10    1
     5    10     8   am
     6    15     9    2
     7    15    16    1
     8     9     7    1
     9     8     7    1
    10     8    11    2
    11    16     5    2
    12     7     6    2
    13     5     6    1
    14     5     1    1
    15     1     4    1
    16     1     2   am
    17     3     2    2
    18     2    17    1
    19    18    17    2
    20    18    19    1
    21    17    23    1
    22    19    20    2
    23    23    26    1
    24    23    21    2
    25    26    25    2
    26    20    21    1
    27    21    22    1
    28    25    24    1
    29    22    24    2
