@<TRIPOS>MOLECULE
73258_out_ligand_01.pdbqt
 29 32 0 0 0
SMALL
GASTEIGER

@<TRIPOS>ATOM
      1  C         15.8540  -23.0860   -4.2700 C.3     1  UNL1        0.0480
      2  C         16.2930  -23.0950   -5.7050 C.2     1  UNL1       -0.0600
      3  C         15.5030  -22.5010   -6.6910 C.2     1  UNL1        0.0090
      4  C         15.8940  -22.5560   -8.0290 C.2     1  UNL1        0.0400
      5  C         17.0880  -23.1880   -8.3910 C.2     1  UNL1        0.1020
      6  C         17.8900  -23.7840   -7.4200 C.2     1  UNL1        0.0690
      7  C         17.4720  -23.7560   -6.0830 C.2     1  UNL1        0.0390
      8  N         19.0770  -24.4710   -7.7030 N.am    1  UNL1       -0.3200
      9  C         19.9190  -24.3640   -8.7790 C.2     1  UNL1        0.2590
     10  O         20.9180  -25.0840   -8.8240 O.2     1  UNL1       -0.2670
     11  C         19.7370  -23.3170   -9.8060 C.2     1  UNL1        0.0680
     12  C         20.8970  -22.8150  -10.4250 C.2     1  UNL1        0.0490
     13  C         20.8260  -21.8290  -11.4170 C.2     1  UNL1        0.0360
     14  C         19.5740  -21.3540  -11.7990 C.2     1  UNL1        0.0320
     15  C         18.4160  -21.8590  -11.2000 C.2     1  UNL1        0.0400
     16  C         18.4980  -22.8290  -10.1960 C.2     1  UNL1        0.0920
     17  O         17.3080  -23.3170   -9.7370 O.2     1  UNL1       -0.3070
     18  H         19.4600  -25.0670   -6.9790 H       1  UNL1        0.1690
     19  N         22.0460  -21.3880  -11.9730 N.am    1  UNL1       -0.3230
     20  C         23.2210  -22.1040  -12.1160 C.2     1  UNL1        0.2590
     21  O         23.3900  -23.2710  -11.7760 O.2     1  UNL1       -0.2670
     22  H         22.0490  -20.4290  -12.3060 H       1  UNL1        0.1690
     23  C         24.3740  -21.3820  -12.7370 C.2     1  UNL1        0.0700
     24  C         24.3080  -21.0680  -14.1050 C.2     1  UNL1        0.0200
     25  C         25.3570  -20.3940  -14.7360 C.2     1  UNL1        0.0010
     26  C         26.4880  -20.0250  -14.0080 C.2     1  UNL1        0.0030
     27  C         26.5670  -20.3310  -12.6500 C.2     1  UNL1        0.0430
     28  C         25.5160  -21.0030  -12.0260 C.2     1  UNL1        0.1320
     29  F         25.6370  -21.2730  -10.7180 F       1  UNL1       -0.2050
@<TRIPOS>BOND
     1    25    24    1
     2    25    26    2
     3    24    23    2
     4    26    27    1
     5    23    20    1
     6    23    28    1
     7    27    28    2
     8    22    19    1
     9    20    19   am
    10    20    21    2
    11    28    29    1
    12    19    13    1
    13    14    13    2
    14    14    15    1
    15    13    12    1
    16    15    16    2
    17    12    11    2
    18    16    11    1
    19    16    17    1
    20    11     9    1
    21    17     5    1
    22    10     9    2
    23     9     8   am
    24     5     4    2
    25     5     6    1
    26     4     3    1
    27     8     6    1
    28     8    18    1
    29     6     7    2
    30     3     2    2
    31     7     2    1
    32     2     1    1
