@<TRIPOS>MOLECULE
73269_out_ligand_01.pdbqt
 31 34 0 0 0
SMALL
GASTEIGER

@<TRIPOS>ATOM
      1  C         21.4270  -22.1980   -9.5890 C.2     1  UNL1        0.0320
      2  C         20.8280  -22.2850  -10.8450 C.2     1  UNL1        0.0190
      3  C         21.6080  -22.2420  -12.0110 C.2     1  UNL1        0.0310
      4  C         23.0050  -22.1010  -11.9610 C.2     1  UNL1        0.0460
      5  C         23.5830  -21.9940  -10.6840 C.2     1  UNL1        0.0310
      6  C         22.8100  -22.0370   -9.5120 C.2     1  UNL1        0.0190
      7  C         20.5590  -22.2460   -8.3750 C.2     1  UNL1        0.2560
      8  O         21.0970  -22.1590   -7.2780 O.2     1  UNL1       -0.2670
      9  N         19.2020  -22.3450   -8.6310 N.am    1  UNL1       -0.3220
     10  H         18.9290  -22.2700   -9.6070 H       1  UNL1        0.1690
     11  C         18.1450  -22.4670   -7.6930 C.2     1  UNL1        0.0500
     12  C         18.3840  -22.5340   -6.3140 C.2     1  UNL1        0.0300
     13  C         17.3360  -22.6610   -5.3990 C.2     1  UNL1        0.0020
     14  C         16.0230  -22.7250   -5.8440 C.2     1  UNL1        0.0010
     15  C         15.7620  -22.6650   -7.2100 C.2     1  UNL1        0.0180
     16  C         16.8100  -22.5420   -8.1490 C.2     1  UNL1        0.0740
     17  C         16.4210  -22.4590   -9.6030 C.3     1  UNL1        0.4190
     18  F         16.7080  -21.2560  -10.1860 F       1  UNL1       -0.1660
     19  F         17.0480  -23.3910  -10.3740 F       1  UNL1       -0.1660
     20  F         15.0880  -22.6500   -9.7980 F       1  UNL1       -0.1660
     21  N         23.8000  -22.0580  -13.1520 N.am    1  UNL1       -0.2440
     22  C         24.8550  -22.9070  -13.4350 C.2     1  UNL1        0.2660
     23  O         25.3470  -23.8340  -12.8160 O.2     1  UNL1       -0.2670
     24  C         25.3850  -22.5220  -14.7380 C.2     1  UNL1        0.0480
     25  C         26.4350  -23.0490  -15.4670 C.2     1  UNL1        0.0180
     26  C         24.6370  -21.4650  -15.2000 C.2     1  UNL1        0.0480
     27  C         26.7150  -22.4640  -16.7060 C.2     1  UNL1        0.0010
     28  C         25.9480  -21.3800  -17.1790 C.2     1  UNL1        0.0010
     29  C         24.8910  -20.8670  -16.4200 C.2     1  UNL1        0.0180
     30  C         23.6230  -21.1670  -14.1950 C.2     1  UNL1        0.2660
     31  O         22.8220  -20.2670  -14.3750 O.2     1  UNL1       -0.2670
@<TRIPOS>BOND
     1    28    27    2
     2    28    29    1
     3    27    25    1
     4    29    26    2
     5    25    24    2
     6    26    24    1
     7    26    30    1
     8    24    22    1
     9    31    30    2
    10    30    21   am
    11    22    21   am
    12    22    23    2
    13    21     4    1
    14     3     4    2
    15     3     2    1
    16     4     5    1
    17     2     1    2
    18     5     6    2
    19    19    17    1
    20    18    17    1
    21    20    17    1
    22    10     9    1
    23    17    16    1
    24     1     6    1
    25     1     7    1
    26     9     7   am
    27     9    11    1
    28     7     8    2
    29    16    11    2
    30    16    15    1
    31    11    12    1
    32    15    14    2
    33    12    13    2
    34    14    13    1
