@<TRIPOS>MOLECULE
73270_out_ligand_01.pdbqt
 34 37 0 0 0
SMALL
GASTEIGER

@<TRIPOS>ATOM
      1  C         17.0610  -22.8730   -7.2290 C.2     1  UNL1        0.1060
      2  C         15.9410  -22.7830   -8.0500 C.2     1  UNL1        0.0450
      3  C         16.0920  -22.4620   -9.3910 C.2     1  UNL1        0.0170
      4  C         17.3730  -22.2590   -9.9070 C.2     1  UNL1       -0.0040
      5  C         17.5720  -21.9540  -11.2640 C.2     1  UNL1        0.0140
      6  C         18.8590  -21.7690  -11.7640 C.2     1  UNL1        0.0040
      7  C         19.9520  -21.8910  -10.9120 C.2     1  UNL1        0.0390
      8  C         19.7500  -22.1730   -9.5570 C.2     1  UNL1        0.0990
      9  C         18.4680  -22.3680   -9.0250 C.2     1  UNL1        0.1020
     10  N         18.2980  -22.6280   -7.7070 N.2     1  UNL1       -0.2330
     11  O         20.8040  -22.3320   -8.6820 O.2     1  UNL1       -0.3400
     12  C         21.9300  -23.0210   -9.2030 C.3     1  UNL1        0.2780
     13  C         22.8800  -22.2510  -10.1330 C.2     1  UNL1        0.2460
     14  O         23.4270  -21.2220   -9.7410 O.2     1  UNL1       -0.2710
     15  N         22.9970  -22.8080  -11.3950 N.am    1  UNL1       -0.3250
     16  H         22.5590  -23.7250  -11.5230 H       1  UNL1        0.1690
     17  C         23.7400  -22.3120  -12.4830 C.2     1  UNL1        0.0340
     18  C         25.0880  -22.6110  -12.7090 C.2     1  UNL1        0.0300
     19  C         25.7680  -22.0610  -13.8030 C.2     1  UNL1        0.0190
     20  C         25.1020  -21.2000  -14.6820 C.2     1  UNL1        0.0320
     21  C         23.7540  -20.8920  -14.4610 C.2     1  UNL1        0.0190
     22  C         23.0800  -21.4520  -13.3700 C.2     1  UNL1        0.0300
     23  C         25.7810  -20.5880  -15.8560 C.2     1  UNL1        0.2490
     24  N         24.9890  -20.0080  -16.8100 N.am    1  UNL1       -0.3660
     25  H         24.0290  -19.7580  -16.6210 H       1  UNL1        0.1590
     26  H         25.4750  -19.4820  -17.5310 H       1  UNL1        0.1590
     27  O         27.0040  -20.5590  -15.9480 O.2     1  UNL1       -0.2680
     28  N         16.8770  -23.2710   -5.8890 N.pl3   1  UNL1       -0.2670
     29  C         15.4790  -23.5080   -5.4900 C.3     1  UNL1        0.0970
     30  C         15.0040  -22.5290   -4.4200 C.3     1  UNL1        0.0150
     31  C         15.9080  -22.5350   -3.1810 C.3     1  UNL1        0.0060
     32  C         17.3960  -22.7200   -3.5170 C.3     1  UNL1       -0.0050
     33  C         17.9110  -24.1190   -3.1530 C.3     1  UNL1        0.0110
     34  C         17.6680  -22.3990   -4.9940 C.3     1  UNL1        0.1010
@<TRIPOS>BOND
     1    26    24    1
     2    24    25    1
     3    24    23   am
     4    27    23    2
     5    23    20    1
     6    20    21    2
     7    20    19    1
     8    21    22    1
     9    19    18    2
    10    22    17    2
    11    18    17    1
    12    17    15    1
    13     6     5    2
    14     6     7    1
    15    16    15    1
    16    15    13   am
    17     5     4    1
    18     7     8    2
    19    13    14    2
    20    13    12    1
    21     4     3    2
    22     4     9    1
    23     8     9    1
    24     8    11    1
    25     3     2    1
    26    12    11    1
    27     9    10    2
    28     2     1    2
    29    10     1    1
    30     1    28    1
    31    28    29    1
    32    28    34    1
    33    29    30    1
    34    34    32    1
    35    30    31    1
    36    32    31    1
    37    32    33    1
