@<TRIPOS>MOLECULE
73283_out_ligand_01.pdbqt
 28 31 0 0 0
SMALL
GASTEIGER

@<TRIPOS>ATOM
      1  C         19.3700  -22.5430   -9.3820 C.2     1  UNL1        0.0360
      2  C         18.0760  -22.8910   -9.7630 C.2     1  UNL1        0.0320
      3  C         17.0180  -22.7730   -8.8560 C.2     1  UNL1        0.0400
      4  C         17.2450  -22.3270   -7.5510 C.2     1  UNL1        0.0920
      5  C         18.5280  -21.9730   -7.1550 C.2     1  UNL1        0.0680
      6  C         19.5840  -22.0790   -8.0780 C.2     1  UNL1        0.0490
      7  C         18.8580  -21.4620   -5.8080 C.2     1  UNL1        0.2590
      8  O         19.8360  -20.7280   -5.6670 O.2     1  UNL1       -0.2670
      9  N         18.1850  -21.8850   -4.6910 N.am    1  UNL1       -0.3200
     10  C         17.0540  -22.7040   -4.5820 C.2     1  UNL1        0.0690
     11  C         16.8390  -23.3340   -3.3490 C.2     1  UNL1        0.0320
     12  C         15.7270  -24.1580   -3.1530 C.2     1  UNL1        0.0020
     13  C         14.8070  -24.3400   -4.1810 C.2     1  UNL1        0.0030
     14  C         14.9940  -23.6880   -5.3980 C.2     1  UNL1        0.0390
     15  C         16.1180  -22.8790   -5.6010 C.2     1  UNL1        0.1020
     16  O         16.1350  -22.1680   -6.7720 O.2     1  UNL1       -0.3070
     17  H         18.6700  -21.6360   -3.8380 H       1  UNL1        0.1690
     18  N         20.4940  -22.6190  -10.2310 N.am    1  UNL1       -0.3230
     19  C         20.9180  -21.6880  -11.1620 C.2     1  UNL1        0.2590
     20  O         20.3610  -20.6230  -11.4090 O.2     1  UNL1       -0.2670
     21  H         21.0530  -23.4610  -10.1370 H       1  UNL1        0.1690
     22  C         22.1610  -22.0220  -11.9260 C.2     1  UNL1        0.0700
     23  C         22.3650  -21.4070  -13.1730 C.2     1  UNL1        0.0200
     24  C         23.5100  -21.6850  -13.9270 C.2     1  UNL1        0.0010
     25  C         24.4640  -22.5790  -13.4460 C.2     1  UNL1        0.0030
     26  C         24.2730  -23.1960  -12.2100 C.2     1  UNL1        0.0430
     27  C         23.1290  -22.9160  -11.4620 C.2     1  UNL1        0.1320
     28  F         22.9890  -23.5350  -10.2800 F       1  UNL1       -0.2050
@<TRIPOS>BOND
     1    24    25    2
     2    24    23    1
     3    25    26    1
     4    23    22    2
     5    26    27    2
     6    22    27    1
     7    22    19    1
     8    27    28    1
     9    20    19    2
    10    19    18   am
    11    18    21    1
    12    18     1    1
    13     2     1    2
    14     2     3    1
    15     1     6    1
    16     3     4    2
    17     6     5    2
    18     4     5    1
    19     4    16    1
    20     5     7    1
    21    16    15    1
    22     7     8    2
    23     7     9   am
    24    15    14    1
    25    15    10    2
    26    14    13    2
    27     9    10    1
    28     9    17    1
    29    10    11    1
    30    13    12    1
    31    11    12    2
