@<TRIPOS>MOLECULE
73299_out_ligand_01.pdbqt
 33 36 0 0 0
SMALL
GASTEIGER

@<TRIPOS>ATOM
      1  N         21.7820  -22.3500  -11.2320 N.ar    1  UNL1       -0.2750
      2  C         22.7310  -22.0550  -12.2060 C.ar    1  UNL1        0.1410
      3  N         23.8870  -22.5970  -11.8740 N.ar    1  UNL1       -0.1330
      4  N         23.7190  -23.2790  -10.7030 N.ar    1  UNL1       -0.1220
      5  C         22.4660  -23.1470  -10.3310 C.ar    1  UNL1        0.1960
      6  C         22.4650  -21.3840  -13.5190 C.3     1  UNL1        0.1380
      7  C         23.6480  -21.3140  -14.4610 C.2     1  UNL1        0.0260
      8  C         24.4870  -20.2700  -14.5010 C.2     1  UNL1        0.1000
      9  C         25.6050  -20.2730  -15.4650 C.2     1  UNL1        0.2510
     10  O         26.3770  -19.3250  -15.5300 O.2     1  UNL1       -0.2680
     11  N         25.7120  -21.3820  -16.2530 N.am    1  UNL1       -0.2750
     12  C         24.8650  -22.4500  -16.2230 C.2     1  UNL1        0.3270
     13  H         26.4670  -21.4080  -16.9220 H       1  UNL1        0.1730
     14  O         25.0060  -23.4190  -16.9630 O.2     1  UNL1       -0.2470
     15  N         23.8470  -22.3770  -15.3120 N.am    1  UNL1       -0.3120
     16  H         23.2200  -23.1780  -15.2950 H       1  UNL1        0.1700
     17  C         20.4240  -21.9470  -11.2180 C.2     1  UNL1        0.0450
     18  C         20.0680  -20.6810  -11.7000 C.2     1  UNL1        0.0300
     19  C         18.7260  -20.3050  -11.7210 C.2     1  UNL1        0.0050
     20  C         17.7380  -21.1880  -11.2740 C.2     1  UNL1        0.0370
     21  C         18.0890  -22.4510  -10.7910 C.2     1  UNL1        0.0700
     22  C         19.4360  -22.8250  -10.7540 C.2     1  UNL1        0.0660
     23  O         17.2220  -23.4070  -10.3400 O.2     1  UNL1       -0.3560
     24  C         16.0930  -22.9580   -9.5990 C.3     1  UNL1        0.2100
     25  S         21.8130  -23.7380   -8.8380 S.3     1  UNL1       -0.0850
     26  C         21.5320  -22.1750   -7.9520 C.3     1  UNL1        0.1210
     27  C         20.2560  -22.2170   -7.1460 C.2     1  UNL1       -0.0490
     28  C         19.3370  -23.2620   -7.3240 C.2     1  UNL1        0.0080
     29  C         18.1590  -23.3080   -6.5750 C.2     1  UNL1        0.0070
     30  C         17.8820  -22.3150   -5.6290 C.2     1  UNL1       -0.0620
     31  C         16.6040  -22.3610   -4.8450 C.3     1  UNL1        0.0480
     32  C         18.7920  -21.2680   -5.4550 C.2     1  UNL1        0.0070
     33  C         19.9720  -21.2230   -6.2010 C.2     1  UNL1        0.0080
@<TRIPOS>BOND
     1    14    12    2
     2    13    11    1
     3    11    12   am
     4    11     9   am
     5    12    15   am
     6    10     9    2
     7     9     8    1
     8    15    16    1
     9    15     7    1
    10     8     7    2
    11     7     6    1
    12     6     2    1
    13     2     3   ar
    14     2     1   ar
    15     3     4   ar
    16    19    18    1
    17    19    20    2
    18    18    17    2
    19    20    21    1
    20     1    17    1
    21     1     5   ar
    22    17    22    1
    23    21    22    2
    24    21    23    1
    25     4     5   ar
    26    23    24    1
    27     5    25    1
    28    25    26    1
    29    26    27    1
    30    28    27    2
    31    28    29    1
    32    27    33    1
    33    29    30    2
    34    33    32    2
    35    30    32    1
    36    30    31    1
