@<TRIPOS>MOLECULE
73304_out_ligand_01.pdbqt
 30 33 0 0 0
SMALL
GASTEIGER

@<TRIPOS>ATOM
      1  C         21.2170  -22.4700  -10.7810 C.ar    1  UNL1        0.1530
      2  N         21.5550  -21.7120  -11.8090 N.ar    1  UNL1       -0.1330
      3  N         20.4210  -21.0880  -12.2770 N.ar    1  UNL1       -0.1280
      4  C         19.4140  -21.4770  -11.5260 C.ar    1  UNL1        0.1740
      5  C         18.0380  -21.1670  -11.5360 C.2     1  UNL1        0.0570
      6  C         17.2380  -21.7270  -10.6190 C.2     1  UNL1        0.0440
      7  C         17.8790  -22.6460   -9.6440 C.2     1  UNL1        0.1140
      8  N         19.1260  -22.9810   -9.5970 N.2     1  UNL1       -0.1580
      9  N         19.8640  -22.3600  -10.5640 N.ar    1  UNL1       -0.1970
     10  C         22.0970  -23.3400   -9.9500 C.3     1  UNL1        0.1020
     11  C         23.1050  -22.5360   -9.1260 C.3     1  UNL1        0.1300
     12  N         23.8790  -21.6080   -9.9350 N.am    1  UNL1       -0.3560
     13  C         24.9680  -22.0360  -10.6660 C.2     1  UNL1        0.2510
     14  O         25.4130  -23.1770  -10.5960 O.2     1  UNL1       -0.2680
     15  H         23.3740  -20.7890  -10.2550 H       1  UNL1        0.1620
     16  C         25.5720  -21.0460  -11.6020 C.2     1  UNL1        0.0320
     17  C         25.2700  -21.0300  -12.9700 C.2     1  UNL1        0.0170
     18  C         25.8630  -20.0800  -13.8060 C.2     1  UNL1        0.0010
     19  C         26.7500  -19.1410  -13.2820 C.2     1  UNL1        0.0000
     20  C         27.0450  -19.1440  -11.9190 C.2     1  UNL1        0.0010
     21  C         26.4550  -20.0910  -11.0810 C.2     1  UNL1        0.0170
     22  S         16.7680  -23.3110   -8.4710 S.3     1  UNL1       -0.1040
     23  C         17.9740  -23.8690   -7.2290 C.3     1  UNL1        0.1220
     24  C         18.1850  -22.8560   -6.1370 C.2     1  UNL1       -0.0100
     25  C         19.0440  -21.7620   -6.3220 C.2     1  UNL1        0.0110
     26  C         19.2470  -20.8370   -5.2950 C.2     1  UNL1        0.0010
     27  C         18.5950  -20.9930   -4.0710 C.2     1  UNL1        0.0030
     28  C         17.7390  -22.0740   -3.8750 C.2     1  UNL1        0.0430
     29  C         17.5400  -22.9910   -4.9020 C.2     1  UNL1        0.1230
     30  F         16.7180  -24.0280   -4.6880 F       1  UNL1       -0.2060
@<TRIPOS>BOND
     1    18    19    2
     2    18    17    1
     3    19    20    1
     4    17    16    2
     5     3     2   ar
     6     3     4   ar
     7    20    21    2
     8     2     1   ar
     9    16    21    1
    10    16    13    1
    11     5     4    1
    12     5     6    2
    13     4     9   ar
    14     1     9   ar
    15     1    10    1
    16    13    14    2
    17    13    12   am
    18     6     7    1
    19     9     8    1
    20    15    12    1
    21    10    11    1
    22    12    11    1
    23     7     8    2
    24     7    22    1
    25    22    23    1
    26    23    24    1
    27    25    24    2
    28    25    26    1
    29    24    29    1
    30    26    27    2
    31    29    30    1
    32    29    28    2
    33    27    28    1
