@<TRIPOS>MOLECULE
73306_out_ligand_01.pdbqt
 25 27 0 0 0
SMALL
GASTEIGER

@<TRIPOS>ATOM
      1  O         21.0970  -24.5810   -8.7690 O.2     1  UNL1       -0.2670
      2  C         20.7030  -23.5010   -9.1900 C.2     1  UNL1        0.2560
      3  N         19.6310  -22.7670   -8.7160 N.am    1  UNL1       -0.3230
      4  H         19.3480  -21.9620   -9.2630 H       1  UNL1        0.1690
      5  C         18.8150  -23.0670   -7.6040 C.2     1  UNL1        0.0360
      6  C         17.9590  -24.1910   -7.5410 C.2     1  UNL1        0.0300
      7  C         17.1700  -24.4500   -6.4100 C.2     1  UNL1        0.0200
      8  C         17.2650  -23.5660   -5.3580 C.2     1  UNL1        0.0480
      9  C         18.1030  -22.4680   -5.4100 C.2     1  UNL1        0.0500
     10  C         16.5940  -23.5480   -4.0580 C.2     1  UNL1        0.2590
     11  C         18.8900  -22.1900   -6.5110 C.2     1  UNL1        0.0470
     12  C         17.9660  -21.7520   -4.1430 C.2     1  UNL1        0.2590
     13  O         18.5630  -20.7380   -3.8460 O.2     1  UNL1       -0.2670
     14  N         17.0600  -22.4480   -3.4050 N.am    1  UNL1       -0.2890
     15  H         16.7690  -22.1840   -2.4770 H       1  UNL1        0.1720
     16  O         15.7890  -24.3660   -3.6670 O.2     1  UNL1       -0.2670
     17  C         21.4080  -22.9070  -10.3630 C.2     1  UNL1        0.0320
     18  C         22.7550  -23.1910  -10.6350 C.2     1  UNL1        0.0190
     19  C         23.3790  -22.6230  -11.7520 C.2     1  UNL1        0.0370
     20  C         22.6480  -21.7790  -12.6010 C.2     1  UNL1        0.1020
     21  C         21.2990  -21.5050  -12.3440 C.2     1  UNL1        0.0370
     22  C         20.6820  -22.0760  -11.2270 C.2     1  UNL1        0.0190
     23  N         23.3030  -21.1830  -13.7740 N.pl3   1  UNL1       -0.1160
     24  O         24.4440  -21.5730  -14.0580 O.2     1  UNL1       -0.5320
     25  O         22.6720  -20.3280  -14.4110 O.2     1  UNL1       -0.5320
@<TRIPOS>BOND
     1    25    23    2
     2    24    23    2
     3    23    20    1
     4    20    21    2
     5    20    19    1
     6    21    22    1
     7    19    18    2
     8    22    17    2
     9    18    17    1
    10    17     2    1
    11     4     3    1
    12     2     1    2
    13     2     3   am
    14     3     5    1
    15     5     6    2
    16     5    11    1
    17     6     7    1
    18    11     9    2
    19     7     8    2
    20     9     8    1
    21     9    12    1
    22     8    10    1
    23    12    13    2
    24    12    14   am
    25    10    16    2
    26    10    14   am
    27    14    15    1
