@<TRIPOS>MOLECULE
73314_out_ligand_01.pdbqt
 32 34 0 0 0
SMALL
GASTEIGER

@<TRIPOS>ATOM
      1  C         24.0420  -21.9130  -10.2230 C.ar    1  UNL1        0.2310
      2  N         23.8820  -23.1820   -9.9070 N.ar    1  UNL1       -0.1140
      3  N         23.0480  -23.2180   -8.8070 N.ar    1  UNL1       -0.1240
      4  C         22.7580  -21.9630   -8.5290 C.ar    1  UNL1        0.1870
      5  O         23.3430  -21.0800   -9.3920 O.2     1  UNL1       -0.2670
      6  C         21.8950  -21.4140   -7.4570 C.3     1  UNL1        0.2110
      7  N         20.6280  -22.1220   -7.4500 N.am    1  UNL1       -0.3490
      8  C         19.6420  -21.7680   -6.5590 C.2     1  UNL1        0.2520
      9  O         19.7530  -20.8230   -5.7860 O.2     1  UNL1       -0.2680
     10  H         20.6190  -23.0450   -7.8680 H       1  UNL1        0.1630
     11  C         18.4150  -22.6140   -6.5460 C.2     1  UNL1        0.0320
     12  C         18.4830  -23.8860   -7.1290 C.2     1  UNL1        0.0170
     13  C         17.3640  -24.7190   -7.1330 C.2     1  UNL1        0.0020
     14  C         16.1720  -24.2910   -6.5470 C.2     1  UNL1        0.0160
     15  C         16.0900  -23.0300   -5.9370 C.2     1  UNL1        0.0480
     16  C         17.2200  -22.1920   -5.9460 C.2     1  UNL1        0.0330
     17  C         14.7970  -22.5700   -5.3080 C.3     1  UNL1        0.4170
     18  F         13.9690  -23.6090   -5.0180 F       1  UNL1       -0.1660
     19  F         14.0850  -21.7330   -6.1120 F       1  UNL1       -0.1660
     20  F         14.9820  -21.8970   -4.1390 F       1  UNL1       -0.1660
     21  S         25.0170  -21.3680  -11.5540 S.3     1  UNL1       -0.0730
     22  C         24.1210  -22.0980  -12.9520 C.3     1  UNL1        0.1860
     23  C         22.6670  -21.6520  -12.9720 C.2     1  UNL1        0.2310
     24  O         22.2640  -20.8810  -13.8390 O.2     1  UNL1       -0.2720
     25  N         21.9260  -22.1770  -11.9250 N.am    1  UNL1       -0.3270
     26  H         22.3890  -22.8690  -11.3480 H       1  UNL1        0.1690
     27  C         20.5740  -21.9240  -11.6150 C.2     1  UNL1        0.0340
     28  C         19.9160  -22.8660  -10.8140 C.2     1  UNL1        0.0290
     29  C         18.5770  -22.6890  -10.4590 C.2     1  UNL1        0.0020
     30  C         17.8830  -21.5660  -10.8980 C.2     1  UNL1        0.0000
     31  C         18.5280  -20.6220  -11.6920 C.2     1  UNL1        0.0020
     32  C         19.8690  -20.7990  -12.0510 C.2     1  UNL1        0.0290
@<TRIPOS>BOND
     1    24    23    2
     2    23    22    1
     3    23    25   am
     4    22    21    1
     5    32    31    1
     6    32    27    2
     7    25    27    1
     8    25    26    1
     9    31    30    2
    10    27    28    1
    11    21     1    1
    12    30    29    1
    13    28    29    2
    14     1     2   ar
    15     1     5   ar
    16     2     3   ar
    17     5     4   ar
    18     3     4   ar
    19     4     6    1
    20    10     7    1
    21     6     7    1
    22     7     8   am
    23    13    12    1
    24    13    14    2
    25    12    11    2
    26     8    11    1
    27     8     9    2
    28    14    15    1
    29    11    16    1
    30    19    17    1
    31    16    15    2
    32    15    17    1
    33    17    18    1
    34    17    20    1
