@<TRIPOS>MOLECULE
73318_out_ligand_01.pdbqt
 31 33 0 0 0
SMALL
GASTEIGER

@<TRIPOS>ATOM
      1  C         22.9190  -22.9300   -9.1360 C.2     1  UNL1        0.1160
      2  C         22.6670  -21.7900   -8.4010 C.2     1  UNL1        0.0440
      3  C         21.4780  -21.7000   -7.6760 C.2     1  UNL1        0.0550
      4  C         20.5850  -22.7570   -7.7040 C.2     1  UNL1        0.1520
      5  N         20.8610  -23.8600   -8.4340 N.2     1  UNL1       -0.1310
      6  N         22.0360  -23.9510   -9.1500 N.2     1  UNL1       -0.1410
      7  S         24.4390  -23.0760  -10.0430 S.3     1  UNL1       -0.0990
      8  C         23.8000  -23.3580  -11.7220 C.3     1  UNL1        0.1830
      9  C         22.9660  -22.1770  -12.1880 C.2     1  UNL1        0.2270
     10  O         23.4390  -21.2560  -12.8470 O.2     1  UNL1       -0.2730
     11  N         21.6440  -22.2370  -11.8120 N.am    1  UNL1       -0.3560
     12  H         21.3360  -22.9920  -11.2100 H       1  UNL1        0.1620
     13  C         20.6790  -21.2350  -12.1910 C.3     1  UNL1        0.1610
     14  C         19.3410  -21.4970  -11.5460 C.2     1  UNL1       -0.0400
     15  C         19.1090  -22.6910  -10.8440 C.2     1  UNL1        0.0120
     16  C         17.8630  -22.9380  -10.2620 C.2     1  UNL1        0.0430
     17  C         16.8520  -21.9890  -10.3820 C.2     1  UNL1        0.1160
     18  F         15.6580  -22.2280   -9.8260 F       1  UNL1       -0.2060
     19  C         17.0560  -20.8100  -11.0850 C.2     1  UNL1        0.0430
     20  C         18.2990  -20.5640  -11.6750 C.2     1  UNL1        0.0120
     21  N         19.3740  -22.7970   -6.9990 N.am    1  UNL1       -0.3060
     22  C         18.9030  -21.8780   -6.0890 C.2     1  UNL1        0.2600
     23  O         19.4760  -20.8340   -5.7870 O.2     1  UNL1       -0.2670
     24  H         18.8160  -23.6170   -7.2150 H       1  UNL1        0.1700
     25  C         17.5950  -22.1800   -5.4350 C.2     1  UNL1        0.0700
     26  C         16.4840  -22.4210   -6.2590 C.2     1  UNL1        0.0200
     27  C         15.2360  -22.7090   -5.7040 C.2     1  UNL1        0.0010
     28  C         15.0820  -22.7590   -4.3200 C.2     1  UNL1        0.0030
     29  C         16.1750  -22.5220   -3.4920 C.2     1  UNL1        0.0430
     30  C         17.4190  -22.2350   -4.0510 C.2     1  UNL1        0.1320
     31  F         18.4440  -22.0220   -3.2110 F       1  UNL1       -0.2050
@<TRIPOS>BOND
     1    10     9    2
     2    13    11    1
     3    13    14    1
     4     9    11   am
     5     9     8    1
     6    11    12    1
     7     8     7    1
     8    20    14    2
     9    20    19    1
    10    14    15    1
    11    19    17    2
    12    15    16    2
    13    17    16    1
    14    17    18    1
    15     7     1    1
    16     6     1    2
    17     6     5    1
    18     1     2    1
    19     5     4    2
    20     2     3    2
    21     4     3    1
    22     4    21    1
    23    24    21    1
    24    21    22   am
    25    26    27    1
    26    26    25    2
    27    22    23    2
    28    22    25    1
    29    27    28    2
    30    25    30    1
    31    28    29    1
    32    30    29    2
    33    30    31    1
