@<TRIPOS>MOLECULE
73328_out_ligand_01.pdbqt
 27 30 0 0 0
SMALL
GASTEIGER

@<TRIPOS>ATOM
      1  N         20.0180  -22.6130   -8.7230 N.am    1  UNL1       -0.3230
      2  C         19.6000  -22.2850   -9.9950 C.2     1  UNL1        0.2620
      3  O         18.4340  -22.1350  -10.3500 O.2     1  UNL1       -0.2670
      4  H         21.0280  -22.7000   -8.5910 H       1  UNL1        0.1690
      5  C         19.2240  -22.8460   -7.5820 C.2     1  UNL1        0.0360
      6  C         19.1450  -21.9670   -6.4950 C.2     1  UNL1        0.0470
      7  C         18.3240  -22.3280   -5.4420 C.2     1  UNL1        0.0500
      8  C         18.0330  -21.6370   -4.1860 C.2     1  UNL1        0.2590
      9  C         17.5980  -23.5070   -5.4400 C.2     1  UNL1        0.0480
     10  N         17.1580  -22.4290   -3.5040 N.am    1  UNL1       -0.2890
     11  O         18.4920  -20.5680   -3.8390 O.2     1  UNL1       -0.2670
     12  C         16.8490  -23.5630   -4.1870 C.2     1  UNL1        0.2590
     13  H         16.7850  -22.1970   -2.5990 H       1  UNL1        0.1720
     14  O         16.1050  -24.4630   -3.8510 O.2     1  UNL1       -0.2670
     15  C         17.6520  -24.3950   -6.4920 C.2     1  UNL1        0.0200
     16  C         18.4770  -24.0520   -7.5710 C.2     1  UNL1        0.0300
     17  C         20.7110  -22.1060  -10.9810 C.2     1  UNL1        0.1050
     18  C         20.5220  -21.2610  -12.0060 C.2     1  UNL1        0.1630
     19  O         21.4180  -20.9680  -13.0060 O.2     1  UNL1       -0.3210
     20  C         22.6380  -21.5940  -12.9700 C.2     1  UNL1        0.0890
     21  C         23.5420  -21.2910  -13.9880 C.2     1  UNL1        0.0380
     22  C         22.9900  -22.4990  -11.9720 C.2     1  UNL1        0.0490
     23  C         24.7990  -21.8980  -14.0040 C.2     1  UNL1        0.0030
     24  C         25.1520  -22.8060  -13.0030 C.2     1  UNL1        0.0010
     25  C         24.2480  -23.1090  -11.9840 C.2     1  UNL1        0.0180
     26  C         22.0160  -22.8010  -10.9100 C.2     1  UNL1        0.2020
     27  O         22.2780  -23.5920  -10.0080 O.2     1  UNL1       -0.2860
@<TRIPOS>BOND
     1    23    21    1
     2    23    24    2
     3    21    20    2
     4    19    20    1
     5    19    18    1
     6    24    25    1
     7    20    22    1
     8    18    17    2
     9    25    22    2
    10    22    26    1
    11    17    26    1
    12    17     2    1
    13    26    27    2
    14     3     2    2
    15     2     1   am
    16     1     4    1
    17     1     5    1
    18     5    16    2
    19     5     6    1
    20    16    15    1
    21     6     7    2
    22    15     9    2
    23     7     9    1
    24     7     8    1
    25     9    12    1
    26    12    14    2
    27    12    10   am
    28     8    11    2
    29     8    10   am
    30    10    13    1
