@<TRIPOS>MOLECULE
73330_out_ligand_01.pdbqt
 30 32 0 0 0
SMALL
GASTEIGER

@<TRIPOS>ATOM
      1  C         22.8800  -22.9690   -9.1950 C.2     1  UNL1        0.1160
      2  C         22.0890  -24.1020   -9.2020 C.2     1  UNL1        0.0440
      3  C         20.8930  -24.0880   -8.4830 C.2     1  UNL1        0.0550
      4  C         20.5330  -22.9440   -7.7830 C.2     1  UNL1        0.1520
      5  N         21.3360  -21.8660   -7.7910 N.2     1  UNL1       -0.1310
      6  N         22.5200  -21.8770   -8.4950 N.2     1  UNL1       -0.1410
      7  S         24.3800  -22.8520  -10.1330 S.3     1  UNL1       -0.0990
      8  C         23.7160  -23.1700  -11.8000 C.3     1  UNL1        0.1830
      9  C         22.8090  -22.0630  -12.3140 C.2     1  UNL1        0.2270
     10  O         23.1990  -21.2710  -13.1720 O.2     1  UNL1       -0.2730
     11  N         21.5750  -21.9870  -11.7160 N.am    1  UNL1       -0.3560
     12  H         21.2710  -22.7670  -11.1460 H       1  UNL1        0.1620
     13  C         20.5550  -21.0700  -12.1690 C.3     1  UNL1        0.1610
     14  C         19.2210  -21.4200  -11.5590 C.2     1  UNL1       -0.0400
     15  C         18.1570  -20.5060  -11.6220 C.2     1  UNL1        0.0120
     16  C         16.9250  -20.8150  -11.0440 C.2     1  UNL1        0.0430
     17  C         16.7590  -22.0340  -10.3960 C.2     1  UNL1        0.1160
     18  F         15.5780  -22.3260   -9.8350 F       1  UNL1       -0.2060
     19  C         17.8030  -22.9480  -10.3140 C.2     1  UNL1        0.0430
     20  C         19.0350  -22.6420  -10.8920 C.2     1  UNL1        0.0120
     21  N         19.3080  -22.9570   -7.1000 N.am    1  UNL1       -0.3060
     22  C         18.8790  -21.9640   -6.2430 C.2     1  UNL1        0.2570
     23  O         19.5120  -20.9810   -5.8780 O.2     1  UNL1       -0.2670
     24  H         18.7340  -23.7810   -7.2030 H       1  UNL1        0.1700
     25  C         17.5130  -22.1730   -5.6870 C.2     1  UNL1        0.0320
     26  C         17.2790  -22.2190   -4.3050 C.2     1  UNL1        0.0170
     27  C         15.9830  -22.4170   -3.8250 C.2     1  UNL1        0.0010
     28  C         14.9240  -22.5770   -4.7180 C.2     1  UNL1        0.0000
     29  C         15.1560  -22.5500   -6.0940 C.2     1  UNL1        0.0010
     30  C         16.4490  -22.3550   -6.5790 C.2     1  UNL1        0.0170
@<TRIPOS>BOND
     1    10     9    2
     2     9     8    1
     3     9    11   am
     4    13    11    1
     5    13    14    1
     6     8     7    1
     7    11    12    1
     8    15    14    2
     9    15    16    1
    10    14    20    1
    11    16    17    2
    12    20    19    2
    13    17    19    1
    14    17    18    1
    15     7     1    1
    16     2     1    2
    17     2     3    1
    18     1     6    1
    19     6     5    2
    20     3     4    2
    21     5     4    1
    22     4    21    1
    23    24    21    1
    24    21    22   am
    25    30    29    1
    26    30    25    2
    27    22    23    2
    28    22    25    1
    29    29    28    2
    30    25    26    1
    31    28    27    1
    32    26    27    2
