@<TRIPOS>MOLECULE
73358_out_ligand_01.pdbqt
 31 34 0 0 0
SMALL
GASTEIGER

@<TRIPOS>ATOM
      1  O         21.1490  -21.3320  -12.7970 O.2     1  UNL1       -0.2670
      2  C         22.1250  -21.7480  -12.1710 C.2     1  UNL1        0.2590
      3  N         23.1990  -22.2340  -12.8710 N.am    1  UNL1       -0.3200
      4  C         24.4330  -22.7010  -12.4060 C.2     1  UNL1        0.0690
      5  C         25.1700  -23.5280  -13.2640 C.2     1  UNL1        0.0320
      6  C         26.4200  -24.0210  -12.8810 C.2     1  UNL1        0.0020
      7  C         26.9570  -23.6700  -11.6450 C.2     1  UNL1        0.0030
      8  C         26.2470  -22.8180  -10.8000 C.2     1  UNL1        0.0390
      9  C         24.9860  -22.3420  -11.1760 C.2     1  UNL1        0.1020
     10  O         24.4300  -21.4010  -10.3490 O.2     1  UNL1       -0.3070
     11  C         23.1790  -21.6910   -9.8800 C.2     1  UNL1        0.0920
     12  C         23.0410  -21.7360   -8.4910 C.2     1  UNL1        0.0400
     13  C         21.7880  -21.9580   -7.9160 C.2     1  UNL1        0.0320
     14  C         20.6560  -22.1230   -8.7220 C.2     1  UNL1        0.0360
     15  C         20.8010  -22.0510  -10.1100 C.2     1  UNL1        0.0490
     16  C         22.0630  -21.8350  -10.6970 C.2     1  UNL1        0.0680
     17  H         22.9930  -22.3380  -13.8570 H       1  UNL1        0.1690
     18  N         19.4300  -22.3490   -8.0600 N.am    1  UNL1       -0.3230
     19  C         18.8460  -23.5680   -7.7790 C.2     1  UNL1        0.2570
     20  O         19.2600  -24.6820   -8.0700 O.2     1  UNL1       -0.2670
     21  H         18.9430  -21.5130   -7.7560 H       1  UNL1        0.1690
     22  C         17.5400  -23.4860   -7.0760 C.2     1  UNL1        0.0470
     23  C         17.5520  -23.7650   -5.7010 C.2     1  UNL1        0.0180
     24  C         16.3720  -23.7140   -4.9620 C.2     1  UNL1        0.0010
     25  C         15.1760  -23.3770   -5.5890 C.2     1  UNL1        0.0010
     26  C         15.1610  -23.0770   -6.9530 C.2     1  UNL1        0.0170
     27  C         16.3440  -23.1150   -7.7160 C.2     1  UNL1        0.0630
     28  C         16.3050  -22.7650   -9.1780 C.3     1  UNL1        0.4180
     29  F         17.0030  -23.6230   -9.9660 F       1  UNL1       -0.1660
     30  F         16.8010  -21.5250   -9.4500 F       1  UNL1       -0.1660
     31  F         15.0270  -22.7560   -9.6550 F       1  UNL1       -0.1660
@<TRIPOS>BOND
     1    17     3    1
     2     5     6    1
     3     5     4    2
     4     6     7    2
     5     3     4    1
     6     3     2   am
     7     1     2    2
     8     4     9    1
     9     2    16    1
    10     7     8    1
    11     9     8    2
    12     9    10    1
    13    16    15    1
    14    16    11    2
    15    10    11    1
    16    15    14    2
    17    29    28    1
    18    11    12    1
    19    31    28    1
    20    30    28    1
    21    28    27    1
    22    14    18    1
    23    14    13    1
    24    12    13    2
    25    20    19    2
    26    18    19   am
    27    18    21    1
    28    19    22    1
    29    27    22    2
    30    27    26    1
    31    22    23    1
    32    26    25    2
    33    23    24    2
    34    25    24    1
