@<TRIPOS>MOLECULE
73364_out_ligand_01.pdbqt
 32 35 0 0 0
SMALL
GASTEIGER

@<TRIPOS>ATOM
      1  C         21.3880  -21.9010  -10.9940 C.2     1  UNL1        0.0360
      2  C         20.2130  -21.3380  -11.5040 C.2     1  UNL1        0.0320
      3  C         18.9650  -21.8070  -11.0930 C.2     1  UNL1        0.0400
      4  C         18.8760  -22.8360  -10.1520 C.2     1  UNL1        0.0920
      5  C         20.0310  -23.4200   -9.6490 C.2     1  UNL1        0.0680
      6  C         21.2880  -22.9480  -10.0750 C.2     1  UNL1        0.0490
      7  C         20.0140  -24.5450   -8.6890 C.2     1  UNL1        0.2590
      8  O         20.9360  -25.3620   -8.6900 O.2     1  UNL1       -0.2670
      9  N         19.0560  -24.6360   -7.7120 N.am    1  UNL1       -0.3200
     10  C         17.8940  -23.8810   -7.5230 C.2     1  UNL1        0.0690
     11  C         17.3300  -23.8800   -6.2390 C.2     1  UNL1        0.0390
     12  C         16.1510  -23.1710   -5.9660 C.2     1  UNL1       -0.0600
     13  C         15.5910  -23.1370   -4.5740 C.3     1  UNL1        0.0480
     14  C         15.5320  -22.4580   -6.9970 C.2     1  UNL1        0.0090
     15  C         16.0670  -22.4840   -8.2850 C.2     1  UNL1        0.0400
     16  C         17.2470  -23.1880   -8.5450 C.2     1  UNL1        0.1020
     17  O         17.6140  -23.2730   -9.8630 O.2     1  UNL1       -0.3070
     18  H         19.3140  -25.2990   -6.9900 H       1  UNL1        0.1690
     19  N         22.6030  -21.3650  -11.4610 N.am    1  UNL1       -0.3230
     20  C         23.6860  -22.0390  -11.9910 C.2     1  UNL1        0.2590
     21  O         23.7900  -23.2550  -12.1060 O.2     1  UNL1       -0.2670
     22  H         22.6970  -20.3550  -11.4110 H       1  UNL1        0.1690
     23  C         24.8410  -21.1850  -12.4220 C.2     1  UNL1        0.0680
     24  C         25.8240  -20.9080  -11.4600 C.2     1  UNL1        0.0200
     25  C         26.9180  -20.1010  -11.7730 C.2     1  UNL1        0.0040
     26  C         27.0440  -19.5530  -13.0500 C.2     1  UNL1        0.0400
     27  C         26.0850  -19.8200  -14.0300 C.2     1  UNL1        0.1020
     28  C         24.9980  -20.6640  -13.7190 C.2     1  UNL1        0.1170
     29  O         26.1120  -19.3150  -15.3060 O.2     1  UNL1       -0.3530
     30  C         26.5390  -17.9690  -15.4690 C.3     1  UNL1        0.2100
     31  O         24.0520  -20.9300  -14.6860 O.2     1  UNL1       -0.3520
     32  C         24.4260  -22.0950  -15.4300 C.3     1  UNL1        0.2100
@<TRIPOS>BOND
     1    30    29    1
     2    32    31    1
     3    29    27    1
     4    31    28    1
     5    27    28    1
     6    27    26    2
     7    28    23    2
     8    26    25    1
     9    23    20    1
    10    23    24    1
    11    21    20    2
    12    20    19   am
    13    25    24    2
    14     2     3    1
    15     2     1    2
    16    19    22    1
    17    19     1    1
    18     3     4    2
    19     1     6    1
    20     4    17    1
    21     4     5    1
    22     6     5    2
    23    17    16    1
    24     5     7    1
    25     8     7    2
    26     7     9   am
    27    16    15    1
    28    16    10    2
    29    15    14    2
    30     9    10    1
    31     9    18    1
    32    10    11    1
    33    14    12    1
    34    11    12    2
    35    12    13    1
