@<TRIPOS>MOLECULE
73361_out_ligand_01.pdbqt
 31 33 0 0 0
SMALL
GASTEIGER

@<TRIPOS>ATOM
      1  C         21.2730  -22.4440  -10.9370 C.2     1  UNL1        0.0350
      2  C         20.2910  -21.6020  -11.4760 C.2     1  UNL1        0.0300
      3  C         18.9680  -21.6590  -11.0220 C.2     1  UNL1        0.0190
      4  C         18.6110  -22.5690  -10.0230 C.2     1  UNL1        0.0320
      5  C         19.5910  -23.3990   -9.4700 C.2     1  UNL1        0.0190
      6  C         20.9130  -23.3410   -9.9290 C.2     1  UNL1        0.0300
      7  C         17.2180  -22.6650   -9.5040 C.2     1  UNL1        0.2510
      8  O         16.3140  -22.0310  -10.0350 O.2     1  UNL1       -0.2680
      9  N         17.0370  -23.4630   -8.3930 N.am    1  UNL1       -0.3520
     10  H         17.8520  -23.6560   -7.8240 H       1  UNL1        0.1630
     11  C         15.7550  -23.4800   -7.7190 C.3     1  UNL1        0.1670
     12  C         15.8870  -23.2760   -6.2400 C.2     1  UNL1        0.0370
     13  C         16.9260  -23.8600   -5.5130 C.2     1  UNL1        0.1270
     14  F         17.8110  -24.6510   -6.1390 F       1  UNL1       -0.2050
     15  C         17.0700  -23.6540   -4.1420 C.2     1  UNL1        0.0430
     16  C         16.1610  -22.8420   -3.4660 C.2     1  UNL1        0.0060
     17  C         15.1190  -22.2420   -4.1720 C.2     1  UNL1        0.0430
     18  C         14.9930  -22.4610   -5.5440 C.2     1  UNL1        0.1270
     19  F         13.9850  -21.8620   -6.1940 F       1  UNL1       -0.2050
     20  N         22.5770  -22.3190  -11.4550 N.am    1  UNL1       -0.3230
     21  C         23.6950  -21.7930  -10.8330 C.2     1  UNL1        0.2620
     22  O         23.7330  -21.3440   -9.6930 O.2     1  UNL1       -0.2670
     23  H         22.7150  -22.6560  -12.4020 H       1  UNL1        0.1690
     24  C         24.8930  -21.8070  -11.6620 C.2     1  UNL1        0.1030
     25  C         25.1950  -22.7550  -12.6250 C.2     1  UNL1        0.1330
     26  N         26.3960  -22.4010  -13.1610 N.pl3   1  UNL1       -0.2820
     27  N         26.9140  -21.2810  -12.6200 N.2     1  UNL1       -0.1470
     28  C         27.1210  -23.0900  -14.2000 C.3     1  UNL1        0.1790
     29  C         25.9970  -20.9290  -11.7160 C.2     1  UNL1        0.2000
     30  O         26.1640  -19.8240  -10.9510 O.2     1  UNL1       -0.3370
     31  C         27.0310  -18.8460  -11.5180 C.3     1  UNL1        0.2110
@<TRIPOS>BOND
     1    28    26    1
     2    26    25    1
     3    26    27    1
     4    25    24    2
     5    27    29    2
     6    23    20    1
     7    29    24    1
     8    29    30    1
     9    24    21    1
    10    31    30    1
    11     2     3    1
    12     2     1    2
    13    20     1    1
    14    20    21   am
    15     3     4    2
    16     1     6    1
    17    21    22    2
    18     8     7    2
    19     4     7    1
    20     4     5    1
    21     6     5    2
    22     7     9   am
    23     9    10    1
    24     9    11    1
    25    11    12    1
    26    12    18    2
    27    12    13    1
    28    19    18    1
    29    14    13    1
    30    18    17    1
    31    13    15    2
    32    17    16    2
    33    15    16    1
