@<TRIPOS>MOLECULE
73376_out_ligand_01.pdbqt
 32 35 0 0 0
SMALL
GASTEIGER

@<TRIPOS>ATOM
      1  C         15.5810  -23.3630   -4.5900 C.3     1  UNL1        0.0480
      2  C         16.1630  -23.2720   -5.9700 C.2     1  UNL1       -0.0600
      3  C         15.4910  -22.5740   -6.9770 C.2     1  UNL1        0.0090
      4  C         16.0130  -22.5360   -8.2690 C.2     1  UNL1        0.0400
      5  C         17.2210  -23.1770   -8.5630 C.2     1  UNL1        0.1020
      6  C         17.9060  -23.8760   -7.5720 C.2     1  UNL1        0.0690
      7  C         17.3560  -23.9410   -6.2830 C.2     1  UNL1        0.0390
      8  N         19.0980  -24.5770   -7.7910 N.am    1  UNL1       -0.3200
      9  C         20.0480  -24.4130   -8.7650 C.2     1  UNL1        0.2590
     10  O         21.0320  -25.1530   -8.7660 O.2     1  UNL1       -0.2670
     11  C         19.9950  -23.2870   -9.7200 C.2     1  UNL1        0.0680
     12  C         21.2240  -22.7820  -10.1860 C.2     1  UNL1        0.0490
     13  C         21.2780  -21.7220  -11.0990 C.2     1  UNL1        0.0360
     14  C         20.0830  -21.1720  -11.5570 C.2     1  UNL1        0.0320
     15  C         18.8580  -21.6800  -11.1140 C.2     1  UNL1        0.0400
     16  C         18.8140  -22.7260  -10.1880 C.2     1  UNL1        0.0920
     17  O         17.5720  -23.2060   -9.8880 O.2     1  UNL1       -0.3070
     18  H         19.3920  -25.2390   -7.0840 H       1  UNL1        0.1690
     19  N         22.5560  -21.2820  -11.5020 N.am    1  UNL1       -0.3230
     20  C         23.6080  -22.0630  -11.9390 C.2     1  UNL1        0.2570
     21  O         23.6450  -23.2780  -12.0560 O.2     1  UNL1       -0.2670
     22  H         22.7250  -20.2860  -11.4160 H       1  UNL1        0.1690
     23  C         24.8270  -21.2960  -12.2960 C.2     1  UNL1        0.0470
     24  C         25.7700  -21.0270  -11.2910 C.2     1  UNL1        0.0180
     25  C         26.9140  -20.2860  -11.5840 C.2     1  UNL1        0.0010
     26  C         27.1160  -19.8030  -12.8740 C.2     1  UNL1        0.0010
     27  C         26.1740  -20.0600  -13.8730 C.2     1  UNL1        0.0170
     28  C         25.0170  -20.8140  -13.6020 C.2     1  UNL1        0.0630
     29  C         24.0210  -21.0870  -14.7040 C.3     1  UNL1        0.4180
     30  F         24.4000  -20.5140  -15.8870 F       1  UNL1       -0.1660
     31  F         22.7830  -20.5910  -14.4510 F       1  UNL1       -0.1660
     32  F         23.8800  -22.4100  -14.9910 F       1  UNL1       -0.1660
@<TRIPOS>BOND
     1    30    29    1
     2    32    29    1
     3    29    31    1
     4    29    28    1
     5    27    28    1
     6    27    26    2
     7    28    23    2
     8    26    25    1
     9    23    20    1
    10    23    24    1
    11    21    20    2
    12    20    19   am
    13    25    24    2
    14    14    15    2
    15    14    13    1
    16    19    22    1
    17    19    13    1
    18    15    16    1
    19    13    12    2
    20    16    17    1
    21    16    11    2
    22    12    11    1
    23    17     5    1
    24    11     9    1
    25    10     9    2
    26     9     8   am
    27     5     4    2
    28     5     6    1
    29     4     3    1
    30     8     6    1
    31     8    18    1
    32     6     7    2
    33     3     2    2
    34     7     2    1
    35     2     1    1
