@<TRIPOS>MOLECULE
7337_out_ligand_01.pdbqt
 36 38 0 0 0
SMALL
GASTEIGER

@<TRIPOS>ATOM
      1  C         21.1590  -22.0970  -11.1960 C.2     1  UNL1        0.0330
      2  C         20.6820  -21.1100  -12.0630 C.2     1  UNL1        0.0170
      3  C         19.3370  -20.7380  -12.0260 C.2     1  UNL1        0.0090
      4  C         18.4390  -21.3270  -11.1170 C.2     1  UNL1       -0.0390
      5  C         17.0070  -20.8680  -11.1440 C.3     1  UNL1        0.0500
      6  C         18.9360  -22.3010  -10.2280 C.2     1  UNL1        0.0860
      7  C         20.2880  -22.6830  -10.2740 C.2     1  UNL1        0.0420
      8  C         22.5860  -22.5130  -11.1880 C.2     1  UNL1        0.2520
      9  N         23.3070  -22.2300  -12.3260 N.am    1  UNL1       -0.3480
     10  H         22.8640  -21.7610  -13.1020 H       1  UNL1        0.1630
     11  O         23.0460  -23.0850  -10.2070 O.2     1  UNL1       -0.2680
     12  C         24.7520  -22.3970  -12.3870 C.3     1  UNL1        0.1170
     13  C         25.0920  -23.8180  -12.8760 C.3     1  UNL1        0.0250
     14  C         26.5850  -24.1180  -12.8420 C.3     1  UNL1        0.0070
     15  C         25.3230  -21.2690  -13.2340 C.2     1  UNL1       -0.0350
     16  C         26.1480  -20.2710  -12.7010 C.2     1  UNL1        0.0120
     17  C         26.6860  -19.2710  -13.5210 C.2     1  UNL1        0.0380
     18  C         26.4190  -19.2560  -14.8920 C.2     1  UNL1        0.0740
     19  C         25.6010  -20.2550  -15.4460 C.2     1  UNL1       -0.0280
     20  C         25.3000  -20.2750  -16.9190 C.3     1  UNL1        0.0510
     21  C         25.0700  -21.2550  -14.6150 C.2     1  UNL1        0.0180
     22  O         26.9000  -18.3250  -15.7750 O.2     1  UNL1       -0.3550
     23  C         26.9570  -16.9740  -15.3340 C.3     1  UNL1        0.2100
     24  S         17.9340  -23.1250   -8.9980 S.O2    1  UNL1        0.2630
     25  O         16.7080  -23.6180   -9.5830 O.2     1  UNL1       -0.2000
     26  O         18.8130  -24.0280   -8.2820 O.2     1  UNL1       -0.2000
     27  N         17.5780  -21.8730   -7.9190 N.pl3   1  UNL1       -0.2800
     28  H         18.1550  -21.0520   -8.0970 H       1  UNL1        0.1790
     29  C         17.2950  -22.2070   -6.5640 C.2     1  UNL1        0.0490
     30  C         16.1290  -22.9280   -6.2880 C.2     1  UNL1        0.0370
     31  C         15.8240  -23.3210   -4.9800 C.2     1  UNL1       -0.0600
     32  C         14.5890  -24.1230   -4.6970 C.3     1  UNL1        0.0480
     33  C         16.7180  -23.0050   -3.9540 C.2     1  UNL1        0.0070
     34  C         17.8820  -22.2810   -4.2260 C.2     1  UNL1        0.0090
     35  C         18.1830  -21.8680   -5.5330 C.2     1  UNL1       -0.0350
     36  C         19.4490  -21.1020   -5.7900 C.3     1  UNL1        0.0500
@<TRIPOS>BOND
     1    20    19    1
     2    22    23    1
     3    22    18    1
     4    19    18    2
     5    19    21    1
     6    18    17    1
     7    21    15    2
     8    17    16    2
     9    15    16    1
    10    15    12    1
    11    10     9    1
    12    13    14    1
    13    13    12    1
    14    12     9    1
    15     9     8   am
    16     2     3    1
    17     2     1    2
    18     3     4    2
    19     1     8    1
    20     1     7    1
    21     8    11    2
    22     5     4    1
    23     4     6    1
    24     7     6    2
    25     6    24    1
    26    25    24    2
    27    24    26    2
    28    24    27    1
    29    28    27    1
    30    27    29    1
    31    29    30    2
    32    29    35    1
    33    30    31    1
    34    36    35    1
    35    35    34    2
    36    31    32    1
    37    31    33    2
    38    34    33    1
