@<TRIPOS>MOLECULE
73385_out_ligand_01.pdbqt
 26 28 0 0 0
SMALL
GASTEIGER

@<TRIPOS>ATOM
      1  C         19.3300  -22.7060   -7.6330 C.2     1  UNL1        0.0240
      2  C         18.7810  -23.9600   -7.8570 C.2     1  UNL1        0.0270
      3  C         17.8730  -24.4810   -6.9390 C.2     1  UNL1        0.0390
      4  C         17.4900  -23.7560   -5.7980 C.2     1  UNL1        0.0840
      5  C         18.0570  -22.5000   -5.5460 C.2     1  UNL1        0.0670
      6  C         18.9710  -21.9840   -6.4940 C.2     1  UNL1        0.0440
      7  C         17.8500  -21.6240   -4.3530 C.2     1  UNL1        0.2540
      8  O         18.5370  -20.6100   -4.2150 O.2     1  UNL1       -0.2680
      9  N         16.9120  -21.8640   -3.3880 N.am    1  UNL1       -0.3550
     10  C         16.1260  -23.0490   -3.1540 C.3     1  UNL1        0.1490
     11  C         15.5840  -23.6460   -4.4310 C.3     1  UNL1        0.1950
     12  O         16.5960  -24.4460   -5.0300 O.2     1  UNL1       -0.3480
     13  H         16.9800  -21.1930   -2.6300 H       1  UNL1        0.1620
     14  N         20.2430  -22.1370   -8.5780 N.pl3   1  UNL1       -0.1810
     15  H         20.3910  -21.1380   -8.4280 H       1  UNL1        0.1460
     16  S         19.8130  -22.3790  -10.2130 S.O2    1  UNL1        0.2460
     17  O         19.2070  -23.6810  -10.3810 O.2     1  UNL1       -0.2060
     18  O         19.1380  -21.1710  -10.6410 O.2     1  UNL1       -0.2060
     19  C         21.4290  -22.4110  -10.9800 C.2     1  UNL1        0.0810
     20  C         22.4980  -23.1370  -10.4230 C.2     1  UNL1       -0.0390
     21  C         23.7340  -23.1090  -11.0910 C.2     1  UNL1        0.0090
     22  C         22.3790  -23.9660   -9.1740 C.3     1  UNL1        0.0500
     23  C         23.9010  -22.3790  -12.2710 C.2     1  UNL1        0.0070
     24  C         22.8330  -21.6720  -12.8270 C.2     1  UNL1       -0.0600
     25  C         23.0210  -20.8690  -14.0800 C.3     1  UNL1        0.0480
     26  C         21.5990  -21.6830  -12.1700 C.2     1  UNL1        0.0320
@<TRIPOS>BOND
     1    25    24    1
     2    24    23    2
     3    24    26    1
     4    23    21    1
     5    26    19    2
     6    21    20    2
     7    19    20    1
     8    19    16    1
     9    18    16    2
    10    20    22    1
    11    17    16    2
    12    16    14    1
    13    14    15    1
    14    14     1    1
    15     2     1    2
    16     2     3    1
    17     1     6    1
    18     3     4    2
    19     6     5    2
    20     4     5    1
    21     4    12    1
    22     5     7    1
    23    12    11    1
    24    11    10    1
    25     7     8    2
    26     7     9   am
    27     9    10    1
    28     9    13    1
