@<TRIPOS>MOLECULE
73386_out_ligand_01.pdbqt
 35 38 0 0 0
SMALL
GASTEIGER

@<TRIPOS>ATOM
      1  C         21.4990  -22.1460  -11.4660 C.2     1  UNL1        0.0980
      2  C         21.3780  -22.9200  -10.3760 C.2     1  UNL1        0.1140
      3  N         20.2160  -23.1390   -9.6560 N.pl3   1  UNL1       -0.3310
      4  C         19.0040  -22.5590  -10.0800 C.2     1  UNL1        0.1440
      5  N         17.8540  -22.8250   -9.4040 N.2     1  UNL1       -0.2350
      6  C         16.7010  -22.2360   -9.8170 C.2     1  UNL1        0.0330
      7  C         15.4580  -22.5310   -9.0300 C.3     1  UNL1        0.0700
      8  C         16.6410  -21.3940  -10.9190 C.2     1  UNL1        0.0280
      9  C         17.8090  -21.1370  -11.6250 C.2     1  UNL1        0.0210
     10  C         19.0020  -21.7260  -11.2020 C.2     1  UNL1        0.0610
     11  C         20.2610  -21.4770  -11.9390 C.2     1  UNL1        0.2030
     12  O         20.2680  -20.7350  -12.9200 O.2     1  UNL1       -0.2860
     13  C         20.1670  -23.9950   -8.4570 C.3     1  UNL1        0.2330
     14  C         19.4800  -23.2840   -7.2840 C.2     1  UNL1        0.2400
     15  O         19.8950  -22.2020   -6.8750 O.2     1  UNL1       -0.2710
     16  N         18.3870  -23.9810   -6.7970 N.am    1  UNL1       -0.3260
     17  H         18.2460  -24.9040   -7.2110 H       1  UNL1        0.1690
     18  C         17.5150  -23.6180   -5.7550 C.2     1  UNL1        0.0350
     19  C         17.8760  -24.0070   -4.4590 C.2     1  UNL1        0.0290
     20  C         17.0600  -23.6980   -3.3700 C.2     1  UNL1        0.0030
     21  C         15.8730  -22.9950   -3.5650 C.2     1  UNL1        0.0070
     22  C         15.5020  -22.5870   -4.8510 C.2     1  UNL1       -0.0600
     23  C         14.2120  -21.8560   -5.0780 C.3     1  UNL1        0.0480
     24  C         16.3240  -22.9140   -5.9420 C.2     1  UNL1        0.0360
     25  C         22.8440  -22.0090  -12.1120 C.2     1  UNL1        0.2610
     26  N         22.8110  -21.4390  -13.3670 N.am    1  UNL1       -0.3230
     27  H         21.8910  -21.1640  -13.7150 H       1  UNL1        0.1690
     28  O         23.8500  -22.3870  -11.5180 O.2     1  UNL1       -0.2670
     29  C         23.8910  -21.1790  -14.2330 C.2     1  UNL1        0.0350
     30  C         24.8580  -20.2000  -14.0100 C.2     1  UNL1        0.0300
     31  C         25.9000  -20.0080  -14.9260 C.2     1  UNL1        0.0090
     32  C         25.9850  -20.7850  -16.0850 C.2     1  UNL1       -0.0620
     33  C         27.1210  -20.5990  -17.0460 C.3     1  UNL1        0.0480
     34  C         25.0260  -21.7770  -16.3020 C.2     1  UNL1        0.0090
     35  C         23.9860  -21.9680  -15.3860 C.2     1  UNL1        0.0300
@<TRIPOS>BOND
     1    33    32    1
     2    34    32    2
     3    34    35    1
     4    32    31    1
     5    35    29    2
     6    31    30    2
     7    29    30    1
     8    29    26    1
     9    27    26    1
    10    26    25   am
    11    12    11    2
    12    25    28    2
    13    25     1    1
    14    11     1    1
    15    11    10    1
    16     9    10    1
    17     9     8    2
    18     1     2    2
    19    10     4    2
    20     8     6    1
    21     2     3    1
    22     4     3    1
    23     4     5    1
    24     6     5    2
    25     6     7    1
    26     3    13    1
    27    13    14    1
    28    14    15    2
    29    14    16   am
    30    17    16    1
    31    16    18    1
    32    24    18    2
    33    24    22    1
    34    18    19    1
    35    23    22    1
    36    22    21    2
    37    19    20    2
    38    21    20    1
