@<TRIPOS>MOLECULE
7338_out_ligand_01.pdbqt
 35 38 0 0 0
SMALL
GASTEIGER

@<TRIPOS>ATOM
      1  S         16.2520  -22.4420   -9.4470 S.O2    1  UNL1        0.2720
      2  O         16.5700  -23.8360   -9.2020 O.2     1  UNL1       -0.2030
      3  O         14.9920  -22.0660  -10.0550 O.2     1  UNL1       -0.2030
      4  C         17.5120  -21.8290  -10.5220 C.ar    1  UNL1        0.2330
      5  N         17.4800  -20.6980  -11.1980 N.ar    1  UNL1       -0.1270
      6  N         18.6170  -20.5470  -11.9700 N.ar    1  UNL1       -0.1220
      7  C         19.4380  -21.5680  -11.8480 C.ar    1  UNL1        0.1970
      8  S         18.8880  -22.7960  -10.8040 S.2     1  UNL1       -0.0150
      9  N         20.6270  -21.6250  -12.5330 N.am    1  UNL1       -0.3000
     10  C         21.8900  -21.5130  -12.0010 C.2     1  UNL1        0.2570
     11  O         22.1810  -21.3160  -10.8280 O.2     1  UNL1       -0.2670
     12  H         20.5040  -21.6880  -13.5340 H       1  UNL1        0.1710
     13  C         22.9980  -21.6180  -12.9940 C.2     1  UNL1        0.0320
     14  C         23.0280  -20.8400  -14.1580 C.2     1  UNL1        0.0170
     15  C         24.0890  -20.9720  -15.0590 C.2     1  UNL1        0.0070
     16  C         25.1170  -21.8930  -14.8190 C.2     1  UNL1       -0.0620
     17  C         26.2700  -22.0110  -15.7720 C.3     1  UNL1        0.0480
     18  C         25.0790  -22.6710  -13.6550 C.2     1  UNL1        0.0070
     19  C         24.0210  -22.5420  -12.7530 C.2     1  UNL1        0.0170
     20  N         16.3540  -21.6000   -7.9580 N.pl3   1  UNL1       -0.1790
     21  H         15.5600  -20.9350   -7.9490 H       1  UNL1        0.1460
     22  C         16.3160  -22.4460   -6.7920 C.2     1  UNL1        0.0370
     23  C         15.0880  -22.9850   -6.4020 C.2     1  UNL1        0.0250
     24  C         14.9980  -23.7470   -5.2360 C.2     1  UNL1        0.0020
     25  C         16.1310  -23.9730   -4.4550 C.2     1  UNL1        0.0010
     26  C         17.3620  -23.4340   -4.8350 C.2     1  UNL1        0.0170
     27  C         17.4570  -22.6540   -5.9950 C.2     1  UNL1        0.0370
     28  C         18.7640  -22.0990   -6.4270 C.2     1  UNL1        0.1940
     29  O         19.0730  -20.9650   -6.0610 O.2     1  UNL1       -0.2870
     30  C         19.6970  -22.8760   -7.2760 C.2     1  UNL1        0.0150
     31  C         19.3880  -24.1750   -7.6950 C.2     1  UNL1        0.0150
     32  C         20.2920  -24.8820   -8.4890 C.2     1  UNL1        0.0010
     33  C         21.5070  -24.2980   -8.8530 C.2     1  UNL1        0.0000
     34  C         21.8260  -23.0110   -8.4170 C.2     1  UNL1        0.0010
     35  C         20.9250  -22.3020   -7.6220 C.2     1  UNL1        0.0150
@<TRIPOS>BOND
     1    17    16    1
     2    15    16    2
     3    15    14    1
     4    16    18    1
     5    14    13    2
     6    18    19    2
     7    12     9    1
     8    13    19    1
     9    13    10    1
    10     9    10   am
    11     9     7    1
    12    10    11    2
    13     6     7   ar
    14     6     5   ar
    15     7     8   ar
    16     5     4   ar
    17     8     4   ar
    18     4     1    1
    19     3     1    2
    20     1     2    2
    21     1    20    1
    22    33    32    2
    23    33    34    1
    24    32    31    1
    25    34    35    2
    26    20    21    1
    27    20    22    1
    28    31    30    2
    29    35    30    1
    30    30    28    1
    31    22    23    2
    32    22    27    1
    33    28    29    2
    34    28    27    1
    35    23    24    1
    36    27    26    2
    37    24    25    2
    38    26    25    1
