@<TRIPOS>MOLECULE
733_out_ligand_01.pdbqt
 33 35 0 0 0
SMALL
GASTEIGER

@<TRIPOS>ATOM
      1  C         21.1870  -23.2570   -8.9020 C.2     1  UNL1        0.0220
      2  C         21.1180  -22.2000   -7.9930 C.2     1  UNL1        0.0260
      3  C         20.1160  -22.1790   -7.0230 C.2     1  UNL1        0.0270
      4  C         19.2040  -23.2370   -6.9570 C.2     1  UNL1        0.0800
      5  C         19.2670  -24.2960   -7.8680 C.2     1  UNL1        0.0270
      6  C         20.2710  -24.3090   -8.8380 C.2     1  UNL1        0.0260
      7  S         17.9510  -23.2430   -5.7000 S.O2    1  UNL1        0.2630
      8  O         18.4100  -22.3800   -4.6320 O.2     1  UNL1       -0.2000
      9  O         17.5550  -24.6090   -5.4360 O.2     1  UNL1       -0.2000
     10  N         16.6730  -22.4260   -6.4500 N.pl3   1  UNL1       -0.2810
     11  H         15.8500  -22.4110   -5.8480 H       1  UNL1        0.1790
     12  C         16.4730  -22.6430   -7.8390 C.2     1  UNL1        0.0430
     13  C         15.6860  -23.7140   -8.2620 C.2     1  UNL1        0.0300
     14  C         15.4470  -23.9070   -9.6220 C.2     1  UNL1        0.0030
     15  C         15.9900  -23.0250  -10.5570 C.2     1  UNL1        0.0160
     16  C         16.7710  -21.9340  -10.1400 C.2     1  UNL1        0.0500
     17  C         17.0120  -21.7540   -8.7690 C.2     1  UNL1        0.0460
     18  C         17.3630  -20.9920  -11.1570 C.3     1  UNL1        0.4170
     19  F         17.2620  -21.4440  -12.4380 F       1  UNL1       -0.1660
     20  F         18.6880  -20.7500  -10.9510 F       1  UNL1       -0.1660
     21  F         16.7550  -19.7730  -11.1440 F       1  UNL1       -0.1660
     22  N         22.2740  -23.2990   -9.8350 N.pl3   1  UNL1       -0.1810
     23  H         23.1330  -23.6130   -9.3780 H       1  UNL1        0.1460
     24  S         22.6230  -21.7800  -10.5400 S.O2    1  UNL1        0.2450
     25  O         21.4030  -21.1480  -10.9900 O.2     1  UNL1       -0.2060
     26  O         23.5430  -21.1210   -9.6350 O.2     1  UNL1       -0.2060
     27  C         23.5250  -22.2860  -11.9810 C.2     1  UNL1        0.0740
     28  C         24.4150  -23.3590  -11.9130 C.2     1  UNL1        0.0250
     29  C         25.1120  -23.7430  -13.0590 C.2     1  UNL1        0.0080
     30  C         24.9340  -23.0530  -14.2670 C.2     1  UNL1       -0.0620
     31  C         25.6630  -23.4920  -15.5040 C.3     1  UNL1        0.0480
     32  C         24.0310  -21.9830  -14.3200 C.2     1  UNL1        0.0080
     33  C         23.3310  -21.5920  -13.1790 C.2     1  UNL1        0.0250
@<TRIPOS>BOND
     1    31    30    1
     2    32    30    2
     3    32    33    1
     4    30    29    1
     5    33    27    2
     6    29    28    2
     7    19    18    1
     8    27    28    1
     9    27    24    1
    10    18    21    1
    11    18    20    1
    12    18    16    1
    13    25    24    2
    14    15    16    2
    15    15    14    1
    16    24    22    1
    17    24    26    2
    18    16    17    1
    19    22    23    1
    20    22     1    1
    21    14    13    2
    22     1     6    2
    23     1     2    1
    24     6     5    1
    25    17    12    2
    26    13    12    1
    27     2     3    2
    28     5     4    2
    29    12    10    1
    30     3     4    1
    31     4     7    1
    32    10    11    1
    33    10     7    1
    34     7     9    2
    35     7     8    2
