@<TRIPOS>MOLECULE
73400_out_ligand_01.pdbqt
 28 31 0 0 0
SMALL
GASTEIGER

@<TRIPOS>ATOM
      1  C         22.4640  -22.9440  -10.6840 C.2     1  UNL1        0.0360
      2  C         22.6830  -23.1420   -9.3230 C.2     1  UNL1        0.0320
      3  C         21.6540  -22.9140   -8.4040 C.2     1  UNL1        0.0400
      4  C         20.3900  -22.5080   -8.8370 C.2     1  UNL1        0.0920
      5  C         20.1530  -22.3020  -10.1900 C.2     1  UNL1        0.0680
      6  C         21.1990  -22.5190  -11.1080 C.2     1  UNL1        0.0490
      7  C         18.8600  -21.8430  -10.7370 C.2     1  UNL1        0.2590
      8  O         18.8470  -21.2240  -11.8030 O.2     1  UNL1       -0.2670
      9  N         17.6680  -22.1960  -10.1610 N.am    1  UNL1       -0.3200
     10  C         17.4180  -22.8830   -8.9680 C.2     1  UNL1        0.0690
     11  C         16.1630  -23.4950   -8.8360 C.2     1  UNL1        0.0320
     12  C         15.8280  -24.1920   -7.6720 C.2     1  UNL1        0.0020
     13  C         16.7360  -24.2600   -6.6180 C.2     1  UNL1        0.0030
     14  C         17.9710  -23.6250   -6.7280 C.2     1  UNL1        0.0390
     15  C         18.3130  -22.9440   -7.9010 C.2     1  UNL1        0.1020
     16  O         19.4820  -22.2300   -7.8550 O.2     1  UNL1       -0.3070
     17  H         16.8830  -22.0100  -10.7730 H       1  UNL1        0.1690
     18  N         23.4440  -23.1400  -11.6800 N.am    1  UNL1       -0.3230
     19  C         24.6080  -22.4200  -11.8680 C.2     1  UNL1        0.2570
     20  O         24.9880  -21.4490  -11.2250 O.2     1  UNL1       -0.2670
     21  H         23.2760  -23.9090  -12.3190 H       1  UNL1        0.1690
     22  C         25.4320  -22.8530  -13.0270 C.2     1  UNL1        0.0490
     23  C         26.2940  -23.9380  -12.8040 C.2     1  UNL1        0.0180
     24  C         27.1200  -24.4100  -13.8250 C.2     1  UNL1        0.0010
     25  C         27.0840  -23.8060  -15.0790 C.2     1  UNL1        0.0010
     26  C         26.2170  -22.7390  -15.3170 C.2     1  UNL1        0.0200
     27  C         25.3830  -22.2620  -14.2970 C.2     1  UNL1        0.0260
     28 BR         24.1930  -20.8540  -14.7520 Br      1  UNL1       -0.0500
@<TRIPOS>BOND
     1    26    25    2
     2    26    27    1
     3    25    24    1
     4    28    27    1
     5    27    22    2
     6    24    23    2
     7    22    23    1
     8    22    19    1
     9    21    18    1
    10    19    18   am
    11    19    20    2
    12     8     7    2
    13    18     1    1
    14     6     1    2
    15     6     5    1
    16    17     9    1
    17     7     5    1
    18     7     9   am
    19     1     2    1
    20     5     4    2
    21     9    10    1
    22     2     3    2
    23    10    11    2
    24    10    15    1
    25     4     3    1
    26     4    16    1
    27    11    12    1
    28    15    16    1
    29    15    14    2
    30    12    13    2
    31    14    13    1
