@<TRIPOS>MOLECULE
73403_out_ligand_01.pdbqt
 32 35 0 0 0
SMALL
GASTEIGER

@<TRIPOS>ATOM
      1  C         20.7560  -22.7040  -10.4070 C.ar    1  UNL1        0.1530
      2  N         21.2690  -22.0200  -11.4140 N.ar    1  UNL1       -0.1330
      3  N         20.2580  -21.2880  -11.9950 N.ar    1  UNL1       -0.1280
      4  C         19.1500  -21.5430  -11.3350 C.ar    1  UNL1        0.1740
      5  C         17.8230  -21.0860  -11.4800 C.2     1  UNL1        0.0570
      6  C         16.8790  -21.5560  -10.6520 C.2     1  UNL1        0.0440
      7  C         17.3180  -22.5330   -9.6220 C.2     1  UNL1        0.1140
      8  N         18.5170  -22.9820   -9.4360 N.2     1  UNL1       -0.1580
      9  N         19.4090  -22.4470  -10.3230 N.ar    1  UNL1       -0.1970
     10  C         21.4710  -23.6500   -9.5080 C.3     1  UNL1        0.1020
     11  C         22.9030  -23.1780   -9.2440 C.3     1  UNL1        0.1300
     12  N         23.7460  -23.2820  -10.4230 N.am    1  UNL1       -0.3560
     13  C         24.4540  -22.1860  -10.8820 C.2     1  UNL1        0.2510
     14  O         24.5020  -21.1200  -10.2790 O.2     1  UNL1       -0.2680
     15  H         23.4910  -23.9910  -11.1030 H       1  UNL1        0.1620
     16  C         25.1490  -22.3480  -12.1890 C.2     1  UNL1        0.0320
     17  C         24.9530  -23.5340  -12.9060 C.2     1  UNL1        0.0170
     18  C         25.5780  -23.7200  -14.1420 C.2     1  UNL1        0.0070
     19  C         26.4050  -22.7230  -14.6770 C.2     1  UNL1       -0.0620
     20  C         27.0440  -22.9110  -16.0220 C.3     1  UNL1        0.0480
     21  C         26.5770  -21.5270  -13.9700 C.2     1  UNL1        0.0070
     22  C         25.9550  -21.3390  -12.7310 C.2     1  UNL1        0.0170
     23  S         16.0320  -23.1110   -8.5950 S.3     1  UNL1       -0.1040
     24  C         17.0400  -23.9610   -7.3380 C.3     1  UNL1        0.1200
     25  C         17.3770  -23.0750   -6.1570 C.2     1  UNL1       -0.0420
     26  C         18.4440  -22.1600   -6.2860 C.2     1  UNL1        0.0150
     27  C         18.8310  -21.3300   -5.2280 C.2     1  UNL1       -0.0610
     28  C         19.9510  -20.3480   -5.4030 C.3     1  UNL1        0.0480
     29  C         18.1210  -21.3920   -4.0280 C.2     1  UNL1        0.0070
     30  C         17.0550  -22.2800   -3.8860 C.2     1  UNL1        0.0080
     31  C         16.6670  -23.1250   -4.9390 C.2     1  UNL1       -0.0550
     32  C         15.4810  -24.0280   -4.7310 C.3     1  UNL1        0.0490
@<TRIPOS>BOND
     1    20    19    1
     2    19    18    2
     3    19    21    1
     4    18    17    1
     5    21    22    2
     6    17    16    2
     7    22    16    1
     8    16    13    1
     9     3     2   ar
    10     3     4   ar
    11     5     4    1
    12     5     6    2
    13     2     1   ar
    14     4     9   ar
    15    15    12    1
    16    13    12   am
    17    13    14    2
    18     6     7    1
    19    12    11    1
    20     1     9   ar
    21     1    10    1
    22     9     8    1
    23     7     8    2
    24     7    23    1
    25    10    11    1
    26    23    24    1
    27    24    25    1
    28    26    25    2
    29    26    27    1
    30    25    31    1
    31    28    27    1
    32    27    29    2
    33    31    32    1
    34    31    30    2
    35    29    30    1
