@<TRIPOS>MOLECULE
7342_out_ligand_01.pdbqt
 34 36 0 0 0
SMALL
GASTEIGER

@<TRIPOS>ATOM
      1  C         21.0480  -22.7070  -10.8110 C.2     1  UNL1        0.0290
      2  C         21.2400  -21.6980  -11.7630 C.2     1  UNL1        0.0250
      3  C         20.1940  -20.8530  -12.1280 C.2     1  UNL1        0.0030
      4  C         18.9470  -21.0140  -11.5360 C.2     1  UNL1        0.0170
      5  C         18.7520  -22.0110  -10.5660 C.2     1  UNL1        0.0390
      6  C         19.8050  -22.8650  -10.1720 C.2     1  UNL1       -0.0240
      7  C         19.5720  -23.9270   -9.1300 C.3     1  UNL1        0.0510
      8  C         17.3900  -22.1570   -9.9950 C.2     1  UNL1        0.2520
      9  O         16.4870  -21.4130  -10.3520 O.2     1  UNL1       -0.2680
     10  N         17.2570  -23.1630   -9.0670 N.am    1  UNL1       -0.3530
     11  H         18.0610  -23.7220   -8.8160 H       1  UNL1        0.1630
     12  C         16.0360  -23.3550   -8.3180 C.3     1  UNL1        0.1610
     13  C         16.2390  -22.9690   -6.8750 C.2     1  UNL1       -0.0400
     14  C         15.2800  -23.3170   -5.9150 C.2     1  UNL1        0.0090
     15  C         15.4470  -22.9490   -4.5800 C.2     1  UNL1        0.0010
     16  C         16.5710  -22.2230   -4.1900 C.2     1  UNL1        0.0160
     17  C         17.5370  -21.8470   -5.1350 C.2     1  UNL1        0.0480
     18  C         17.3630  -22.2300   -6.4770 C.2     1  UNL1        0.0250
     19  C         18.7630  -21.0720   -4.7180 C.3     1  UNL1        0.4170
     20  F         19.8270  -21.2570   -5.5470 F       1  UNL1       -0.1660
     21  F         18.5420  -19.7290   -4.6840 F       1  UNL1       -0.1660
     22  F         19.2020  -21.4100   -3.4720 F       1  UNL1       -0.1660
     23  N         22.1760  -23.5290  -10.4840 N.pl3   1  UNL1       -0.1810
     24  H         21.9360  -24.4270  -10.0660 H       1  UNL1        0.1460
     25  S         23.3980  -22.7500   -9.5920 S.O2    1  UNL1        0.2450
     26  O         24.0700  -23.7540   -8.7930 O.2     1  UNL1       -0.2060
     27  O         22.8660  -21.5400   -9.0040 O.2     1  UNL1       -0.2060
     28  C         24.4970  -22.2740  -10.9040 C.2     1  UNL1        0.0740
     29  C         25.2730  -21.1210  -10.7850 C.2     1  UNL1        0.0250
     30  C         26.1290  -20.7600  -11.8260 C.2     1  UNL1        0.0080
     31  C         26.2160  -21.5500  -12.9830 C.2     1  UNL1       -0.0620
     32  C         27.1110  -21.1370  -14.1140 C.3     1  UNL1        0.0480
     33  C         25.4120  -22.6930  -13.0960 C.2     1  UNL1        0.0080
     34  C         24.5540  -23.0590  -12.0590 C.2     1  UNL1        0.0250
@<TRIPOS>BOND
     1    32    31    1
     2    33    31    2
     3    33    34    1
     4    31    30    1
     5     3     2    1
     6     3     4    2
     7    34    28    2
     8    30    29    2
     9     2     1    2
    10     4     5    1
    11    28    29    1
    12    28    25    1
    13     1    23    1
    14     1     6    1
    15     5     6    2
    16     5     8    1
    17    23    24    1
    18    23    25    1
    19     9     8    2
    20     6     7    1
    21     8    10   am
    22    25    27    2
    23    25    26    2
    24    10    11    1
    25    10    12    1
    26    12    13    1
    27    13    18    2
    28    13    14    1
    29    18    17    1
    30    14    15    2
    31    20    19    1
    32    17    19    1
    33    17    16    2
    34    19    21    1
    35    19    22    1
    36    15    16    1
