@<TRIPOS>MOLECULE
73422_out_ligand_01.pdbqt
 31 34 0 0 0
SMALL
GASTEIGER

@<TRIPOS>ATOM
      1  C         17.9470  -22.8270   -9.4230 C.2     1  UNL1        0.2190
      2  N         16.8860  -22.1780   -9.8190 N.2     1  UNL1       -0.2320
      3  C         17.0470  -21.3250  -10.8940 C.2     1  UNL1        0.1370
      4  C         18.2030  -21.1270  -11.5460 C.2     1  UNL1        0.1230
      5  N         19.3050  -21.8090  -11.1290 N.ar    1  UNL1       -0.2510
      6  C         20.5920  -21.8140  -11.5870 C.ar    1  UNL1        0.3510
      7  O         21.0820  -21.1770  -12.5070 O.2     1  UNL1       -0.2440
      8  N         21.2780  -22.7020  -10.7460 N.ar    1  UNL1       -0.2080
      9  N         20.4150  -23.2490   -9.8060 N.ar    1  UNL1       -0.1440
     10  C         19.2830  -22.6720  -10.0860 C.ar    1  UNL1        0.2120
     11  C         22.6550  -23.1210  -10.8880 C.3     1  UNL1        0.2590
     12  C         23.6290  -21.9400  -10.8870 C.2     1  UNL1        0.2420
     13  O         23.8110  -21.2940   -9.8570 O.2     1  UNL1       -0.2710
     14  N         24.3340  -21.7950  -12.0750 N.am    1  UNL1       -0.3250
     15  H         24.1800  -22.5190  -12.7710 H       1  UNL1        0.1690
     16  C         25.2850  -20.7990  -12.4110 C.2     1  UNL1        0.0410
     17  C         26.1890  -20.2970  -11.4680 C.2     1  UNL1        0.0300
     18  C         27.1020  -19.3010  -11.8060 C.2     1  UNL1        0.0030
     19  C         27.1200  -18.7810  -13.0940 C.2     1  UNL1        0.0070
     20  C         26.2260  -19.2510  -14.0670 C.2     1  UNL1       -0.0540
     21  C         26.2920  -18.6420  -15.4420 C.3     1  UNL1        0.0490
     22  C         25.3050  -20.2780  -13.7340 C.2     1  UNL1       -0.0290
     23  C         24.3420  -20.8010  -14.7740 C.3     1  UNL1        0.0510
     24  O         18.0290  -23.7210   -8.3870 O.2     1  UNL1       -0.2890
     25  C         18.0400  -23.1370   -7.1190 C.2     1  UNL1        0.0780
     26  C         17.3280  -23.7370   -6.0830 C.2     1  UNL1        0.0380
     27  C         17.3790  -23.1720   -4.8080 C.2     1  UNL1        0.0090
     28  C         18.1560  -22.0310   -4.5660 C.2     1  UNL1       -0.0620
     29  C         18.1810  -21.4060   -3.2020 C.3     1  UNL1        0.0480
     30  C         18.8700  -21.4470   -5.6230 C.2     1  UNL1        0.0090
     31  C         18.8220  -22.0060   -6.9010 C.2     1  UNL1        0.0380
@<TRIPOS>BOND
     1    21    20    1
     2    23    22    1
     3    20    22    1
     4    20    19    2
     5    22    16    2
     6    19    18    1
     7    15    14    1
     8     7     6    2
     9    16    14    1
    10    16    17    1
    11    14    12   am
    12    18    17    2
    13     6     5   ar
    14     6     8   ar
    15     4     5    1
    16     4     3    2
    17     5    10   ar
    18     3     2    1
    19    11    12    1
    20    11     8    1
    21    12    13    2
    22     8     9   ar
    23    10     9   ar
    24    10     1    1
    25     2     1    2
    26     1    24    1
    27    24    25    1
    28    25    31    2
    29    25    26    1
    30    31    30    1
    31    26    27    2
    32    30    28    2
    33    27    28    1
    34    28    29    1
