@<TRIPOS>MOLECULE
73420_out_ligand_01.pdbqt
 33 36 0 0 0
SMALL
GASTEIGER

@<TRIPOS>ATOM
      1  C         22.8990  -22.9240   -9.1060 C.2     1  UNL1        0.1160
      2  C         22.6580  -21.7760   -8.3720 C.2     1  UNL1        0.0440
      3  C         21.4900  -21.6860   -7.6140 C.2     1  UNL1        0.0550
      4  C         20.6040  -22.7490   -7.6100 C.2     1  UNL1        0.1520
      5  N         20.8650  -23.8530   -8.3420 N.2     1  UNL1       -0.1310
      6  N         22.0090  -23.9350   -9.1010 N.2     1  UNL1       -0.1410
      7  S         24.3900  -23.0650  -10.0650 S.3     1  UNL1       -0.0990
      8  C         23.7250  -23.3710  -11.7350 C.3     1  UNL1        0.1830
      9  C         22.9300  -22.1760  -12.2350 C.2     1  UNL1        0.2270
     10  O         23.4360  -21.2900  -12.9230 O.2     1  UNL1       -0.2730
     11  N         21.6130  -22.1580  -11.8410 N.am    1  UNL1       -0.3560
     12  H         21.2340  -22.9660  -11.3520 H       1  UNL1        0.1620
     13  C         20.7070  -21.0880  -12.1730 C.3     1  UNL1        0.1610
     14  C         19.3610  -21.3410  -11.5420 C.2     1  UNL1       -0.0380
     15  C         18.2640  -20.4960  -11.8360 C.2     1  UNL1        0.0120
     16  C         17.0010  -20.7390  -11.2860 C.2     1  UNL1        0.0400
     17  C         16.8620  -21.8340  -10.4610 C.2     1  UNL1        0.1050
     18  C         17.9190  -22.6660  -10.1770 C.2     1  UNL1        0.1050
     19  O         15.7120  -22.2250   -9.8490 O.2     1  UNL1       -0.3230
     20  C         19.1770  -22.4500  -10.7000 C.2     1  UNL1        0.0480
     21  O         17.5660  -23.6890   -9.3520 O.2     1  UNL1       -0.3230
     22  C         16.1660  -23.4060   -9.1540 C.3     1  UNL1        0.3520
     23  N         19.4100  -22.7930   -6.8820 N.am    1  UNL1       -0.3060
     24  C         18.9130  -21.8540   -6.0080 C.2     1  UNL1        0.2600
     25  O         19.4580  -20.7890   -5.7360 O.2     1  UNL1       -0.2670
     26  H         18.8820  -23.6440   -7.0480 H       1  UNL1        0.1700
     27  C         17.6120  -22.1730   -5.3450 C.2     1  UNL1        0.0700
     28  C         16.4580  -22.2540   -6.1440 C.2     1  UNL1        0.0200
     29  C         15.2160  -22.5460   -5.5720 C.2     1  UNL1        0.0010
     30  C         15.1110  -22.7610   -4.1970 C.2     1  UNL1        0.0030
     31  C         16.2490  -22.6840   -3.3960 C.2     1  UNL1        0.0430
     32  C         17.4860  -22.3900   -3.9700 C.2     1  UNL1        0.1320
     33  F         18.5540  -22.3190   -3.1580 F       1  UNL1       -0.2050
@<TRIPOS>BOND
     1    10     9    2
     2     9    11   am
     3     9     8    1
     4    13    11    1
     5    13    14    1
     6    11    12    1
     7    15    14    2
     8    15    16    1
     9     8     7    1
    10    14    20    1
    11    16    17    2
    12    20    18    2
    13    17    18    1
    14    17    19    1
    15    18    21    1
    16     7     1    1
    17    19    22    1
    18    21    22    1
    19     1     6    2
    20     1     2    1
    21     6     5    1
    22     2     3    2
    23     5     4    2
    24     3     4    1
    25     4    23    1
    26    26    23    1
    27    23    24   am
    28    28    29    1
    29    28    27    2
    30    24    25    2
    31    24    27    1
    32    29    30    2
    33    27    32    1
    34    30    31    1
    35    32    31    2
    36    32    33    1
