@<TRIPOS>MOLECULE
73452_out_ligand_01.pdbqt
 34 37 0 0 0
SMALL
GASTEIGER

@<TRIPOS>ATOM
      1  N         21.6490  -22.4040  -11.2420 N.ar    1  UNL1       -0.2750
      2  C         22.6030  -22.1880  -12.2300 C.ar    1  UNL1        0.1410
      3  N         23.7530  -22.7190  -11.8560 N.ar    1  UNL1       -0.1330
      4  N         23.5860  -23.2740  -10.6190 N.ar    1  UNL1       -0.1220
      5  C         22.3380  -23.0820  -10.2530 C.ar    1  UNL1        0.1960
      6  C         22.4390  -21.3220  -13.4380 C.3     1  UNL1        0.1380
      7  C         23.6370  -21.3060  -14.3610 C.2     1  UNL1        0.0260
      8  C         24.5030  -20.2860  -14.4210 C.2     1  UNL1        0.1000
      9  C         25.6450  -20.3590  -15.3540 C.2     1  UNL1        0.2510
     10  O         26.4590  -19.4440  -15.4190 O.2     1  UNL1       -0.2680
     11  N         25.7220  -21.4860  -16.1190 N.am    1  UNL1       -0.2750
     12  C         24.8410  -22.5280  -16.0750 C.2     1  UNL1        0.3270
     13  H         26.4850  -21.5590  -16.7690 H       1  UNL1        0.1730
     14  O         24.9520  -23.5130  -16.7940 O.2     1  UNL1       -0.2470
     15  N         23.8180  -22.3980  -15.1760 N.am    1  UNL1       -0.3120
     16  H         23.1750  -23.1860  -15.1320 H       1  UNL1        0.1700
     17  C         20.3020  -21.9750  -11.2520 C.2     1  UNL1        0.0450
     18  C         19.9770  -20.6970  -11.7200 C.2     1  UNL1        0.0300
     19  C         18.6480  -20.2730  -11.7050 C.2     1  UNL1        0.0050
     20  C         17.6430  -21.1170  -11.2230 C.2     1  UNL1        0.0370
     21  C         17.9610  -22.3930  -10.7590 C.2     1  UNL1        0.0700
     22  C         19.2920  -22.8220  -10.7790 C.2     1  UNL1        0.0660
     23  O         17.0770  -23.3070  -10.2530 O.2     1  UNL1       -0.3560
     24  C         15.8760  -22.7970   -9.6820 C.3     1  UNL1        0.2100
     25  S         21.6170  -23.7480   -8.8220 S.3     1  UNL1       -0.0850
     26  C         21.3210  -22.2310   -7.8650 C.3     1  UNL1        0.1210
     27  C         20.0380  -22.3200   -7.0650 C.2     1  UNL1       -0.0420
     28  C         19.1580  -23.3890   -7.3300 C.2     1  UNL1        0.0150
     29  C         17.9510  -23.5310   -6.6340 C.2     1  UNL1       -0.0610
     30  C         17.0570  -24.7030   -6.9020 C.3     1  UNL1        0.0480
     31  C         17.6260  -22.5970   -5.6500 C.2     1  UNL1        0.0070
     32  C         18.4820  -21.5290   -5.3810 C.2     1  UNL1        0.0080
     33  C         19.6870  -21.3710   -6.0830 C.2     1  UNL1       -0.0550
     34  C         20.5780  -20.2040   -5.7460 C.3     1  UNL1        0.0490
@<TRIPOS>BOND
     1    14    12    2
     2    13    11    1
     3    11    12   am
     4    11     9   am
     5    12    15   am
     6    10     9    2
     7     9     8    1
     8    15    16    1
     9    15     7    1
    10     8     7    2
    11     7     6    1
    12     6     2    1
    13     2     3   ar
    14     2     1   ar
    15     3     4   ar
    16    18    19    1
    17    18    17    2
    18    19    20    2
    19    17     1    1
    20    17    22    1
    21     1     5   ar
    22    20    21    1
    23    22    21    2
    24    21    23    1
    25     4     5   ar
    26     5    25    1
    27    23    24    1
    28    25    26    1
    29    26    27    1
    30    28    27    2
    31    28    29    1
    32    27    33    1
    33    30    29    1
    34    29    31    2
    35    33    34    1
    36    33    32    2
    37    31    32    1
