@<TRIPOS>MOLECULE
73499_out_ligand_01.pdbqt
 32 35 0 0 0
SMALL
GASTEIGER

@<TRIPOS>ATOM
      1  C         18.9920  -23.1630   -7.2490 C.2     1  UNL1       -0.0250
      2  C         20.0070  -22.1990   -7.1480 C.2     1  UNL1        0.0130
      3  C         21.2100  -22.3460   -7.8460 C.2     1  UNL1        0.0100
      4  C         21.4270  -23.4650   -8.6590 C.2     1  UNL1       -0.0300
      5  C         20.4220  -24.4360   -8.7530 C.2     1  UNL1        0.0100
      6  C         19.2210  -24.2880   -8.0550 C.2     1  UNL1        0.0130
      7  C         22.7200  -23.6190   -9.4330 C.3     1  UNL1        0.3110
      8  N         23.0230  -22.4690  -10.3020 N.3     1  UNL1        0.0930
      9  C         21.8210  -21.6680  -10.5770 C.3     1  UNL1        0.2730
     10  C         21.2290  -21.8920  -11.9670 C.3     1  UNL1        0.0310
     11  C         22.2350  -21.5520  -13.0680 C.3     1  UNL1        0.0140
     12  C         23.6890  -21.8320  -12.6440 C.3     1  UNL1        0.0680
     13  C         23.7320  -22.8960  -11.5310 C.3     1  UNL1        0.2830
     14  C         24.5580  -22.1960  -13.8150 C.2     1  UNL1        0.0620
     15  C         24.3090  -21.9340  -15.1850 C.2     1  UNL1        0.0580
     16  C         25.3940  -22.4560  -15.8540 C.2     1  UNL1        0.0530
     17  N         26.2020  -22.9850  -14.8870 N.pl3   1  UNL1       -0.2800
     18  N         25.7190  -22.8390  -13.6430 N.2     1  UNL1       -0.1790
     19  H         27.0840  -23.4720  -15.0170 H       1  UNL1        0.1890
     20  C         25.7560  -22.5040  -17.2820 C.3     1  UNL1        0.2220
     21  O         24.9390  -23.4990  -17.8770 O.3     1  UNL1       -0.3950
     22  H         24.0620  -23.4220  -17.4610 H       1  UNL1        0.2090
     23  C         17.7210  -22.9990   -6.5250 C.2     1  UNL1       -0.0090
     24  C         17.7290  -23.0040   -5.1170 C.2     1  UNL1        0.0130
     25  C         16.5570  -22.7950   -4.3830 C.2     1  UNL1        0.0010
     26  C         15.3520  -22.5680   -5.0410 C.2     1  UNL1        0.0010
     27  C         15.3140  -22.5620   -6.4340 C.2     1  UNL1        0.0190
     28  C         16.4860  -22.7940   -7.1720 C.2     1  UNL1        0.0480
     29  C         16.3470  -22.7920   -8.6410 C.2     1  UNL1        0.1770
     30  O         16.6720  -21.8850   -9.3840 O.2     1  UNL1       -0.6460
     31  O         15.7200  -23.8950   -9.0830 O.3     1  UNL1       -0.7730
     32  H         16.3400  -24.2940   -9.7260 H       1  UNL1        0.1670
@<TRIPOS>BOND
     1    21    22    1
     2    21    20    1
     3    20    16    1
     4    16    15    2
     5    16    17    1
     6    15    14    1
     7    19    17    1
     8    17    18    1
     9    14    18    2
    10    14    12    1
    11    11    12    1
    12    11    10    1
    13    12    13    1
    14    10     9    1
    15    13     8    1
    16     9     8    1
    17     8     7    1
    18    32    31    1
    19     7     4    1
    20    30    29    2
    21    31    29    1
    22     5     4    2
    23     5     6    1
    24     4     3    1
    25    29    28    1
    26     6     1    2
    27     3     2    2
    28     1     2    1
    29     1    23    1
    30    28    23    2
    31    28    27    1
    32    23    24    1
    33    27    26    2
    34    24    25    2
    35    26    25    1
