@<TRIPOS>MOLECULE
73536_out_ligand_01.pdbqt
 27 29 0 0 0
SMALL
GASTEIGER

@<TRIPOS>ATOM
      1  C         21.3150  -22.7910   -8.7010 C.3     1  UNL1        0.2170
      2  C         22.3840  -21.8940   -8.0540 C.3     1  UNL1        0.0580
      3  C         21.8820  -24.2240   -8.8340 C.3     1  UNL1        0.0510
      4  C         20.6570  -25.1320   -8.8390 C.3     1  UNL1        0.0330
      5  C         19.5380  -24.2920   -8.2330 C.3     1  UNL1        0.2740
      6  N         20.1970  -23.0730   -7.7510 N.3     1  UNL1        0.1090
      7  C         20.9080  -22.1810  -10.0650 C.2     1  UNL1        0.1650
      8  N         21.8410  -22.0470  -11.0270 N.2     1  UNL1       -0.2250
      9  C         21.4420  -21.4910  -12.1870 C.2     1  UNL1        0.1280
     10  C         20.1520  -21.0700  -12.4290 C.2     1  UNL1        0.0640
     11  C         19.2580  -21.2560  -11.4000 C.2     1  UNL1        0.0350
     12  C         17.8190  -20.8650  -11.5680 C.3     1  UNL1        0.0700
     13  N         19.6190  -21.8020  -10.2240 N.2     1  UNL1       -0.2360
     14  C         22.5110  -21.3150  -13.2280 C.2     1  UNL1        0.2680
     15  N         22.2950  -20.3640  -14.1960 N.am    1  UNL1       -0.3650
     16  H         22.9790  -20.3720  -14.9460 H       1  UNL1        0.1590
     17  H         21.3610  -20.0500  -14.4310 H       1  UNL1        0.1590
     18  O         23.5380  -21.9870  -13.2520 O.2     1  UNL1       -0.2660
     19  C         19.2670  -21.9700   -7.5120 C.3     1  UNL1        0.3120
     20  C         17.9850  -22.4390   -6.8490 C.2     1  UNL1       -0.0270
     21  C         16.7450  -22.3030   -7.5010 C.2     1  UNL1        0.0120
     22  C         15.5660  -22.7240   -6.8810 C.2     1  UNL1        0.0460
     23  C         15.6210  -23.2840   -5.6080 C.2     1  UNL1        0.1540
     24  F         14.4840  -23.6800   -5.0170 F       1  UNL1       -0.2030
     25  C         16.8400  -23.4250   -4.9550 C.2     1  UNL1        0.1550
     26  F         16.8900  -23.9670   -3.7280 F       1  UNL1       -0.2030
     27  C         18.0210  -23.0090   -5.5660 C.2     1  UNL1        0.0540
@<TRIPOS>BOND
     1    16    15    1
     2    17    15    1
     3    15    14   am
     4    18    14    2
     5    14     9    1
     6    10     9    2
     7    10    11    1
     8     9     8    1
     9    12    11    1
    10    11    13    2
    11     8     7    2
    12    13     7    1
    13     7     1    1
    14     4     3    1
    15     4     5    1
    16     3     1    1
    17     1     2    1
    18     1     6    1
    19     5     6    1
    20     6    19    1
    21    19    20    1
    22    21    22    1
    23    21    20    2
    24    22    23    2
    25    20    27    1
    26    23    24    1
    27    23    25    1
    28    27    25    2
    29    25    26    1
