@<TRIPOS>MOLECULE
73558_out_ligand_01.pdbqt
 31 34 0 0 0
SMALL
GASTEIGER

@<TRIPOS>ATOM
      1  C         24.5280  -21.8210  -13.7930 C.ar    1  UNL1        0.1020
      2  S         24.6500  -22.8240  -12.4060 S.2     1  UNL1       -0.0620
      3  C         23.0500  -22.4870  -11.9400 C.ar    1  UNL1        0.1110
      4  N         22.5220  -23.0730  -10.8480 N.2     1  UNL1       -0.2440
      5  C         21.2480  -22.7330  -10.5530 C.2     1  UNL1        0.0440
      6  C         20.5180  -21.8260  -11.3240 C.2     1  UNL1        0.0290
      7  C         21.0980  -21.2370  -12.4490 C.2     1  UNL1        0.0180
      8  C         22.4230  -21.5790  -12.7810 C.ar    1  UNL1        0.0280
      9  C         23.3080  -21.1720  -13.8340 C.ar    1  UNL1        0.0610
     10  N         22.9770  -20.2570  -14.7810 N.pl3   1  UNL1       -0.3970
     11  H         22.2210  -19.6010  -14.6030 H       1  UNL1        0.1560
     12  H         23.7370  -19.8060  -15.2960 H       1  UNL1        0.1560
     13  C         20.6180  -23.3920   -9.3050 C.3     1  UNL1        0.0040
     14  C         21.4610  -24.6210   -8.8700 C.3     1  UNL1        0.0220
     15  C         19.1810  -23.9020   -9.6100 C.3     1  UNL1        0.0460
     16  C         18.0960  -23.0300   -8.9730 C.3     1  UNL1        0.2740
     17  N         18.2470  -22.9720   -7.5210 N.3     1  UNL1        0.0940
     18  C         19.6140  -22.7500   -7.0410 C.3     1  UNL1        0.2740
     19  C         20.6060  -22.3670   -8.1400 C.3     1  UNL1        0.0460
     20  C         17.2460  -22.1180   -6.8560 C.3     1  UNL1        0.3320
     21  C         16.6870  -22.6270   -5.5410 C.2     1  UNL1        0.0800
     22  C         15.8460  -23.7390   -5.5170 C.2     1  UNL1        0.1450
     23  N         15.3000  -24.2310   -4.3790 N.2     1  UNL1       -0.2700
     24  C         15.6310  -23.5680   -3.2500 C.2     1  UNL1        0.1350
     25  C         16.4670  -22.4640   -3.2570 C.2     1  UNL1        0.1360
     26  N         17.0080  -21.9730   -4.3930 N.2     1  UNL1       -0.2610
     27  C         25.6690  -21.6360  -14.6750 C.2     1  UNL1        0.2620
     28  N         25.8530  -22.5270  -15.7420 N.am    1  UNL1       -0.3560
     29  C         24.7880  -23.3200  -16.3370 C.3     1  UNL1        0.1520
     30  C         27.0970  -22.4630  -16.4890 C.3     1  UNL1        0.1520
     31  O         26.4560  -20.7030  -14.4990 O.2     1  UNL1       -0.2670
@<TRIPOS>BOND
     1    30    28    1
     2    29    28    1
     3    28    27   am
     4    12    10    1
     5    10    11    1
     6    10     9    1
     7    27    31    2
     8    27     1    1
     9     9     1   ar
    10     9     8   ar
    11     1     2   ar
    12     8     7    1
    13     8     3   ar
    14     7     6    2
    15     2     3   ar
    16     3     4    1
    17     6     5    1
    18     4     5    2
    19     5    13    1
    20    15    13    1
    21    15    16    1
    22    13    14    1
    23    13    19    1
    24    16    17    1
    25    19    18    1
    26    17    18    1
    27    17    20    1
    28    20    21    1
    29    21    22    2
    30    21    26    1
    31    22    23    1
    32    26    25    2
    33    23    24    2
    34    25    24    1
