@<TRIPOS>MOLECULE
7356_out_ligand_01.pdbqt
 38 41 0 0 0
SMALL
GASTEIGER

@<TRIPOS>ATOM
      1  C         21.2570  -21.7640  -11.9740 C.2     1  UNL1        0.0330
      2  C         20.1570  -20.9780  -12.3350 C.2     1  UNL1        0.0170
      3  C         18.9750  -21.0250  -11.5890 C.2     1  UNL1        0.0090
      4  C         18.8600  -21.8410  -10.4510 C.2     1  UNL1       -0.0390
      5  C         17.5560  -21.8510   -9.7060 C.3     1  UNL1        0.0500
      6  C         19.9720  -22.6230  -10.0850 C.2     1  UNL1        0.0810
      7  C         21.1550  -22.5890  -10.8430 C.2     1  UNL1        0.0420
      8  C         22.5580  -21.7570  -12.7180 C.2     1  UNL1        0.2520
      9  N         23.5520  -22.6040  -12.2750 N.am    1  UNL1       -0.3480
     10  H         23.4510  -23.1430  -11.4310 H       1  UNL1        0.1630
     11  O         22.7010  -21.0220  -13.6920 O.2     1  UNL1       -0.2680
     12  C         24.8630  -22.6680  -12.9170 C.3     1  UNL1        0.1230
     13  C         24.6760  -22.8750  -14.4210 C.3     1  UNL1        0.0680
     14  C         25.9220  -22.4670  -15.2370 C.3     1  UNL1        0.0690
     15  O         26.2580  -21.0940  -14.9720 O.2     1  UNL1       -0.3400
     16  C         26.2590  -20.6970  -13.6630 C.2     1  UNL1        0.0780
     17  C         26.9360  -19.5060  -13.3930 C.2     1  UNL1        0.0370
     18  C         25.6390  -21.4050  -12.6330 C.2     1  UNL1       -0.0020
     19  C         27.0480  -19.0400  -12.0820 C.2     1  UNL1        0.0030
     20  C         26.4830  -19.7670  -11.0380 C.2     1  UNL1        0.0010
     21  C         25.7800  -20.9410  -11.3110 C.2     1  UNL1        0.0120
     22  C         27.1210  -23.4180  -14.9580 C.3     1  UNL1        0.0340
     23  C         26.7850  -24.8850  -14.7000 C.3     1  UNL1        0.0080
     24  C         25.4970  -22.5170  -16.7350 C.3     1  UNL1        0.0340
     25  C         24.3120  -23.4150  -17.0740 C.3     1  UNL1        0.0080
     26  S         19.9380  -23.6780   -8.6370 S.O2    1  UNL1        0.2460
     27  O         18.6950  -24.4190   -8.6710 O.2     1  UNL1       -0.2060
     28  O         21.2220  -24.3420   -8.5400 O.2     1  UNL1       -0.2060
     29  N         19.9090  -22.4950   -7.4080 N.pl3   1  UNL1       -0.1810
     30  H         20.8450  -22.4360   -7.0170 H       1  UNL1        0.1460
     31  C         18.8980  -22.6750   -6.4010 C.2     1  UNL1        0.0280
     32  C         18.1380  -23.8480   -6.4150 C.2     1  UNL1        0.0250
     33  C         17.1350  -24.0580   -5.4640 C.2     1  UNL1        0.0080
     34  C         16.8760  -23.0910   -4.4910 C.2     1  UNL1       -0.0610
     35  C         15.8230  -23.3190   -3.4460 C.3     1  UNL1        0.0480
     36  C         17.6480  -21.9200   -4.4720 C.2     1  UNL1        0.0150
     37  C         18.6580  -21.6930   -5.4230 C.2     1  UNL1       -0.0390
     38  C         19.4450  -20.4110   -5.3600 C.3     1  UNL1        0.0500
@<TRIPOS>BOND
     1    25    24    1
     2    24    14    1
     3    14    15    1
     4    14    22    1
     5    14    13    1
     6    15    16    1
     7    22    23    1
     8    13    12    1
     9    11     8    2
    10    16    17    2
    11    16    18    1
    12    17    19    1
    13    12    18    1
    14    12     9    1
    15     8     9   am
    16     8     1    1
    17    18    21    2
    18     2     1    2
    19     2     3    1
    20     9    10    1
    21    19    20    2
    22     1     7    1
    23     3     4    2
    24    21    20    1
    25     7     6    2
    26     4     6    1
    27     4     5    1
    28     6    26    1
    29    27    26    2
    30    26    28    2
    31    26    29    1
    32    29    30    1
    33    29    31    1
    34    32    31    2
    35    32    33    1
    36    31    37    1
    37    33    34    2
    38    37    38    1
    39    37    36    2
    40    34    36    1
    41    34    35    1
