@<TRIPOS>MOLECULE
73587_out_ligand_01.pdbqt
 36 39 0 0 0
SMALL
GASTEIGER

@<TRIPOS>ATOM
      1  N         18.7290  -23.2780   -6.5880 N.am    1  UNL1       -0.3220
      2  C         19.5830  -22.2010   -6.6660 C.2     1  UNL1        0.2560
      3  O         19.4440  -21.1100   -6.1270 O.2     1  UNL1       -0.2670
      4  H         18.9280  -24.0770   -7.1910 H       1  UNL1        0.1690
      5  C         20.7750  -22.4140   -7.5430 C.2     1  UNL1        0.0320
      6  C         21.8040  -21.4610   -7.5140 C.2     1  UNL1        0.0180
      7  C         22.9230  -21.6060   -8.3380 C.2     1  UNL1        0.0260
      8  C         23.0080  -22.7100   -9.1910 C.2     1  UNL1        0.0790
      9  C         22.0080  -23.6870   -9.2020 C.2     1  UNL1        0.0260
     10  C         20.8920  -23.5400   -8.3740 C.2     1  UNL1        0.0180
     11  S         24.4170  -22.8870  -10.2560 S.O2    1  UNL1        0.2630
     12  O         25.2720  -23.9310   -9.7340 O.2     1  UNL1       -0.2000
     13  O         24.9380  -21.5600  -10.5120 O.2     1  UNL1       -0.2000
     14  N         23.7170  -23.4040  -11.7050 N.pl3   1  UNL1       -0.2810
     15  H         22.7770  -23.7660  -11.5480 H       1  UNL1        0.1790
     16  C         23.9330  -22.6210  -12.8690 C.2     1  UNL1        0.0420
     17  C         25.0470  -22.8840  -13.6660 C.2     1  UNL1        0.0300
     18  C         25.2820  -22.1150  -14.8070 C.2     1  UNL1        0.0020
     19  C         24.4060  -21.0830  -15.1430 C.2     1  UNL1        0.0000
     20  C         23.2960  -20.8180  -14.3390 C.2     1  UNL1        0.0020
     21  C         23.0580  -21.5890  -13.2000 C.2     1  UNL1        0.0300
     22  C         17.5310  -23.4210   -5.8450 C.2     1  UNL1        0.0490
     23  C         17.5380  -23.6430   -4.4620 C.2     1  UNL1        0.0300
     24  C         16.3430  -23.7730   -3.7540 C.2     1  UNL1        0.0020
     25  C         15.1260  -23.6820   -4.4170 C.2     1  UNL1        0.0010
     26  C         15.0980  -23.4680   -5.7970 C.2     1  UNL1        0.0170
     27  C         16.2910  -23.3420   -6.5360 C.2     1  UNL1        0.0380
     28  C         16.2460  -23.1380   -7.9970 C.ar    1  UNL1        0.1580
     29  N         15.4340  -23.8080   -8.8740 N.ar    1  UNL1       -0.2590
     30  N         15.6350  -23.4220  -10.1440 N.ar    1  UNL1       -0.1570
     31  H         14.7490  -24.5290   -8.6850 H       1  UNL1        0.1910
     32  C         16.5900  -22.4980   -9.9980 C.ar    1  UNL1        0.1510
     33  N         16.9960  -22.3050   -8.7030 N.ar    1  UNL1       -0.2110
     34  C         17.2040  -21.7510  -11.1380 C.3     1  UNL1        0.0510
     35  C         18.7100  -21.9880  -11.2430 C.3     1  UNL1        0.0180
     36  C         16.8970  -20.2560  -11.0510 C.3     1  UNL1        0.0180
@<TRIPOS>BOND
     1    19    18    2
     2    19    20    1
     3    18    17    1
     4    20    21    2
     5    17    16    2
     6    21    16    1
     7    16    14    1
     8    14    15    1
     9    14    11    1
    10    35    34    1
    11    34    36    1
    12    34    32    1
    13    13    11    2
    14    11    12    2
    15    11     8    1
    16    30    32   ar
    17    30    29   ar
    18    32    33   ar
    19     9     8    2
    20     9    10    1
    21     8     7    1
    22    29    31    1
    23    29    28   ar
    24    33    28   ar
    25    10     5    2
    26     7     6    2
    27    28    27    1
    28     5     6    1
    29     5     2    1
    30     4     1    1
    31     2     1   am
    32     2     3    2
    33     1    22    1
    34    27    22    2
    35    27    26    1
    36    22    23    1
    37    26    25    2
    38    23    24    2
    39    25    24    1
