@<TRIPOS>MOLECULE
73583_out_ligand_01.pdbqt
 33 37 0 0 0
SMALL
GASTEIGER

@<TRIPOS>ATOM
      1  C         21.6970  -22.4610  -11.0870 C.2     1  UNL1        0.0330
      2  C         22.7890  -23.2530  -10.6530 C.2     1  UNL1        0.0180
      3  C         23.9840  -23.2900  -11.3830 C.2     1  UNL1        0.0190
      4  C         24.0530  -22.5160  -12.5260 C.2     1  UNL1        0.0480
      5  C         22.9950  -21.7290  -12.9420 C.2     1  UNL1        0.0490
      6  C         21.8040  -21.6760  -12.2460 C.2     1  UNL1        0.0350
      7  C         23.4110  -21.0390  -14.1620 C.2     1  UNL1        0.2620
      8  O         22.6880  -20.3010  -14.8030 O.2     1  UNL1       -0.2670
      9  N         24.6990  -21.4250  -14.4020 N.am    1  UNL1       -0.2740
     10  C         25.1470  -22.3240  -13.4760 C.2     1  UNL1        0.2620
     11  O         26.2190  -22.8940  -13.4050 O.2     1  UNL1       -0.2670
     12  C         20.4270  -22.3860  -10.3080 C.2     1  UNL1        0.2560
     13  N         20.5270  -22.7370   -8.9750 N.am    1  UNL1       -0.3230
     14  H         21.4110  -23.1120   -8.6570 H       1  UNL1        0.1690
     15  O         19.4120  -22.0530  -10.9090 O.2     1  UNL1       -0.2670
     16  C         19.4980  -22.7110   -8.0080 C.2     1  UNL1        0.0350
     17  C         19.7470  -22.0020   -6.8280 C.2     1  UNL1        0.0390
     18  C         18.7540  -21.9380   -5.8550 C.2     1  UNL1       -0.0270
     19  C         18.8540  -21.2510   -4.5300 C.2     1  UNL1        0.0610
     20  C         17.5180  -22.5700   -6.0150 C.2     1  UNL1        0.0430
     21  C         17.4370  -21.4180   -3.9840 C.2     1  UNL1        0.1370
     22  N         16.7170  -22.3310   -4.8840 N.am    1  UNL1       -0.3180
     23  C         15.4440  -22.7370   -4.5430 C.2     1  UNL1        0.2200
     24  C         14.7030  -23.6960   -5.4310 C.3     1  UNL1        0.1170
     25  O         14.8990  -22.3310   -3.5100 O.2     1  UNL1       -0.2730
     26  C         17.2630  -23.2730   -7.1780 C.2     1  UNL1        0.0320
     27  C         18.2540  -23.3390   -8.1720 C.2     1  UNL1        0.0320
     28  C         25.5060  -20.9150  -15.4870 C.3     1  UNL1        0.2000
     29  C         26.1360  -19.6370  -15.0610 C.2     1  UNL1        0.0700
     30  C         26.7130  -19.2110  -13.8810 C.2     1  UNL1        0.0360
     31  C         27.1210  -17.8720  -14.0970 C.2     1  UNL1        0.0270
     32  C         26.7600  -17.5640  -15.3890 C.2     1  UNL1        0.1420
     33  O         26.1660  -18.6300  -15.9820 O.2     1  UNL1       -0.3250
@<TRIPOS>BOND
     1    33    32    1
     2    33    29    1
     3    28    29    1
     4    28     9    1
     5    32    31    2
     6    29    30    2
     7     8     7    2
     8     9     7   am
     9     9    10   am
    10     7     5    1
    11    31    30    1
    12    10    11    2
    13    10     4    1
    14     5     4    2
    15     5     6    1
    16     4     3    1
    17     6     1    2
    18     3     2    2
    19     1     2    1
    20     1    12    1
    21    15    12    2
    22    12    13   am
    23    13    14    1
    24    13    16    1
    25    27    16    2
    26    27    26    1
    27    16    17    1
    28    26    20    2
    29    17    18    2
    30    20    18    1
    31    20    22    1
    32    18    19    1
    33    24    23    1
    34    22    23   am
    35    22    21    1
    36    23    25    2
    37    19    21    2
