@<TRIPOS>MOLECULE
73589_out_ligand_01.pdbqt
 33 36 0 0 0
SMALL
GASTEIGER

@<TRIPOS>ATOM
      1  O         19.7460  -21.2710   -5.9180 O.2     1  UNL1       -0.2670
      2  C         19.6170  -22.2450   -6.6490 C.2     1  UNL1        0.2560
      3  N         18.5480  -23.1150   -6.6820 N.am    1  UNL1       -0.3210
      4  H         18.5060  -23.8130   -7.4180 H       1  UNL1        0.1690
      5  C         20.6850  -22.5330   -7.6480 C.2     1  UNL1        0.0320
      6  C         21.7260  -21.6130   -7.8030 C.2     1  UNL1        0.0190
      7  C         22.7480  -21.8480   -8.7320 C.2     1  UNL1        0.0300
      8  C         22.7470  -23.0080   -9.5090 C.2     1  UNL1        0.0350
      9  C         21.7140  -23.9380   -9.3320 C.2     1  UNL1        0.0300
     10  C         20.6880  -23.7070   -8.4090 C.2     1  UNL1        0.0190
     11  N         23.7400  -23.3260  -10.4600 N.am    1  UNL1       -0.3230
     12  C         23.8220  -22.9060  -11.7820 C.2     1  UNL1        0.2630
     13  O         22.9650  -22.2260  -12.3390 O.2     1  UNL1       -0.2670
     14  H         24.4370  -23.9890  -10.1560 H       1  UNL1        0.1690
     15  C         25.0270  -23.3750  -12.4710 C.2     1  UNL1        0.0720
     16  C         26.1710  -23.9770  -11.9700 C.2     1  UNL1        0.0250
     17  C         27.1210  -24.2870  -12.9890 C.2     1  UNL1        0.0090
     18  C         26.6810  -23.9080  -14.2350 C.2     1  UNL1        0.0500
     19  S         25.1390  -23.1740  -14.1750 S.3     1  UNL1       -0.0970
     20  C         17.4300  -23.1570   -5.8210 C.2     1  UNL1        0.0560
     21  C         17.4450  -22.7010   -4.5020 C.2     1  UNL1        0.0310
     22  C         16.2980  -22.8030   -3.7120 C.2     1  UNL1        0.0020
     23  C         15.1280  -23.3510   -4.2350 C.2     1  UNL1        0.0020
     24  C         15.1020  -23.8060   -5.5520 C.2     1  UNL1        0.0260
     25  C         16.2550  -23.7400   -6.3480 C.2     1  UNL1        0.0400
     26  N         16.2170  -24.0820   -7.7350 N.pl3   1  UNL1       -0.2580
     27  H         16.6520  -25.0000   -7.8280 H       1  UNL1        0.1340
     28  C         16.6260  -23.2440   -8.8040 C.2     1  UNL1        0.0120
     29  C         17.7080  -23.6300   -9.6060 C.2     1  UNL1        0.0240
     30  C         18.0880  -22.8640  -10.7120 C.2     1  UNL1        0.0020
     31  C         17.3720  -21.7180  -11.0450 C.2     1  UNL1        0.0000
     32  C         16.2680  -21.3460  -10.2830 C.2     1  UNL1        0.0020
     33  C         15.8890  -22.1120   -9.1780 C.2     1  UNL1        0.0240
@<TRIPOS>BOND
     1    18    19    1
     2    18    17    2
     3    19    15    1
     4    17    16    1
     5    15    16    2
     6    15    12    1
     7    13    12    2
     8    12    11   am
     9    31    30    2
    10    31    32    1
    11    30    29    1
    12    11    14    1
    13    11     8    1
    14    32    33    2
    15    29    28    2
    16     8     9    2
    17     8     7    1
    18     9    10    1
    19    33    28    1
    20    28    26    1
    21     7     6    2
    22    10     5    2
    23    27    26    1
    24     6     5    1
    25    26    25    1
    26     5     2    1
    27     4     3    1
    28     3     2   am
    29     3    20    1
    30     2     1    2
    31    25    20    2
    32    25    24    1
    33    20    21    1
    34    24    23    2
    35    21    22    2
    36    23    22    1
