@<TRIPOS>MOLECULE
73596_out_ligand_01.pdbqt
 30 33 0 0 0
SMALL
GASTEIGER

@<TRIPOS>ATOM
      1  O         23.2360  -24.1980   -8.7640 O.2     1  UNL1       -0.2670
      2  C         22.4580  -23.3110   -9.0910 C.2     1  UNL1        0.2560
      3  N         22.6430  -22.3740  -10.0930 N.am    1  UNL1       -0.3230
      4  H         21.8460  -21.8020  -10.3390 H       1  UNL1        0.1690
      5  C         21.1440  -23.2260   -8.3910 C.2     1  UNL1        0.0320
      6  C         20.2080  -24.2390   -8.5930 C.2     1  UNL1        0.0190
      7  C         18.9620  -24.1880   -7.9530 C.2     1  UNL1        0.0310
      8  C         18.6240  -23.1390   -7.0840 C.2     1  UNL1        0.0370
      9  C         19.5870  -22.1340   -6.8840 C.2     1  UNL1        0.0310
     10  C         20.8370  -22.1760   -7.5210 C.2     1  UNL1        0.0190
     11  N         17.3270  -23.0790   -6.4490 N.am    1  UNL1       -0.3180
     12  C         16.4060  -22.0210   -6.8810 C.3     1  UNL1        0.1320
     13  C         14.9430  -22.2950   -6.5740 C.3     1  UNL1        0.0210
     14  C         14.8020  -22.6450   -5.1100 C.3     1  UNL1        0.0110
     15  C         15.6160  -23.8880   -4.8290 C.3     1  UNL1        0.1030
     16  C         17.0660  -23.8040   -5.2750 C.2     1  UNL1        0.2240
     17  O         17.9080  -24.4300   -4.6260 O.2     1  UNL1       -0.2730
     18  C         23.7970  -22.1820  -10.8810 C.2     1  UNL1        0.0350
     19  C         24.8350  -21.3100  -10.5480 C.2     1  UNL1        0.0290
     20  C         25.9390  -21.1590  -11.3940 C.2     1  UNL1        0.0030
     21  C         26.0210  -21.8860  -12.5810 C.2     1  UNL1        0.0170
     22  C         24.9950  -22.7760  -12.9190 C.2     1  UNL1        0.0340
     23  C         23.8830  -22.9090  -12.0750 C.2     1  UNL1        0.0460
     24  C         25.0230  -23.5790  -14.1720 C.2     1  UNL1        0.2520
     25  O         25.1930  -24.7920  -14.1130 O.2     1  UNL1       -0.2680
     26  N         24.8870  -22.8740  -15.3530 N.am    1  UNL1       -0.3520
     27  H         24.9370  -21.8630  -15.3340 H       1  UNL1        0.1630
     28  C         24.9370  -23.5180  -16.6270 C.3     1  UNL1        0.0840
     29  C         23.6850  -23.6910  -17.4410 C.3     1  UNL1        0.0270
     30  C         24.7440  -22.7300  -17.8930 C.3     1  UNL1        0.0270
@<TRIPOS>BOND
     1    30    29    1
     2    30    28    1
     3    29    28    1
     4    28    26    1
     5    26    27    1
     6    26    24   am
     7    24    25    2
     8    24    22    1
     9    22    21    2
    10    22    23    1
    11    21    20    1
    12    23    18    2
    13    20    19    2
    14    18    19    1
    15    18     3    1
    16     4     3    1
    17     3     2   am
    18     2     1    2
    19     2     5    1
    20     6     5    2
    21     6     7    1
    22     5    10    1
    23     7     8    2
    24    10     9    2
    25     8     9    1
    26     8    11    1
    27    12    13    1
    28    12    11    1
    29    13    14    1
    30    11    16   am
    31    16    15    1
    32    16    17    2
    33    14    15    1
