@<TRIPOS>MOLECULE
73606_out_ligand_01.pdbqt
 36 40 0 0 0
SMALL
GASTEIGER

@<TRIPOS>ATOM
      1  O         23.4990  -23.8300   -8.8630 O.2     1  UNL1       -0.2680
      2  C         22.7850  -23.3920   -9.7590 C.2     1  UNL1        0.2510
      3  N         21.4060  -23.4480   -9.7420 N.am    1  UNL1       -0.3560
      4  H         20.8840  -22.9390  -10.4420 H       1  UNL1        0.1620
      5  C         20.6770  -23.9280   -8.5740 C.3     1  UNL1        0.1370
      6  C         19.1370  -23.8840   -8.7460 C.3     1  UNL1        0.0790
      7  C         18.6840  -22.8170   -9.7260 C.2     1  UNL1       -0.0070
      8  C         19.4430  -22.0060  -10.5510 C.2     1  UNL1        0.0160
      9  C         18.6460  -21.1250  -11.3370 C.2     1  UNL1        0.0080
     10  C         17.3040  -21.2820  -11.0850 C.2     1  UNL1        0.0500
     11  S         17.0070  -22.4900   -9.9150 S.3     1  UNL1       -0.1060
     12  C         18.4220  -23.7430   -7.4180 C.2     1  UNL1       -0.0200
     13  C         17.4670  -24.5910   -6.8850 C.2     1  UNL1        0.0970
     14  N         17.0780  -24.1000   -5.6690 N.pl3   1  UNL1       -0.3650
     15  C         17.7590  -22.9400   -5.3840 C.2     1  UNL1        0.0420
     16  H         16.3950  -24.5260   -5.0580 H       1  UNL1        0.1650
     17  C         17.6850  -22.1050   -4.2620 C.2     1  UNL1        0.0300
     18  C         18.6160  -22.6910   -6.4570 C.2     1  UNL1       -0.0010
     19  C         18.5150  -20.9820   -4.2340 C.2     1  UNL1        0.0020
     20  C         19.3840  -20.7060   -5.2860 C.2     1  UNL1        0.0010
     21  C         19.4450  -21.5510   -6.4000 C.2     1  UNL1        0.0140
     22  C         23.4000  -22.7210  -10.9350 C.2     1  UNL1        0.0320
     23  C         24.7850  -22.6300  -11.1010 C.2     1  UNL1        0.0190
     24  C         25.3190  -21.9910  -12.2280 C.2     1  UNL1        0.0300
     25  C         24.4810  -21.4290  -13.1940 C.2     1  UNL1        0.0350
     26  C         23.0940  -21.5140  -13.0140 C.2     1  UNL1        0.0300
     27  C         22.5560  -22.1510  -11.8910 C.2     1  UNL1        0.0190
     28  N         24.9350  -20.7740  -14.3590 N.am    1  UNL1       -0.3230
     29  C         25.8170  -19.7040  -14.4500 C.2     1  UNL1        0.2630
     30  O         26.3030  -19.1350  -13.4760 O.2     1  UNL1       -0.2670
     31  H         24.5240  -21.0940  -15.2230 H       1  UNL1        0.1690
     32  C         26.1060  -19.2940  -15.8260 C.2     1  UNL1        0.0720
     33  C         25.9800  -19.9910  -17.0180 C.2     1  UNL1        0.0250
     34  C         26.3690  -19.2180  -18.1530 C.2     1  UNL1        0.0090
     35  C         26.7900  -17.9580  -17.7960 C.2     1  UNL1        0.0500
     36  S         26.7240  -17.7150  -16.1080 S.3     1  UNL1       -0.0970
@<TRIPOS>BOND
     1    34    35    2
     2    34    33    1
     3    35    36    1
     4    33    32    2
     5    36    32    1
     6    32    29    1
     7    31    28    1
     8    29    28   am
     9    29    30    2
    10    28    25    1
    11    25    26    2
    12    25    24    1
    13    26    27    1
    14    24    23    2
    15    27    22    2
    16     9    10    2
    17     9     8    1
    18    23    22    1
    19    10    11    1
    20    22     2    1
    21     8     7    2
    22     4     3    1
    23    11     7    1
    24     2     3   am
    25     2     1    2
    26     3     5    1
    27     7     6    1
    28     6     5    1
    29     6    12    1
    30    12    13    2
    31    12    18    1
    32    13    14    1
    33    18    21    1
    34    18    15    2
    35    21    20    2
    36    14    15    1
    37    14    16    1
    38    15    17    1
    39    20    19    1
    40    17    19    2
