@<TRIPOS>MOLECULE
73601_out_ligand_01.pdbqt
 34 37 0 0 0
SMALL
GASTEIGER

@<TRIPOS>ATOM
      1  C         18.0320  -23.3870   -8.6250 C.2     1  UNL1        0.0790
      2  C         18.9380  -24.2720   -8.0330 C.2     1  UNL1        0.0260
      3  C         20.2850  -24.2250   -8.4000 C.2     1  UNL1        0.0180
      4  C         20.7300  -23.2740   -9.3300 C.2     1  UNL1        0.0320
      5  C         19.8180  -22.3820   -9.9100 C.2     1  UNL1        0.0180
      6  C         18.4680  -22.4310   -9.5490 C.2     1  UNL1        0.0260
      7  C         22.1750  -23.2600   -9.6900 C.2     1  UNL1        0.2560
      8  O         22.9330  -23.9850   -9.0580 O.2     1  UNL1       -0.2670
      9  N         22.5140  -22.3780  -10.6980 N.am    1  UNL1       -0.3230
     10  H         21.7890  -21.7480  -11.0230 H       1  UNL1        0.1690
     11  C         23.7900  -22.1770  -11.2660 C.2     1  UNL1        0.0350
     12  C         24.7950  -21.4100  -10.6740 C.2     1  UNL1        0.0290
     13  C         26.0420  -21.2690  -11.2920 C.2     1  UNL1        0.0030
     14  C         26.2940  -21.8870  -12.5160 C.2     1  UNL1        0.0170
     15  C         25.2900  -22.6460  -13.1260 C.2     1  UNL1        0.0340
     16  C         24.0490  -22.8000  -12.4910 C.2     1  UNL1        0.0460
     17  C         25.4990  -23.3290  -14.4310 C.2     1  UNL1        0.2520
     18  O         26.2450  -24.3010  -14.4960 O.2     1  UNL1       -0.2680
     19  N         24.7840  -22.8270  -15.5020 N.am    1  UNL1       -0.3520
     20  H         24.0600  -22.1400  -15.3340 H       1  UNL1        0.1630
     21  C         24.8580  -23.4110  -16.8030 C.3     1  UNL1        0.0840
     22  C         23.6160  -23.6080  -17.6280 C.3     1  UNL1        0.0270
     23  C         24.6230  -22.5690  -18.0260 C.3     1  UNL1        0.0270
     24  S         16.3200  -23.4230   -8.1330 S.O2    1  UNL1        0.2610
     25  O         15.5740  -22.6820   -9.1270 O.2     1  UNL1       -0.2000
     26  O         15.9930  -24.7980   -7.8200 O.2     1  UNL1       -0.2000
     27  N         16.3030  -22.5450   -6.7000 N.3     1  UNL1       -0.3020
     28  C         17.4900  -22.5790   -5.8180 C.3     1  UNL1        0.1670
     29  C         17.2590  -21.6500   -4.6160 C.3     1  UNL1        0.1360
     30  C         18.5000  -21.5710   -3.7380 C.3     1  UNL1        0.0410
     31  O         16.1790  -22.1110   -3.7920 O.3     1  UNL1       -0.3780
     32  C         15.0350  -22.5930   -4.5140 C.3     1  UNL1        0.1360
     33  C         15.0160  -22.2620   -6.0210 C.3     1  UNL1        0.1670
     34  C         14.9000  -24.0880   -4.2350 C.3     1  UNL1        0.0410
@<TRIPOS>BOND
     1    23    22    1
     2    23    21    1
     3    22    21    1
     4    21    19    1
     5    19    20    1
     6    19    17   am
     7    18    17    2
     8    17    15    1
     9    15    14    2
    10    15    16    1
    11    14    13    1
    12    16    11    2
    13    13    12    2
    14    11     9    1
    15    11    12    1
    16    10     9    1
    17     9     7   am
    18     5     6    1
    19     5     4    2
    20     7     4    1
    21     7     8    2
    22     6     1    2
    23     4     3    1
    24    25    24    2
    25     1    24    1
    26     1     2    1
    27     3     2    2
    28    24    26    2
    29    24    27    1
    30    27    33    1
    31    27    28    1
    32    33    32    1
    33    28    29    1
    34    29    31    1
    35    29    30    1
    36    32    34    1
    37    32    31    1
