@<TRIPOS>MOLECULE
73620_out_ligand_01.pdbqt
 37 41 0 0 0
SMALL
GASTEIGER

@<TRIPOS>ATOM
      1  C         21.2580  -22.9530   -8.4330 C.2     1  UNL1        0.0320
      2  C         21.7580  -21.6690   -8.6840 C.2     1  UNL1        0.0190
      3  C         22.9970  -21.5010   -9.3060 C.2     1  UNL1        0.0310
      4  C         23.7430  -22.6190   -9.6750 C.2     1  UNL1        0.0420
      5  C         23.2650  -23.9030   -9.4070 C.2     1  UNL1        0.0310
      6  C         22.0240  -24.0730   -8.7860 C.2     1  UNL1        0.0190
      7  N         25.0200  -22.4610  -10.2750 N.pl3   1  UNL1       -0.2810
      8  H         25.8160  -22.8790   -9.7920 H       1  UNL1        0.1790
      9  S         25.1470  -22.7240  -11.9430 S.O2    1  UNL1        0.2630
     10  O         23.8300  -22.9340  -12.5020 O.2     1  UNL1       -0.2000
     11  O         26.1980  -23.7060  -12.1140 O.2     1  UNL1       -0.2000
     12  C         25.7800  -21.1710  -12.5280 C.2     1  UNL1        0.0820
     13  C         26.5390  -20.3540  -11.6520 C.2     1  UNL1        0.0280
     14  C         27.0450  -19.1230  -12.0860 C.2     1  UNL1        0.0330
     15  C         26.7600  -18.7620  -13.3820 C.ar    1  UNL1        0.0630
     16  N         27.1200  -17.6170  -14.0830 N.ar    1  UNL1       -0.3070
     17  C         26.0010  -19.5660  -14.2350 C.ar    1  UNL1        0.0640
     18  C         26.5870  -17.6940  -15.3780 C.ar    1  UNL1        0.3250
     19  H         27.6600  -16.8370  -13.7470 H       1  UNL1        0.1700
     20  O         26.7020  -16.8640  -16.2620 O.2     1  UNL1       -0.2470
     21  N         25.8970  -18.9120  -15.4570 N.ar    1  UNL1       -0.3060
     22  H         25.4040  -19.2220  -16.2790 H       1  UNL1        0.1700
     23  C         25.4880  -20.7770  -13.8420 C.2     1  UNL1        0.0570
     24  C         19.9320  -23.0740   -7.7640 C.2     1  UNL1        0.2520
     25  O         19.4140  -24.1760   -7.6240 O.2     1  UNL1       -0.2680
     26  N         19.3620  -21.9080   -7.3060 N.am    1  UNL1       -0.3480
     27  H         19.8340  -21.0220   -7.4140 H       1  UNL1        0.1630
     28  C         18.0360  -21.8870   -6.6910 C.3     1  UNL1        0.1200
     29  C         18.1640  -22.4000   -5.2510 C.3     1  UNL1        0.0400
     30  C         16.8150  -22.5380   -4.5810 C.3     1  UNL1        0.0820
     31  S         15.9110  -23.9230   -5.3180 S.3     1  UNL1       -0.1290
     32  C         16.0880  -23.5320   -7.0500 C.2     1  UNL1        0.0080
     33  C         15.2020  -24.1810   -7.9250 C.2     1  UNL1        0.0190
     34  C         17.0370  -22.6320   -7.5620 C.2     1  UNL1       -0.0190
     35  C         15.2250  -23.9230   -9.2940 C.2     1  UNL1        0.0010
     36  C         16.1290  -23.0030   -9.8060 C.2     1  UNL1        0.0010
     37  C         17.0210  -22.3590   -8.9480 C.2     1  UNL1        0.0100
@<TRIPOS>BOND
     1    22    21    1
     2    20    18    2
     3    21    18   ar
     4    21    17   ar
     5    18    16   ar
     6    17    23    1
     7    17    15   ar
     8    16    19    1
     9    16    15   ar
    10    23    12    2
    11    15    14    1
    12    12     9    1
    13    12    13    1
    14    10     9    2
    15    11     9    2
    16    14    13    2
    17     9     7    1
    18     7     8    1
    19     7     4    1
    20    36    35    2
    21    36    37    1
    22     4     5    2
    23     4     3    1
    24     5     6    1
    25     3     2    2
    26    35    33    1
    27    37    34    2
    28     6     1    2
    29     2     1    1
    30     1    24    1
    31    33    32    2
    32    24    25    2
    33    24    26   am
    34    34    32    1
    35    34    28    1
    36    27    26    1
    37    26    28    1
    38    32    31    1
    39    28    29    1
    40    31    30    1
    41    29    30    1
