@<TRIPOS>MOLECULE
73637_out_ligand_01.pdbqt
 36 39 0 0 0
SMALL
GASTEIGER

@<TRIPOS>ATOM
      1  C         17.9980  -23.6550   -8.2920 C.2     1  UNL1        0.0750
      2  C         19.3080  -24.0670   -8.0290 C.2     1  UNL1        0.0260
      3  C         20.3360  -23.6650   -8.8830 C.2     1  UNL1        0.0180
      4  C         20.0530  -22.8720  -10.0040 C.2     1  UNL1        0.0320
      5  C         18.7350  -22.4620  -10.2580 C.2     1  UNL1        0.0180
      6  C         17.7030  -22.8600   -9.4040 C.2     1  UNL1        0.0260
      7  C         21.1870  -22.4530  -10.8780 C.2     1  UNL1        0.2560
      8  O         20.9230  -21.9010  -11.9390 O.2     1  UNL1       -0.2670
      9  N         22.4460  -22.7070  -10.3640 N.am    1  UNL1       -0.3230
     10  H         22.4960  -23.0370   -9.4090 H       1  UNL1        0.1690
     11  C         23.6870  -22.4720  -10.9930 C.2     1  UNL1        0.0350
     12  C         24.6760  -21.6300  -10.4810 C.2     1  UNL1        0.0290
     13  C         25.8740  -21.4320  -11.1760 C.2     1  UNL1        0.0030
     14  C         26.1000  -22.0820  -12.3890 C.2     1  UNL1        0.0170
     15  C         25.1240  -22.9400  -12.9040 C.2     1  UNL1        0.0340
     16  C         23.9170  -23.1200  -12.2120 C.2     1  UNL1        0.0460
     17  C         25.3070  -23.6590  -14.1940 C.2     1  UNL1        0.2520
     18  O         25.8360  -24.7660  -14.2040 O.2     1  UNL1       -0.2680
     19  N         24.8910  -22.9910  -15.3300 N.am    1  UNL1       -0.3520
     20  H         24.6300  -22.0160  -15.2620 H       1  UNL1        0.1630
     21  C         25.0420  -23.5520  -16.6350 C.3     1  UNL1        0.0840
     22  C         24.9840  -22.6790  -17.8580 C.3     1  UNL1        0.0270
     23  C         23.8630  -23.6330  -17.5640 C.3     1  UNL1        0.0270
     24  S         16.6980  -24.1750   -7.1840 S.O2    1  UNL1        0.2470
     25  O         15.6480  -24.7550   -7.9990 O.2     1  UNL1       -0.2050
     26  O         17.3440  -24.9430   -6.1410 O.2     1  UNL1       -0.2050
     27  N         16.1680  -22.6710   -6.5580 N.pl3   1  UNL1       -0.1740
     28  C         14.7090  -22.5520   -6.3390 C.3     1  UNL1        0.1360
     29  C         16.9950  -22.1660   -5.4870 C.2     1  UNL1        0.0580
     30  C         18.1640  -21.4920   -5.8600 C.2     1  UNL1        0.0270
     31  C         19.0300  -20.9890   -4.8870 C.2     1  UNL1        0.0020
     32  C         18.7310  -21.1550   -3.5360 C.2     1  UNL1        0.0030
     33  C         17.5730  -21.8360   -3.1540 C.2     1  UNL1        0.0380
     34  C         16.7160  -22.3630   -4.1250 C.2     1  UNL1        0.0900
     35  O         15.5620  -23.0040   -3.7570 O.2     1  UNL1       -0.3540
     36  C         15.8270  -24.2730   -3.1560 C.3     1  UNL1        0.2100
@<TRIPOS>BOND
     1    22    23    1
     2    22    21    1
     3    23    21    1
     4    21    19    1
     5    19    20    1
     6    19    17   am
     7    18    17    2
     8    17    15    1
     9    15    14    2
    10    15    16    1
    11    14    13    1
    12    16    11    2
    13     8     7    2
    14    13    12    2
    15    11    12    1
    16    11     9    1
    17     7     9   am
    18     7     4    1
    19     9    10    1
    20     5     4    2
    21     5     6    1
    22     4     3    1
    23     6     1    2
    24     3     2    2
    25     1     2    1
    26     1    24    1
    27    25    24    2
    28    24    27    1
    29    24    26    2
    30    27    28    1
    31    27    29    1
    32    30    29    2
    33    30    31    1
    34    29    34    1
    35    31    32    2
    36    34    35    1
    37    34    33    2
    38    35    36    1
    39    32    33    1
