@<TRIPOS>MOLECULE
73633_out_ligand_01.pdbqt
 31 35 0 0 0
SMALL
GASTEIGER

@<TRIPOS>ATOM
      1  C         20.2050  -21.7390  -10.9570 C.2     1  UNL1        0.0390
      2  C         19.6640  -20.8470  -11.9010 C.2     1  UNL1        0.0170
      3  C         18.2850  -20.6690  -11.9950 C.2     1  UNL1        0.0010
      4  C         17.4380  -21.3770  -11.1500 C.2     1  UNL1        0.0010
      5  C         17.9680  -22.2700  -10.2150 C.2     1  UNL1        0.0090
      6  C         19.3580  -22.4760  -10.1050 C.2     1  UNL1       -0.0330
      7  C         21.6870  -21.8630  -10.8940 C.2     1  UNL1        0.2520
      8  O         22.3560  -21.1560  -10.1540 O.2     1  UNL1       -0.2680
      9  N         22.2290  -22.8030  -11.7430 N.am    1  UNL1       -0.3480
     10  H         21.6410  -23.2160  -12.4550 H       1  UNL1        0.1630
     11  C         23.6740  -22.9590  -11.8950 C.3     1  UNL1        0.1200
     12  C         24.3030  -23.0630  -10.5000 C.3     1  UNL1        0.0400
     13  C         25.8150  -23.1070  -10.5690 C.3     1  UNL1        0.0820
     14  S         26.4500  -21.4860  -11.0670 S.3     1  UNL1       -0.1290
     15  C         25.4230  -21.1650  -12.4920 C.2     1  UNL1        0.0080
     16  C         25.8670  -20.1560  -13.3600 C.2     1  UNL1        0.0190
     17  C         24.2310  -21.8540  -12.7770 C.2     1  UNL1       -0.0190
     18  C         25.1650  -19.8450  -14.5230 C.2     1  UNL1        0.0010
     19  C         24.0100  -20.5470  -14.8370 C.2     1  UNL1        0.0010
     20  C         23.5530  -21.5450  -13.9770 C.2     1  UNL1        0.0100
     21  C         19.8690  -23.4630   -9.0790 C.3     1  UNL1        0.1220
     22  S         20.2590  -22.6950   -7.4820 S.3     1  UNL1       -0.0800
     23  C         18.7410  -22.8030   -6.6470 C.ar    1  UNL1        0.2100
     24  N         18.4400  -22.1160   -5.5580 N.ar    1  UNL1       -0.2160
     25  C         17.1710  -22.5310   -5.2470 C.ar    1  UNL1        0.0940
     26  C         16.3100  -22.1650   -4.2040 C.2     1  UNL1        0.0340
     27  C         16.7430  -23.4680   -6.1700 C.ar    1  UNL1        0.1070
     28  C         15.0460  -22.7720   -4.1470 C.2     1  UNL1        0.0020
     29  C         14.6520  -23.7180   -5.1040 C.2     1  UNL1        0.0030
     30  C         15.5030  -24.0920   -6.1520 C.2     1  UNL1        0.0400
     31  O         17.7480  -23.6520   -7.0700 O.2     1  UNL1       -0.2840
@<TRIPOS>BOND
     1    19    18    2
     2    19    20    1
     3    18    16    1
     4    20    17    2
     5    16    15    2
     6    17    15    1
     7    17    11    1
     8    15    14    1
     9    10     9    1
    10     3     2    1
    11     3     4    2
    12     2     1    2
    13    11     9    1
    14    11    12    1
    15     9     7   am
    16     4     5    1
    17    14    13    1
    18     1     7    1
    19     1     6    1
    20     7     8    2
    21    13    12    1
    22     5     6    2
    23     6    21    1
    24    21    22    1
    25    22    23    1
    26    31    23   ar
    27    31    27   ar
    28    23    24   ar
    29    27    30    1
    30    27    25   ar
    31    30    29    2
    32    24    25   ar
    33    25    26    1
    34    29    28    1
    35    26    28    2
