@<TRIPOS>MOLECULE
73644_out_ligand_01.pdbqt
 35 38 0 0 0
SMALL
GASTEIGER

@<TRIPOS>ATOM
      1  C         18.0870  -23.6390   -8.4700 C.2     1  UNL1        0.0790
      2  C         19.4130  -23.9950   -8.2020 C.2     1  UNL1        0.0260
      3  C         20.4300  -23.5290   -9.0370 C.2     1  UNL1        0.0180
      4  C         20.1270  -22.6910  -10.1200 C.2     1  UNL1        0.0320
      5  C         18.7960  -22.3310  -10.3760 C.2     1  UNL1        0.0180
      6  C         17.7760  -22.7960   -9.5440 C.2     1  UNL1        0.0260
      7  C         21.2420  -22.2300  -10.9930 C.2     1  UNL1        0.2560
      8  O         20.9730  -21.4920  -11.9320 O.2     1  UNL1       -0.2670
      9  N         22.4850  -22.7410  -10.6670 N.am    1  UNL1       -0.3230
     10  H         22.5080  -23.4840   -9.9810 H       1  UNL1        0.1690
     11  C         23.7200  -22.4230  -11.2710 C.2     1  UNL1        0.0350
     12  C         24.5690  -21.5550  -10.5680 C.2     1  UNL1        0.0290
     13  C         25.8070  -21.1800  -11.0960 C.2     1  UNL1        0.0030
     14  C         26.2100  -21.6670  -12.3360 C.2     1  UNL1        0.0170
     15  C         25.3710  -22.5340  -13.0460 C.2     1  UNL1        0.0340
     16  C         24.1240  -22.9010  -12.5190 C.2     1  UNL1        0.0460
     17  C         25.7620  -23.0540  -14.3830 C.2     1  UNL1        0.2520
     18  O         26.8120  -23.6700  -14.5210 O.2     1  UNL1       -0.2680
     19  N         24.8790  -22.7760  -15.4100 N.am    1  UNL1       -0.3520
     20  H         24.1240  -22.1260  -15.2390 H       1  UNL1        0.1630
     21  C         25.1460  -23.1520  -16.7640 C.3     1  UNL1        0.0840
     22  C         24.0160  -23.4010  -17.7250 C.3     1  UNL1        0.0270
     23  C         24.8840  -22.1880  -17.8870 C.3     1  UNL1        0.0270
     24  S         16.7860  -24.2300   -7.4070 S.O2    1  UNL1        0.2630
     25  O         15.6790  -24.6200   -8.2560 O.2     1  UNL1       -0.2000
     26  O         17.3720  -25.1650   -6.4710 O.2     1  UNL1       -0.2000
     27  N         16.2840  -22.8390   -6.5960 N.pl3   1  UNL1       -0.2800
     28  H         15.7980  -22.1850   -7.2060 H       1  UNL1        0.1790
     29  C         17.0670  -22.3130   -5.5260 C.2     1  UNL1        0.0480
     30  C         18.2070  -21.5570   -5.8160 C.2     1  UNL1        0.0300
     31  C         18.9700  -21.0070   -4.7870 C.2     1  UNL1        0.0020
     32  C         18.6010  -21.2170   -3.4610 C.2     1  UNL1        0.0010
     33  C         17.4720  -21.9830   -3.1650 C.2     1  UNL1        0.0090
     34  C         16.6920  -22.5420   -4.1920 C.2     1  UNL1       -0.0350
     35  C         15.4950  -23.3740   -3.8250 C.3     1  UNL1        0.0500
@<TRIPOS>BOND
     1    23    22    1
     2    23    21    1
     3    22    21    1
     4    21    19    1
     5    19    20    1
     6    19    17   am
     7    18    17    2
     8    17    15    1
     9    15    16    1
    10    15    14    2
    11    16    11    2
    12    14    13    1
    13     8     7    2
    14    11     9    1
    15    11    12    1
    16    13    12    2
    17     7     9   am
    18     7     4    1
    19     9    10    1
    20     5     4    2
    21     5     6    1
    22     4     3    1
    23     6     1    2
    24     3     2    2
    25     1     2    1
    26     1    24    1
    27    25    24    2
    28    24    27    1
    29    24    26    2
    30    28    27    1
    31    27    29    1
    32    30    29    2
    33    30    31    1
    34    29    34    1
    35    31    32    2
    36    34    35    1
    37    34    33    2
    38    32    33    1
