@<TRIPOS>MOLECULE
73666_out_ligand_01.pdbqt
 34 37 0 0 0
SMALL
GASTEIGER

@<TRIPOS>ATOM
      1  C         20.4490  -21.9080  -10.5930 C.2     1  UNL1        0.0320
      2  C         19.4030  -21.6300  -11.4820 C.2     1  UNL1        0.0180
      3  C         18.0750  -21.7940  -11.0720 C.2     1  UNL1        0.0190
      4  C         17.7870  -22.2390   -9.7770 C.2     1  UNL1        0.0450
      5  C         18.8300  -22.5320   -8.8880 C.2     1  UNL1       -0.0380
      6  C         20.1590  -22.3790   -9.3040 C.2     1  UNL1        0.0250
      7  C         18.4940  -23.0580   -7.5230 C.3     1  UNL1        0.0770
      8  C         17.1690  -22.4330   -7.0880 C.3     1  UNL1        0.1690
      9  O         16.1380  -22.7040   -8.0610 O.3     1  UNL1       -0.3070
     10  C         16.3690  -22.4440   -9.3730 C.2     1  UNL1        0.2940
     11  O         15.4650  -22.4000  -10.1970 O.2     1  UNL1       -0.2590
     12  C         21.8810  -21.7590  -10.9860 C.2     1  UNL1        0.2560
     13  N         22.1570  -22.0230  -12.3150 N.am    1  UNL1       -0.3230
     14  H         21.3680  -22.1930  -12.9270 H       1  UNL1        0.1690
     15  O         22.6770  -21.3830  -10.1350 O.2     1  UNL1       -0.2670
     16  C         23.4210  -22.0250  -12.9420 C.2     1  UNL1        0.0360
     17  C         23.5910  -21.1590  -14.0330 C.2     1  UNL1        0.0570
     18  C         24.8050  -21.1220  -14.7230 C.2     1  UNL1        0.0630
     19  C         25.8510  -21.9520  -14.3210 C.2     1  UNL1        0.1380
     20  C         25.7020  -22.8090  -13.2390 C.2     1  UNL1        0.0460
     21  F         27.0210  -21.9090  -14.9750 F       1  UNL1       -0.2040
     22  C         24.4850  -22.8460  -12.5520 C.2     1  UNL1        0.0320
     23  N         24.9800  -20.2600  -15.8690 N.pl3   1  UNL1       -0.1830
     24  H         25.9510  -19.9300  -15.8960 H       1  UNL1        0.1460
     25  S         24.6630  -21.0130  -17.3670 S.O2    1  UNL1        0.2100
     26  C         26.2810  -20.9280  -18.1020 C.3     1  UNL1        0.1800
     27  O         24.3630  -22.3970  -17.0830 O.2     1  UNL1       -0.2110
     28  O         23.7790  -20.1790  -18.1520 O.2     1  UNL1       -0.2110
     29  C         16.7450  -22.9650   -5.7330 C.2     1  UNL1       -0.0290
     30  C         17.6250  -22.9750   -4.6400 C.2     1  UNL1        0.0100
     31  C         17.2050  -23.4410   -3.3930 C.2     1  UNL1        0.0010
     32  C         15.9010  -23.8980   -3.2200 C.2     1  UNL1        0.0000
     33  C         15.0140  -23.8890   -4.2940 C.2     1  UNL1        0.0010
     34  C         15.4310  -23.4250   -5.5430 C.2     1  UNL1        0.0100
@<TRIPOS>BOND
     1    28    25    2
     2    26    25    1
     3    25    27    2
     4    25    23    1
     5    24    23    1
     6    23    18    1
     7    21    19    1
     8    18    19    2
     9    18    17    1
    10    19    20    1
    11    17    16    2
    12    20    22    2
    13    16    22    1
    14    16    13    1
    15    14    13    1
    16    13    12   am
    17     2     3    1
    18     2     1    2
    19     3     4    2
    20    12     1    1
    21    12    15    2
    22     1     6    1
    23    11    10    2
    24     4    10    1
    25     4     5    1
    26    10     9    1
    27     6     5    2
    28     5     7    1
    29     9     8    1
    30     7     8    1
    31     8    29    1
    32    29    34    2
    33    29    30    1
    34    34    33    1
    35    30    31    2
    36    33    32    2
    37    31    32    1
