@<TRIPOS>MOLECULE
73672_out_ligand_01.pdbqt
 36 40 0 0 0
SMALL
GASTEIGER

@<TRIPOS>ATOM
      1  C         20.4060  -20.5880  -11.6680 C.3     1  UNL1        0.1080
      2  C         18.9640  -20.9990  -11.4310 C.2     1  UNL1        0.2220
      3  O         18.0780  -20.6280  -12.1990 O.2     1  UNL1       -0.2730
      4  N         18.8020  -21.7730  -10.2960 N.am    1  UNL1       -0.3270
      5  H         19.6370  -21.9850   -9.7640 H       1  UNL1        0.1690
      6  C         17.6010  -22.3090   -9.7870 C.2     1  UNL1        0.0350
      7  C         16.6890  -23.0470  -10.5480 C.2     1  UNL1        0.0290
      8  C         15.5150  -23.5430   -9.9670 C.2     1  UNL1        0.0030
      9  C         15.2350  -23.2970   -8.6210 C.2     1  UNL1        0.0170
     10  C         16.1370  -22.5550   -7.8510 C.2     1  UNL1        0.0340
     11  C         17.3220  -22.0790   -8.4320 C.2     1  UNL1        0.0460
     12  C         15.8990  -22.2760   -6.4080 C.2     1  UNL1        0.2520
     13  O         14.7560  -22.0790   -6.0050 O.2     1  UNL1       -0.2680
     14  N         17.0190  -22.2860   -5.5950 N.am    1  UNL1       -0.3520
     15  H         17.8800  -22.6710   -5.9630 H       1  UNL1        0.1630
     16  C         16.9210  -22.1160   -4.1780 C.3     1  UNL1        0.0840
     17  C         18.1370  -21.7660   -3.3660 C.3     1  UNL1        0.0270
     18  C         17.5240  -23.1320   -3.2460 C.3     1  UNL1        0.0270
     19  C         21.2120  -21.7480  -12.2440 C.3     1  UNL1        0.0510
     20  C         22.4820  -22.0070  -11.4820 C.ar    1  UNL1       -0.0180
     21  C         22.6090  -22.5680  -10.2160 C.ar    1  UNL1        0.0500
     22  N         23.9550  -22.6120   -9.9260 N.ar    1  UNL1       -0.3540
     23  C         24.7040  -22.1080  -10.9600 C.ar    1  UNL1        0.0430
     24  H         24.3430  -22.9490   -9.0560 H       1  UNL1        0.1660
     25  C         26.0940  -21.9620  -11.0830 C.2     1  UNL1        0.0300
     26  C         23.8090  -21.7230  -11.9560 C.ar    1  UNL1       -0.0010
     27  C         26.5840  -21.4070  -12.2690 C.2     1  UNL1        0.0020
     28  C         25.7160  -21.0190  -13.2880 C.2     1  UNL1        0.0010
     29  C         24.3300  -21.1720  -13.1450 C.2     1  UNL1        0.0140
     30  C         21.6110  -23.0380   -9.2590 C.2     1  UNL1       -0.0090
     31  C         20.9960  -24.2880   -9.4260 C.2     1  UNL1        0.0170
     32  C         20.0420  -24.7360   -8.5100 C.2     1  UNL1        0.0430
     33  C         19.6970  -23.9290   -7.4330 C.2     1  UNL1        0.1160
     34  F         18.7810  -24.3580   -6.5540 F       1  UNL1       -0.2060
     35  C         20.2880  -22.6820   -7.2540 C.2     1  UNL1        0.0430
     36  C         21.2450  -22.2350   -8.1670 C.2     1  UNL1        0.0170
@<TRIPOS>BOND
     1    28    29    2
     2    28    27    1
     3    29    26    1
     4    27    25    2
     5    19     1    1
     6    19    20    1
     7     3     2    2
     8    26    20   ar
     9    26    23   ar
    10     1     2    1
    11    20    21   ar
    12     2     4   am
    13    25    23    1
    14    23    22   ar
    15     7     8    1
    16     7     6    2
    17     4     6    1
    18     4     5    1
    19    21    22   ar
    20    21    30    1
    21     8     9    2
    22    22    24    1
    23     6    11    1
    24    31    30    2
    25    31    32    1
    26    30    36    1
    27     9    10    1
    28    32    33    2
    29    11    10    2
    30    36    35    2
    31    10    12    1
    32    33    35    1
    33    33    34    1
    34    12    13    2
    35    12    14   am
    36    15    14    1
    37    14    16    1
    38    16    17    1
    39    16    18    1
    40    17    18    1
