@<TRIPOS>MOLECULE
73679_out_ligand_01.pdbqt
 28 30 0 0 0
SMALL
GASTEIGER

@<TRIPOS>ATOM
      1  C         18.2150  -22.8000   -9.8140 C.2     1  UNL1        0.0230
      2  C         17.1910  -22.0030  -10.3250 C.2     1  UNL1        0.0240
      3  C         17.4620  -21.0720  -11.3270 C.2     1  UNL1        0.0030
      4  C         18.7640  -20.9230  -11.8110 C.2     1  UNL1        0.0170
      5  C         19.7990  -21.7040  -11.2800 C.2     1  UNL1        0.0340
      6  C         19.5170  -22.6600  -10.2940 C.2     1  UNL1        0.0410
      7  N         17.9310  -23.7820   -8.8090 N.pl3   1  UNL1       -0.1810
      8  H         17.9490  -24.7350   -9.1780 H       1  UNL1        0.1460
      9  S         16.4460  -23.5560   -7.9920 S.O2    1  UNL1        0.2460
     10  O         15.6220  -22.6130   -8.7140 O.2     1  UNL1       -0.2060
     11  O         15.9600  -24.8770   -7.6500 O.2     1  UNL1       -0.2060
     12  C         17.0100  -22.7720   -6.4880 C.2     1  UNL1        0.0810
     13  C         16.2970  -22.8850   -5.2810 C.2     1  UNL1       -0.0390
     14  C         16.8140  -22.2380   -4.1470 C.2     1  UNL1        0.0090
     15  C         15.0300  -23.6790   -5.1390 C.3     1  UNL1        0.0500
     16  C         17.9950  -21.4960   -4.2100 C.2     1  UNL1        0.0070
     17  C         18.7020  -21.3910   -5.4080 C.2     1  UNL1       -0.0600
     18  C         19.9590  -20.5770   -5.4700 C.3     1  UNL1        0.0480
     19  C         18.2010  -22.0290   -6.5480 C.2     1  UNL1        0.0320
     20  C         21.2070  -21.5720  -11.7510 C.2     1  UNL1        0.2570
     21  O         21.4170  -21.0570  -12.8400 O.2     1  UNL1       -0.2670
     22  N         22.1550  -22.1600  -10.9330 N.am    1  UNL1       -0.3020
     23  H         21.8520  -22.7520  -10.1770 H       1  UNL1        0.1710
     24  C         23.5050  -21.9960  -11.0050 C.3     1  UNL1        0.1640
     25  N         24.2420  -21.2020  -10.3150 N.3     1  UNL1       -0.2660
     26  C         25.6420  -21.3210  -10.7690 C.3     1  UNL1        0.1620
     27  C         25.8650  -22.6840  -11.4100 C.3     1  UNL1        0.1040
     28  S         24.2640  -23.0540  -12.1520 S.3     1  UNL1       -0.0910
@<TRIPOS>BOND
     1    21    20    2
     2    28    27    1
     3    28    24    1
     4     4     3    2
     5     4     5    1
     6    20     5    1
     7    20    22   am
     8    27    26    1
     9     3     2    1
    10     5     6    2
    11    24    22    1
    12    24    25    1
    13    22    23    1
    14    26    25    1
    15     2     1    2
    16     6     1    1
    17     1     7    1
    18     8     7    1
    19     7     9    1
    20    10     9    2
    21     9    11    2
    22     9    12    1
    23    19    12    2
    24    19    17    1
    25    12    13    1
    26    18    17    1
    27    17    16    2
    28    13    15    1
    29    13    14    2
    30    16    14    1
