@<TRIPOS>MOLECULE
73677_out_ligand_01.pdbqt
 32 34 0 0 0
SMALL
GASTEIGER

@<TRIPOS>ATOM
      1  C         21.2840  -21.7610  -10.8190 C.2     1  UNL1        0.0340
      2  C         22.1250  -21.7650   -9.7010 C.2     1  UNL1        0.0170
      3  C         23.5040  -21.8630   -9.8760 C.2     1  UNL1        0.0030
      4  C         24.0490  -21.9650  -11.1600 C.2     1  UNL1        0.0290
      5  C         23.2220  -21.9770  -12.2840 C.2     1  UNL1        0.0350
      6  C         21.8360  -21.8800  -12.1040 C.2     1  UNL1        0.0460
      7  C         19.8030  -21.6640  -10.7000 C.2     1  UNL1        0.2520
      8  N         19.2250  -22.3460   -9.6510 N.am    1  UNL1       -0.3490
      9  H         19.8180  -22.6870   -8.9070 H       1  UNL1        0.1630
     10  O         19.1700  -20.9740  -11.4920 O.2     1  UNL1       -0.2680
     11  C         17.7990  -22.2540   -9.3790 C.3     1  UNL1        0.1140
     12  C         17.0170  -23.3740  -10.0720 C.3     1  UNL1        0.0370
     13  C         17.5690  -22.2490   -7.8750 C.2     1  UNL1       -0.0350
     14  C         18.6660  -22.2190   -7.0020 C.2     1  UNL1        0.0090
     15  C         18.4760  -22.2270   -5.6190 C.2     1  UNL1        0.0010
     16  C         17.1880  -22.2740   -5.0890 C.2     1  UNL1        0.0160
     17  C         16.0730  -22.3220   -5.9370 C.2     1  UNL1        0.0480
     18  C         16.2750  -22.3040   -7.3280 C.2     1  UNL1        0.0250
     19  C         14.6730  -22.3590   -5.3720 C.3     1  UNL1        0.4170
     20  F         14.6270  -21.9920   -4.0610 F       1  UNL1       -0.1660
     21  F         14.1210  -23.6010   -5.4330 F       1  UNL1       -0.1660
     22  F         13.8080  -21.5300   -6.0190 F       1  UNL1       -0.1660
     23  N         23.6900  -22.0970  -13.6100 N.am    1  UNL1       -0.3230
     24  C         24.2620  -21.1070  -14.3890 C.2     1  UNL1        0.2570
     25  O         24.3900  -19.9250  -14.0920 O.2     1  UNL1       -0.2670
     26  H         23.5270  -22.9940  -14.0480 H       1  UNL1        0.1690
     27  C         24.7210  -21.5430  -15.7310 C.2     1  UNL1        0.0490
     28  C         25.0590  -20.6500  -16.7530 C.2     1  UNL1        0.0200
     29  C         25.4780  -21.1520  -17.9840 C.2     1  UNL1        0.0200
     30  C         25.5390  -22.5270  -18.1530 C.2     1  UNL1        0.1160
     31  N         25.2070  -23.4150  -17.1900 N.2     1  UNL1       -0.2720
     32  C         24.7940  -22.9030  -16.0030 C.2     1  UNL1        0.1330
@<TRIPOS>BOND
     1    30    29    2
     2    30    31    1
     3    29    28    1
     4    31    32    2
     5    28    27    2
     6    32    27    1
     7    27    24    1
     8    24    25    2
     9    24    23   am
    10    26    23    1
    11    23     5    1
    12     5     6    1
    13     5     4    2
    14     6     1    2
    15    10     7    2
    16     4     3    1
    17     1     7    1
    18     1     2    1
    19     7     8   am
    20    12    11    1
    21     3     2    2
    22     8    11    1
    23     8     9    1
    24    11    13    1
    25    13    18    2
    26    13    14    1
    27    18    17    1
    28    14    15    2
    29    22    19    1
    30    17    19    1
    31    17    16    2
    32    15    16    1
    33    21    19    1
    34    19    20    1
