@<TRIPOS>MOLECULE
7367_out_ligand_01.pdbqt
 38 41 0 0 0
SMALL
GASTEIGER

@<TRIPOS>ATOM
      1  S         16.0600  -22.6750   -9.0040 S.O2    1  UNL1        0.2720
      2  O         16.3980  -24.0590   -8.7310 O.2     1  UNL1       -0.2030
      3  O         14.7620  -22.3310   -9.5430 O.2     1  UNL1       -0.2030
      4  C         17.2510  -22.1050  -10.1760 C.ar    1  UNL1        0.2330
      5  N         17.1330  -21.0450  -10.9500 N.ar    1  UNL1       -0.1270
      6  N         18.2380  -20.8950  -11.7640 N.ar    1  UNL1       -0.1220
      7  C         19.1300  -21.8440  -11.5700 C.ar    1  UNL1        0.1970
      8  S         18.6740  -23.0150  -10.4200 S.2     1  UNL1       -0.0150
      9  N         20.3120  -21.8770  -12.2680 N.am    1  UNL1       -0.3000
     10  C         21.5250  -21.3900  -11.8460 C.2     1  UNL1        0.2570
     11  O         21.7660  -20.8180  -10.7910 O.2     1  UNL1       -0.2670
     12  H         20.2020  -22.2180  -13.2130 H       1  UNL1        0.1710
     13  C         22.6400  -21.5540  -12.8230 C.2     1  UNL1        0.0320
     14  C         23.6550  -22.4760  -12.5260 C.2     1  UNL1        0.0180
     15  C         24.7210  -22.6610  -13.4110 C.2     1  UNL1        0.0250
     16  C         24.7690  -21.9330  -14.5980 C.2     1  UNL1        0.0340
     17 CL         26.0790  -22.1600  -15.6890 Cl      1  UNL1       -0.0840
     18  C         23.7550  -21.0270  -14.9120 C.2     1  UNL1        0.0250
     19  C         22.6870  -20.8370  -14.0280 C.2     1  UNL1        0.0180
     20  N         16.2420  -21.7760   -7.5540 N.pl3   1  UNL1       -0.1790
     21  H         15.5350  -21.0230   -7.6030 H       1  UNL1        0.1460
     22  C         16.0680  -22.5450   -6.3450 C.2     1  UNL1        0.0380
     23  C         14.8950  -23.2890   -6.2000 C.2     1  UNL1        0.0250
     24  C         14.6500  -23.9880   -5.0160 C.2     1  UNL1        0.0020
     25  C         15.5710  -23.9420   -3.9690 C.2     1  UNL1        0.0010
     26  C         16.7420  -23.1930   -4.0980 C.2     1  UNL1        0.0190
     27  C         16.9910  -22.4850   -5.2830 C.2     1  UNL1        0.0540
     28  C         18.2380  -21.6980   -5.4400 C.2     1  UNL1        0.2530
     29  O         18.5880  -20.9400   -4.5390 O.2     1  UNL1       -0.2680
     30  N         18.9690  -21.9400   -6.5800 N.am    1  UNL1       -0.3530
     31  H         18.7370  -22.7460   -7.1490 H       1  UNL1        0.1630
     32  C         20.3070  -21.4120   -6.7170 C.3     1  UNL1        0.1610
     33  C         21.1330  -22.2920   -7.6190 C.2     1  UNL1       -0.0410
     34  C         20.6370  -23.5160   -8.0900 C.2     1  UNL1        0.0090
     35  C         21.4270  -24.3290   -8.9090 C.2     1  UNL1        0.0010
     36  C         22.7190  -23.9310   -9.2540 C.2     1  UNL1        0.0000
     37  C         23.2250  -22.7190   -8.7830 C.2     1  UNL1        0.0010
     38  C         22.4390  -21.9060   -7.9650 C.2     1  UNL1        0.0090
@<TRIPOS>BOND
     1    17    16    1
     2    18    16    2
     3    18    19    1
     4    16    15    1
     5    19    13    2
     6    15    14    2
     7    12     9    1
     8    13    14    1
     9    13    10    1
    10     9    10   am
    11     9     7    1
    12    10    11    2
    13     6     7   ar
    14     6     5   ar
    15     7     8   ar
    16     5     4   ar
    17     8     4   ar
    18     4     1    1
    19     3     1    2
    20    36    35    2
    21    36    37    1
    22     1     2    2
    23     1    20    1
    24    35    34    1
    25    37    38    2
    26    34    33    2
    27    38    33    1
    28    33    32    1
    29    21    20    1
    30    20    22    1
    31    31    30    1
    32    32    30    1
    33    30    28   am
    34    22    23    2
    35    22    27    1
    36    23    24    1
    37    28    27    1
    38    28    29    2
    39    27    26    2
    40    24    25    2
    41    26    25    1
