@<TRIPOS>MOLECULE
73680_out_ligand_01.pdbqt
 29 32 0 0 0
SMALL
GASTEIGER

@<TRIPOS>ATOM
      1  O         23.9330  -23.7520   -9.0590 O.2     1  UNL1       -0.2670
      2  C         22.9860  -23.0790   -9.4470 C.2     1  UNL1        0.2560
      3  N         22.9620  -22.2260  -10.5370 N.am    1  UNL1       -0.3230
      4  H         22.0610  -21.8540  -10.8040 H       1  UNL1        0.1690
      5  C         21.6890  -23.1990   -8.7210 C.2     1  UNL1        0.0320
      6  C         20.9280  -24.3600   -8.9010 C.2     1  UNL1        0.0170
      7  C         19.7050  -24.5060   -8.2420 C.2     1  UNL1        0.0100
      8  C         19.2320  -23.4990   -7.3900 C.2     1  UNL1       -0.0300
      9  C         20.0130  -22.3480   -7.1970 C.2     1  UNL1        0.0100
     10  C         21.2370  -22.1980   -7.8540 C.2     1  UNL1        0.0170
     11  C         17.9100  -23.6580   -6.6640 C.3     1  UNL1        0.3110
     12  N         17.3050  -22.3730   -6.2760 N.3     1  UNL1        0.0920
     13  C         17.4570  -22.1130   -4.8370 C.3     1  UNL1        0.2720
     14  C         16.5550  -22.9740   -3.9480 C.3     1  UNL1        0.0300
     15  C         15.0930  -22.8550   -4.3640 C.3     1  UNL1        0.0030
     16  C         14.9280  -23.1080   -5.8590 C.3     1  UNL1        0.0300
     17  C         15.8940  -22.2480   -6.6780 C.3     1  UNL1        0.2720
     18  C         24.0390  -21.8880  -11.3820 C.2     1  UNL1        0.0350
     19  C         25.2040  -21.2590  -10.9460 C.2     1  UNL1        0.0290
     20  C         26.2240  -20.9530  -11.8500 C.2     1  UNL1        0.0030
     21  C         26.0870  -21.2730  -13.2000 C.2     1  UNL1        0.0140
     22  C         24.9270  -21.9050  -13.6640 C.2     1  UNL1       -0.0060
     23  C         23.9080  -22.2000  -12.7440 C.2     1  UNL1        0.0430
     24  C         24.7670  -22.2490  -15.0750 C.2     1  UNL1        0.0610
     25  C         24.9430  -23.4380  -15.7570 C.2     1  UNL1        0.0530
     26  C         24.6480  -23.1470  -17.1000 C.2     1  UNL1        0.1410
     27  N         24.3200  -21.8680  -17.2800 N.2     1  UNL1       -0.1870
     28  N         24.4050  -21.3450  -16.0450 N.pl3   1  UNL1       -0.2780
     29  H         24.2160  -20.3560  -15.9300 H       1  UNL1        0.1890
@<TRIPOS>BOND
     1    27    26    2
     2    27    28    1
     3    26    25    1
     4    28    29    1
     5    28    24    1
     6    25    24    2
     7    24    22    1
     8    22    21    2
     9    22    23    1
    10    21    20    1
    11    23    18    2
    12    20    19    2
    13    18    19    1
    14    18     3    1
    15     4     3    1
    16     3     2   am
    17     2     1    2
    18     2     5    1
    19     6     5    2
    20     6     7    1
    21     5    10    1
    22     7     8    2
    23    10     9    2
    24     8     9    1
    25     8    11    1
    26    17    12    1
    27    17    16    1
    28    11    12    1
    29    12    13    1
    30    16    15    1
    31    13    14    1
    32    15    14    1
