@<TRIPOS>MOLECULE
73686_out_ligand_01.pdbqt
 27 29 0 0 0
SMALL
GASTEIGER

@<TRIPOS>ATOM
      1  C         18.1590  -22.5730   -9.2550 C.2     1  UNL1        0.2770
      2  O         17.4650  -22.3300  -10.2450 O.2     1  UNL1       -0.2650
      3  N         19.5360  -22.8830   -9.3000 N.am    1  UNL1       -0.3120
      4  C         20.1590  -23.6620   -8.2230 C.3     1  UNL1        0.1330
      5  C         21.1910  -24.6510   -8.7370 C.3     1  UNL1        0.0250
      6  C         22.2890  -23.8960   -9.4530 C.3     1  UNL1        0.0420
      7  C         21.7140  -22.9550  -10.4780 C.2     1  UNL1       -0.0300
      8  C         22.5610  -22.5290  -11.5210 C.2     1  UNL1        0.0250
      9  C         22.1160  -21.6330  -12.5000 C.2     1  UNL1        0.0480
     10  C         20.8030  -21.1670  -12.4200 C.2     1  UNL1        0.0180
     11  C         19.9610  -21.5760  -11.3780 C.2     1  UNL1        0.0310
     12  C         20.3880  -22.4790  -10.3930 C.2     1  UNL1        0.0430
     13  C         17.4460  -22.5500   -7.9300 C.2     1  UNL1        0.1240
     14  C         18.1250  -22.0860   -6.8060 C.2     1  UNL1        0.0380
     15  C         17.4770  -22.1100   -5.5720 C.2     1  UNL1        0.0210
     16  C         16.1720  -22.6020   -5.4870 C.2     1  UNL1        0.0490
     17  C         15.5830  -23.0720   -6.6520 C.2     1  UNL1        0.1340
     18  N         16.1810  -23.0510   -7.8710 N.2     1  UNL1       -0.2540
     19  C         15.4900  -22.6370   -4.1740 C.2     1  UNL1        0.2500
     20  N         15.9400  -23.5260   -3.2370 N.am    1  UNL1       -0.3660
     21  H         16.5220  -24.3210   -3.4570 H       1  UNL1        0.1590
     22  H         15.3770  -23.5940   -2.3970 H       1  UNL1        0.1590
     23  O         14.5280  -21.9170   -3.9390 O.2     1  UNL1       -0.2680
     24  C         23.0230  -21.2090  -13.6270 C.3     1  UNL1        0.4170
     25  F         23.2850  -22.2180  -14.5060 F       1  UNL1       -0.1660
     26  F         24.2390  -20.7630  -13.2050 F       1  UNL1       -0.1660
     27  F         22.4900  -20.1990  -14.3690 F       1  UNL1       -0.1660
@<TRIPOS>BOND
     1    25    24    1
     2    27    24    1
     3    24    26    1
     4    24     9    1
     5     9    10    2
     6     9     8    1
     7    10    11    1
     8     8     7    2
     9    11    12    2
    10     7    12    1
    11     7     6    1
    12    12     3    1
    13     2     1    2
    14     6     5    1
    15     3     1   am
    16     3     4    1
    17     1    13    1
    18     5     4    1
    19    13    18    2
    20    13    14    1
    21    18    17    1
    22    14    15    2
    23    17    16    2
    24    15    16    1
    25    16    19    1
    26    19    23    2
    27    19    20   am
    28    21    20    1
    29    20    22    1
