@<TRIPOS>MOLECULE
73705_out_ligand_01.pdbqt
 31 32 0 0 0
SMALL
GASTEIGER

@<TRIPOS>ATOM
      1  C         19.4720  -22.2840   -6.6960 C.2     1  UNL1        0.2560
      2  O         19.3570  -21.2070   -6.1210 O.2     1  UNL1       -0.2670
      3  N         18.6370  -23.3750   -6.5630 N.am    1  UNL1       -0.3220
      4  H         18.9230  -24.2410   -7.0210 H       1  UNL1        0.1690
      5  C         17.4200  -23.4730   -5.8410 C.2     1  UNL1        0.0500
      6  C         17.3860  -23.5870   -4.4470 C.2     1  UNL1        0.0300
      7  C         16.1690  -23.6540   -3.7600 C.2     1  UNL1        0.0020
      8  C         14.9660  -23.5960   -4.4540 C.2     1  UNL1        0.0010
      9  C         14.9730  -23.4860   -5.8430 C.2     1  UNL1        0.0190
     10  C         16.1920  -23.4390   -6.5450 C.2     1  UNL1        0.0580
     11  C         16.1760  -23.3430   -8.0360 C.2     1  UNL1        0.2540
     12  O         15.6950  -24.2440   -8.7160 O.2     1  UNL1       -0.2680
     13  N         16.6720  -22.1820   -8.5950 N.am    1  UNL1       -0.3480
     14  H         16.7940  -21.3730   -7.9980 H       1  UNL1        0.1630
     15  C         16.5180  -21.9390  -10.0320 C.3     1  UNL1        0.2400
     16  C         17.7990  -22.0890  -10.8580 C.3     1  UNL1        0.4030
     17  F         17.6800  -21.6020  -12.1090 F       1  UNL1       -0.1690
     18  F         18.8250  -21.4380  -10.2580 F       1  UNL1       -0.1690
     19  F         18.1520  -23.3920  -10.9540 F       1  UNL1       -0.1690
     20  C         20.6460  -22.4850   -7.5970 C.2     1  UNL1        0.0320
     21  C         21.7310  -21.5990   -7.6250 C.2     1  UNL1        0.0170
     22  C         22.8040  -21.8340   -8.4900 C.2     1  UNL1        0.0100
     23  C         22.8170  -22.9580   -9.3280 C.2     1  UNL1       -0.0400
     24  C         21.7350  -23.8470   -9.2890 C.2     1  UNL1        0.0100
     25  C         20.6620  -23.6160   -8.4250 C.2     1  UNL1        0.0170
     26  C         23.9680  -23.1830  -10.2760 C.3     1  UNL1        0.1610
     27  N         24.8850  -22.0660  -10.2370 N.am    1  UNL1       -0.3570
     28  C         25.1930  -21.3450  -11.3660 C.2     1  UNL1        0.2130
     29  C         26.2710  -20.3140  -11.1570 C.3     1  UNL1        0.1170
     30  O         24.6610  -21.5170  -12.4580 O.2     1  UNL1       -0.2740
     31  H         25.4970  -21.9990   -9.4360 H       1  UNL1        0.1620
@<TRIPOS>BOND
     1    30    28    2
     2    17    16    1
     3    28    29    1
     4    28    27   am
     5    19    16    1
     6    16    18    1
     7    16    15    1
     8    26    27    1
     9    26    23    1
    10    27    31    1
    11    15    13    1
    12    23    24    2
    13    23    22    1
    14    24    25    1
    15    12    11    2
    16    13    11   am
    17    13    14    1
    18    22    21    2
    19    25    20    2
    20    11    10    1
    21    21    20    1
    22    20     1    1
    23     4     3    1
    24     1     3   am
    25     1     2    2
    26     3     5    1
    27    10     9    1
    28    10     5    2
    29     9     8    2
    30     5     6    1
    31     8     7    1
    32     6     7    2
