@<TRIPOS>MOLECULE
73712_out_ligand_01.pdbqt
 35 38 0 0 0
SMALL
GASTEIGER

@<TRIPOS>ATOM
      1  C         17.5070  -23.5010   -8.5530 C.2     1  UNL1        0.0810
      2  C         16.8090  -22.6570   -9.4250 C.2     1  UNL1        0.0250
      3  C         17.4970  -21.9870  -10.4380 C.2     1  UNL1        0.0030
      4  C         18.8770  -22.1480  -10.5690 C.2     1  UNL1        0.0170
      5  C         19.5760  -22.9710   -9.6740 C.2     1  UNL1        0.0330
      6  C         18.8930  -23.6500   -8.6610 C.2     1  UNL1        0.0420
      7  C         21.0420  -23.1730   -9.8050 C.2     1  UNL1        0.2560
      8  O         21.5610  -24.0570   -9.1370 O.2     1  UNL1       -0.2670
      9  N         21.6630  -22.3000  -10.6780 N.am    1  UNL1       -0.3230
     10  H         21.0920  -21.5620  -11.0710 H       1  UNL1        0.1690
     11  C         23.0330  -22.2580  -11.0140 C.2     1  UNL1        0.0350
     12  C         24.0130  -21.6550  -10.2240 C.2     1  UNL1        0.0290
     13  C         25.3510  -21.6440  -10.6340 C.2     1  UNL1        0.0030
     14  C         25.7240  -22.2480  -11.8330 C.2     1  UNL1        0.0170
     15  C         24.7570  -22.8770  -12.6240 C.2     1  UNL1        0.0340
     16  C         23.4140  -22.8680  -12.2150 C.2     1  UNL1        0.0460
     17  C         25.0900  -23.5410  -13.9140 C.2     1  UNL1        0.2520
     18  O         25.5050  -24.6950  -13.9130 O.2     1  UNL1       -0.2680
     19  N         24.9410  -22.7750  -15.0560 N.am    1  UNL1       -0.3520
     20  H         24.7600  -21.7840  -14.9690 H       1  UNL1        0.1630
     21  C         25.2580  -23.2840  -16.3530 C.3     1  UNL1        0.0840
     22  C         25.1170  -22.4160  -17.5730 C.3     1  UNL1        0.0270
     23  C         24.1640  -23.5520  -17.3490 C.3     1  UNL1        0.0270
     24  S         16.6330  -24.3250   -7.2340 S.O2    1  UNL1        0.2650
     25  O         15.5080  -25.0140   -7.8330 O.2     1  UNL1       -0.2000
     26  O         17.6230  -25.0710   -6.4800 O.2     1  UNL1       -0.2000
     27  N         16.0760  -23.0290   -6.2540 N.pl3   1  UNL1       -0.2720
     28  C         14.6840  -23.1420   -5.7460 C.3     1  UNL1        0.1370
     29  C         13.9970  -21.7830   -5.7640 C.3     1  UNL1        0.0280
     30  C         17.0660  -22.4340   -5.3920 C.2     1  UNL1        0.0450
     31  C         17.9680  -21.4680   -5.8480 C.2     1  UNL1        0.0300
     32  C         18.8680  -20.8750   -4.9590 C.2     1  UNL1        0.0020
     33  C         18.8680  -21.2420   -3.6140 C.2     1  UNL1        0.0000
     34  C         17.9630  -22.1960   -3.1530 C.2     1  UNL1        0.0020
     35  C         17.0600  -22.7840   -4.0390 C.2     1  UNL1        0.0300
@<TRIPOS>BOND
     1    22    23    1
     2    22    21    1
     3    23    21    1
     4    21    19    1
     5    19    20    1
     6    19    17   am
     7    17    18    2
     8    17    15    1
     9    15    16    1
    10    15    14    2
    11    16    11    2
    12    14    13    1
    13    10     9    1
    14    11     9    1
    15    11    12    1
    16     9     7   am
    17    13    12    2
    18     4     3    2
    19     4     5    1
    20     3     2    1
    21     7     5    1
    22     7     8    2
    23     5     6    2
    24     2     1    2
    25     6     1    1
    26     1    24    1
    27    25    24    2
    28    24    26    2
    29    24    27    1
    30    27    28    1
    31    27    30    1
    32    31    30    2
    33    31    32    1
    34    29    28    1
    35    30    35    1
    36    32    33    2
    37    35    34    2
    38    33    34    1
