@<TRIPOS>MOLECULE
73721_out_ligand_01.pdbqt
 28 31 0 0 0
SMALL
GASTEIGER

@<TRIPOS>ATOM
      1  C         21.2840  -23.5120   -9.5370 C.2     1  UNL1        0.2570
      2  O         21.8660  -24.5110   -9.1380 O.2     1  UNL1       -0.2670
      3  N         21.7630  -22.5370  -10.3910 N.am    1  UNL1       -0.3230
      4  H         21.0930  -21.8470  -10.7120 H       1  UNL1        0.1690
      5  C         23.0690  -22.4230  -10.9100 C.2     1  UNL1        0.0350
      6  C         23.9780  -21.6470  -10.1770 C.2     1  UNL1        0.0290
      7  C         25.2950  -21.4830  -10.6130 C.2     1  UNL1        0.0030
      8  C         25.7180  -22.0940  -11.7920 C.2     1  UNL1        0.0170
      9  C         24.8160  -22.8690  -12.5320 C.2     1  UNL1        0.0340
     10  C         23.4990  -23.0410  -12.0850 C.2     1  UNL1        0.0460
     11  C         25.2420  -23.5500  -13.7820 C.2     1  UNL1        0.2520
     12  O         25.8210  -24.6290  -13.7300 O.2     1  UNL1       -0.2680
     13  N         24.9190  -22.8940  -14.9560 N.am    1  UNL1       -0.3520
     14  H         24.2870  -22.1050  -14.9170 H       1  UNL1        0.1630
     15  C         25.2180  -23.4520  -16.2370 C.3     1  UNL1        0.0840
     16  C         24.1530  -23.5580  -17.2940 C.3     1  UNL1        0.0270
     17  C         25.2720  -22.5710  -17.4540 C.3     1  UNL1        0.0270
     18  C         19.8670  -23.3250   -9.1470 C.2     1  UNL1        0.0460
     19  C         19.4540  -23.9850   -7.9900 C.2     1  UNL1        0.0440
     20  C         18.1250  -23.8880   -7.6280 C.2     1  UNL1        0.0320
     21  C         17.6250  -24.5820   -6.3970 C.3     1  UNL1        0.0700
     22  N         17.2270  -23.1850   -8.3540 N.2     1  UNL1       -0.2530
     23  C         17.6360  -22.5190   -9.4490 C.2     1  UNL1        0.0680
     24  C         16.6990  -21.7780  -10.1570 C.2     1  UNL1        0.0320
     25  C         18.9680  -22.5380   -9.9020 C.2     1  UNL1        0.0080
     26  C         17.0420  -21.0400  -11.2920 C.2     1  UNL1        0.0020
     27  C         18.3570  -21.0310  -11.7330 C.2     1  UNL1        0.0010
     28  C         19.3170  -21.7690  -11.0440 C.2     1  UNL1        0.0150
@<TRIPOS>BOND
     1    17    16    1
     2    17    15    1
     3    16    15    1
     4    15    13    1
     5    13    14    1
     6    13    11   am
     7    11    12    2
     8    11     9    1
     9     9    10    1
    10     9     8    2
    11    10     5    2
    12     8     7    1
    13    27    26    1
    14    27    28    2
    15    26    24    2
    16    28    25    1
    17     5     3    1
    18     5     6    1
    19     4     3    1
    20     7     6    2
    21     3     1   am
    22    24    23    1
    23    25    23    1
    24    25    18    2
    25     1    18    1
    26     1     2    2
    27    23    22    2
    28    18    19    1
    29    22    20    1
    30    19    20    2
    31    20    21    1
