@<TRIPOS>MOLECULE
73746_out_ligand_01.pdbqt
 31 34 0 0 0
SMALL
GASTEIGER

@<TRIPOS>ATOM
      1  C         23.3080  -22.5760   -9.1260 C.2     1  UNL1        0.2260
      2  O         23.7660  -23.7130   -9.0550 O.2     1  UNL1       -0.2730
      3  N         23.6990  -21.5910  -10.0220 N.am    1  UNL1       -0.3270
      4  H         23.1680  -20.7270  -10.0100 H       1  UNL1        0.1690
      5  C         22.1900  -22.1250   -8.1990 C.3     1  UNL1        0.1440
      6  C         20.8230  -22.4180   -8.7220 C.2     1  UNL1       -0.0140
      7  C         20.4380  -22.7480  -10.0080 C.2     1  UNL1        0.1510
      8  O         19.0980  -22.9550  -10.0800 O.2     1  UNL1       -0.3210
      9  C         18.5980  -22.7640   -8.8310 C.2     1  UNL1        0.0860
     10  C         17.2610  -22.8820   -8.4680 C.2     1  UNL1        0.0450
     11  C         19.6150  -22.4260   -7.9530 C.2     1  UNL1        0.0070
     12  C         16.9280  -22.6440   -7.1180 C.2     1  UNL1       -0.0530
     13  C         15.4760  -22.7650   -6.7260 C.3     1  UNL1        0.0490
     14  C         17.9340  -22.3160   -6.1730 C.2     1  UNL1       -0.0480
     15  C         19.2770  -22.1890   -6.6080 C.2     1  UNL1        0.0230
     16  C         17.5930  -22.0610   -4.7060 C.3     1  UNL1        0.0110
     17  C         18.5530  -21.0320   -4.1060 C.3     1  UNL1        0.0150
     18  C         17.5630  -23.3310   -3.8450 C.3     1  UNL1        0.0150
     19  C         24.7260  -21.6670  -10.9860 C.2     1  UNL1        0.0350
     20  C         25.9170  -20.9410  -10.9190 C.2     1  UNL1        0.0290
     21  C         26.8850  -21.0600  -11.9230 C.2     1  UNL1        0.0030
     22  C         26.6750  -21.9160  -13.0030 C.2     1  UNL1        0.0170
     23  C         25.4920  -22.6590  -13.0750 C.2     1  UNL1        0.0340
     24  C         24.5170  -22.5220  -12.0750 C.2     1  UNL1        0.0460
     25  C         25.2100  -23.5750  -14.2130 C.2     1  UNL1        0.2520
     26  O         25.1570  -24.7860  -14.0200 O.2     1  UNL1       -0.2680
     27  N         25.0550  -22.9760  -15.4490 N.am    1  UNL1       -0.3520
     28  H         25.2890  -21.9960  -15.5560 H       1  UNL1        0.1630
     29  C         24.7800  -23.7310  -16.6300 C.3     1  UNL1        0.0840
     30  C         23.4550  -23.5830  -17.3300 C.3     1  UNL1        0.0270
     31  C         24.7040  -23.0540  -17.9710 C.3     1  UNL1        0.0270
@<TRIPOS>BOND
     1    31    30    1
     2    31    29    1
     3    30    29    1
     4    29    27    1
     5    28    27    1
     6    27    25   am
     7    25    26    2
     8    25    23    1
     9    23    22    2
    10    23    24    1
    11    22    21    1
    12    24    19    2
    13    21    20    2
    14    19    20    1
    15    19     3    1
    16     8     7    1
    17     8     9    1
    18     3     4    1
    19     3     1   am
    20     7     6    2
    21     1     2    2
    22     1     5    1
    23     9    10    2
    24     9    11    1
    25     6     5    1
    26     6    11    1
    27    10    12    1
    28    11    15    2
    29    12    13    1
    30    12    14    2
    31    15    14    1
    32    14    16    1
    33    16    17    1
    34    16    18    1
