@<TRIPOS>MOLECULE
73749_out_ligand_01.pdbqt
 33 37 0 0 0
SMALL
GASTEIGER

@<TRIPOS>ATOM
      1  N         24.5970  -22.1230  -10.7110 N.am    1  UNL1       -0.3270
      2  C         23.3080  -22.5960  -10.8780 C.2     1  UNL1        0.2280
      3  O         22.5850  -22.3740  -11.8470 O.2     1  UNL1       -0.2730
      4  H         25.0330  -22.2660   -9.8040 H       1  UNL1        0.1690
      5  C         22.7920  -23.4790   -9.7450 C.3     1  UNL1        0.1050
      6  C         22.7980  -22.7540   -8.4060 C.3     1  UNL1        0.1190
      7  C         21.3710  -22.2860   -8.2370 C.2     1  UNL1        0.2250
      8  O         21.0080  -21.5720   -7.3170 O.2     1  UNL1       -0.2730
      9  N         20.6070  -22.8430   -9.2740 N.am    1  UNL1       -0.3160
     10  C         21.3500  -23.8980   -9.9270 C.3     1  UNL1        0.1470
     11  C         19.2010  -22.6780   -9.4410 C.2     1  UNL1        0.0480
     12  C         18.7590  -21.8330  -10.4770 C.2     1  UNL1        0.0300
     13  C         17.4040  -21.6380  -10.7210 C.2     1  UNL1        0.0030
     14  C         16.4600  -22.2660   -9.9180 C.2     1  UNL1        0.0120
     15  C         16.8550  -23.0770   -8.8470 C.2     1  UNL1       -0.0240
     16  C         15.8650  -23.6500   -8.0300 C.2     1  UNL1        0.0120
     17  C         18.2350  -23.2920   -8.5760 C.2     1  UNL1        0.0010
     18  C         16.2030  -24.4180   -6.9200 C.2     1  UNL1        0.0010
     19  C         17.5370  -24.6140   -6.6080 C.2     1  UNL1        0.0010
     20  C         18.5320  -24.0550   -7.4170 C.2     1  UNL1        0.0140
     21  C         25.3580  -21.3640  -11.6250 C.2     1  UNL1        0.0350
     22  C         26.0840  -20.2820  -11.1080 C.2     1  UNL1        0.0290
     23  C         26.8730  -19.4900  -11.9420 C.2     1  UNL1        0.0030
     24  C         26.9380  -19.7670  -13.3050 C.2     1  UNL1        0.0170
     25  C         26.2140  -20.8410  -13.8390 C.2     1  UNL1        0.0340
     26  C         25.4390  -21.6460  -12.9910 C.2     1  UNL1        0.0460
     27  C         26.3230  -21.1060  -15.3010 C.2     1  UNL1        0.2520
     28  O         27.0590  -20.4100  -15.9920 O.2     1  UNL1       -0.2680
     29  N         25.5390  -22.1300  -15.8020 N.am    1  UNL1       -0.3520
     30  H         24.8560  -22.5750  -15.2040 H       1  UNL1        0.1630
     31  C         25.5480  -22.4850  -17.1850 C.3     1  UNL1        0.0840
     32  C         24.6060  -21.8250  -18.1530 C.3     1  UNL1        0.0270
     33  C         24.4040  -23.2630  -17.7740 C.3     1  UNL1        0.0270
@<TRIPOS>BOND
     1    32    33    1
     2    32    31    1
     3    33    31    1
     4    31    29    1
     5    28    27    2
     6    29    27   am
     7    29    30    1
     8    27    25    1
     9    25    24    2
    10    25    26    1
    11    24    23    1
    12    26    21    2
    13    23    22    2
    14     3     2    2
    15    21    22    1
    16    21     1    1
    17     2     1   am
    18     2     5    1
    19    13    12    1
    20    13    14    2
    21     1     4    1
    22    12    11    2
    23    10     5    1
    24    10     9    1
    25    14    15    1
    26     5     6    1
    27    11     9    1
    28    11    17    1
    29     9     7   am
    30    15    17    2
    31    15    16    1
    32    17    20    1
    33     6     7    1
    34     7     8    2
    35    16    18    2
    36    20    19    2
    37    18    19    1
