@<TRIPOS>MOLECULE
73767_out_ligand_01.pdbqt
 33 36 0 0 0
SMALL
GASTEIGER

@<TRIPOS>ATOM
      1  C         19.9850  -22.0130  -11.1350 C.2     1  UNL1        0.0320
      2  C         18.8460  -21.6460  -11.8620 C.2     1  UNL1        0.0180
      3  C         17.5790  -21.7850  -11.2880 C.2     1  UNL1        0.0190
      4  C         17.4470  -22.2730   -9.9810 C.2     1  UNL1        0.0450
      5  C         18.5840  -22.6140   -9.2400 C.2     1  UNL1       -0.0380
      6  C         19.8530  -22.4890   -9.8220 C.2     1  UNL1        0.0250
      7  C         18.4110  -23.1480   -7.8470 C.3     1  UNL1        0.0770
      8  C         17.1670  -22.5020   -7.2330 C.3     1  UNL1        0.1690
      9  O         16.0260  -22.7570   -8.0840 O.3     1  UNL1       -0.3070
     10  C         16.0880  -22.4530   -9.4050 C.2     1  UNL1        0.2940
     11  O         15.0870  -22.3580  -10.1020 O.2     1  UNL1       -0.2590
     12  C         21.3580  -21.8860  -11.7020 C.2     1  UNL1        0.2560
     13  N         22.2950  -22.7580  -11.1750 N.am    1  UNL1       -0.3230
     14  H         21.9840  -23.3920  -10.4500 H       1  UNL1        0.1690
     15  O         21.5450  -21.0360  -12.5620 O.2     1  UNL1       -0.2670
     16  C         23.6620  -22.8410  -11.5130 C.2     1  UNL1        0.0360
     17  C         24.5780  -22.9040  -10.4530 C.2     1  UNL1        0.0290
     18  C         25.9520  -23.0030  -10.6950 C.2     1  UNL1        0.0040
     19  C         26.4260  -23.0410  -12.0030 C.2     1  UNL1        0.0250
     20  C         25.5150  -22.9780  -13.0610 C.2     1  UNL1        0.0810
     21  C         24.1410  -22.8590  -12.8220 C.2     1  UNL1        0.0540
     22  S         26.1130  -22.9770  -14.7410 S.O2    1  UNL1        0.2600
     23  O         26.4210  -24.3490  -15.0880 O.2     1  UNL1       -0.2000
     24  O         27.1200  -21.9430  -14.8420 O.2     1  UNL1       -0.2000
     25  N         24.7490  -22.5060  -15.6430 N.3     1  UNL1       -0.3150
     26  C         24.3000  -23.4150  -16.7120 C.3     1  UNL1        0.1620
     27  C         24.6590  -21.0830  -16.0120 C.3     1  UNL1        0.1620
     28  C         16.8020  -22.9560   -5.8280 C.2     1  UNL1       -0.0290
     29  C         15.4810  -23.1640   -5.3990 C.2     1  UNL1        0.0100
     30  C         15.2110  -23.6040   -4.0990 C.2     1  UNL1        0.0010
     31  C         16.2540  -23.8440   -3.2080 C.2     1  UNL1        0.0000
     32  C         17.5700  -23.6450   -3.6150 C.2     1  UNL1        0.0010
     33  C         17.8400  -23.2070   -4.9130 C.2     1  UNL1        0.0100
@<TRIPOS>BOND
     1    26    25    1
     2    27    25    1
     3    25    22    1
     4    23    22    2
     5    24    22    2
     6    22    20    1
     7    20    21    1
     8    20    19    2
     9    21    16    2
    10    15    12    2
    11    19    18    1
    12     2     3    1
    13     2     1    2
    14    12    13   am
    15    12     1    1
    16    16    13    1
    17    16    17    1
    18     3     4    2
    19    13    14    1
    20     1     6    1
    21    18    17    2
    22    11    10    2
    23     4    10    1
    24     4     5    1
    25     6     5    2
    26    10     9    1
    27     5     7    1
    28     9     8    1
    29     7     8    1
    30     8    28    1
    31    28    29    2
    32    28    33    1
    33    29    30    1
    34    33    32    2
    35    30    31    2
    36    32    31    1
