@<TRIPOS>MOLECULE
73778_out_ligand_01.pdbqt
 31 34 0 0 0
SMALL
GASTEIGER

@<TRIPOS>ATOM
      1  O         21.4170  -23.6970   -9.7870 O.2     1  UNL1       -0.2670
      2  C         21.0920  -22.7280  -10.4560 C.2     1  UNL1        0.2560
      3  N         21.8930  -21.9040  -11.2210 N.am    1  UNL1       -0.3230
      4  H         21.4240  -21.1550  -11.7180 H       1  UNL1        0.1690
      5  C         23.2870  -22.0010  -11.4060 C.2     1  UNL1        0.0360
      6  C         24.2270  -21.4860  -10.5100 C.2     1  UNL1        0.0290
      7  C         25.6000  -21.6230  -10.7550 C.2     1  UNL1        0.0040
      8  C         26.0450  -22.2730  -11.9010 C.2     1  UNL1        0.0250
      9  C         25.1080  -22.7780  -12.8030 C.2     1  UNL1        0.0760
     10  C         23.7350  -22.6560  -12.5580 C.2     1  UNL1        0.0540
     11  S         25.6720  -23.6310  -14.2520 S.O2    1  UNL1        0.2410
     12  O         25.1980  -24.9970  -14.1890 O.2     1  UNL1       -0.2060
     13  O         27.0710  -23.3130  -14.4380 O.2     1  UNL1       -0.2060
     14  N         24.7390  -22.8670  -15.4550 N.3     1  UNL1       -0.2110
     15  H         23.7940  -22.7490  -15.0840 H       1  UNL1        0.1400
     16  C         24.7450  -23.5450  -16.7600 C.3     1  UNL1        0.0710
     17  C         23.4940  -23.6780  -17.5780 C.3     1  UNL1        0.0220
     18  C         24.5880  -22.7520  -18.0270 C.3     1  UNL1        0.0220
     19  C         19.6660  -22.3380  -10.4890 C.2     1  UNL1        0.0380
     20  C         19.2380  -21.5740  -11.5850 C.2     1  UNL1        0.0170
     21  C         17.9030  -21.1900  -11.6830 C.2     1  UNL1        0.0010
     22  C         17.0000  -21.5660  -10.6910 C.2     1  UNL1        0.0010
     23  C         17.4280  -22.3240   -9.5990 C.2     1  UNL1        0.0080
     24  C         18.7730  -22.7220   -9.4750 C.2     1  UNL1       -0.0380
     25  C         19.1980  -23.5440   -8.2760 C.3     1  UNL1        0.0780
     26  C         18.8560  -22.9160   -6.9440 C.2     1  UNL1       -0.0540
     27  C         17.9660  -23.5450   -6.0610 C.2     1  UNL1        0.0070
     28  C         17.6520  -22.9590   -4.8340 C.2     1  UNL1        0.0010
     29  C         18.2240  -21.7400   -4.4760 C.2     1  UNL1        0.0000
     30  C         19.1080  -21.1040   -5.3450 C.2     1  UNL1        0.0010
     31  C         19.4220  -21.6880   -6.5730 C.2     1  UNL1        0.0070
@<TRIPOS>BOND
     1    18    17    1
     2    18    16    1
     3    17    16    1
     4    16    14    1
     5    14    15    1
     6    14    11    1
     7    13    11    2
     8    11    12    2
     9    11     9    1
    10     9    10    1
    11     9     8    2
    12    10     5    2
    13     8     7    1
    14     4     3    1
    15    21    20    1
    16    21    22    2
    17    20    19    2
    18     5     3    1
    19     5     6    1
    20     3     2   am
    21     7     6    2
    22    22    23    1
    23    19     2    1
    24    19    24    1
    25     2     1    2
    26    23    24    2
    27    24    25    1
    28    25    26    1
    29    26    31    2
    30    26    27    1
    31    31    30    1
    32    27    28    2
    33    30    29    2
    34    28    29    1
