@<TRIPOS>MOLECULE
7378_out_ligand_01.pdbqt
 39 42 0 0 0
SMALL
GASTEIGER

@<TRIPOS>ATOM
      1  N         23.6550  -23.4330  -11.4570 N.pl3   1  UNL1       -0.1790
      2  H         22.7350  -23.0890  -11.7830 H       1  UNL1        0.1460
      3  S         23.7590  -22.8850   -9.8320 S.O2    1  UNL1        0.2720
      4  O         24.8090  -23.6230   -9.1580 O.2     1  UNL1       -0.2030
      5  O         23.7830  -21.4360   -9.8860 O.2     1  UNL1       -0.2030
      6  C         22.2510  -23.2990   -9.0090 C.ar    1  UNL1        0.2330
      7  N         21.5740  -24.4240   -9.1300 N.ar    1  UNL1       -0.1270
      8  N         20.4170  -24.3940   -8.3740 N.ar    1  UNL1       -0.1220
      9  C         20.2720  -23.2520   -7.7360 C.ar    1  UNL1        0.1970
     10  S         21.5200  -22.1240   -8.0110 S.2     1  UNL1       -0.0150
     11  N         19.1840  -23.0060   -6.9370 N.am    1  UNL1       -0.3000
     12  C         18.1200  -23.8500   -6.7120 C.2     1  UNL1        0.2570
     13  O         17.9310  -24.9490   -7.2150 O.2     1  UNL1       -0.2670
     14  H         19.1810  -22.0750   -6.5450 H       1  UNL1        0.1710
     15  C         17.0920  -23.3190   -5.7700 C.2     1  UNL1        0.0320
     16  C         17.3560  -23.3740   -4.3970 C.2     1  UNL1        0.0170
     17  C         16.4220  -22.8820   -3.4850 C.2     1  UNL1        0.0020
     18  C         15.2260  -22.3280   -3.9410 C.2     1  UNL1        0.0070
     19  C         14.9500  -22.2580   -5.3130 C.2     1  UNL1       -0.0610
     20  C         13.6880  -21.6080   -5.8000 C.3     1  UNL1        0.0480
     21  C         15.8970  -22.7430   -6.2270 C.2     1  UNL1        0.0230
     22  C         24.7130  -22.9590  -12.3220 C.2     1  UNL1        0.0380
     23  C         26.0040  -23.4590  -12.1160 C.2     1  UNL1        0.0250
     24  C         27.0790  -22.9600  -12.8500 C.2     1  UNL1        0.0020
     25  C         26.8740  -21.9520  -13.7880 C.2     1  UNL1        0.0010
     26  C         25.5870  -21.4570  -14.0140 C.2     1  UNL1        0.0190
     27  C         24.4870  -21.9680  -13.3040 C.2     1  UNL1        0.0540
     28  C         23.0940  -21.4910  -13.5800 C.2     1  UNL1        0.2530
     29  O         22.8780  -20.7440  -14.5330 O.2     1  UNL1       -0.2680
     30  N         22.0990  -21.8640  -12.6970 N.am    1  UNL1       -0.3570
     31  H         22.3730  -22.1480  -11.7650 H       1  UNL1        0.1620
     32  C         20.7630  -21.3040  -12.8130 C.3     1  UNL1        0.1270
     33  C         20.2550  -20.7150  -11.4920 C.3     1  UNL1        0.0580
     34  C         18.8990  -21.2460  -11.0850 C.2     1  UNL1       -0.0570
     35  C         17.7610  -20.4320  -11.1630 C.2     1  UNL1        0.0070
     36  C         16.5150  -20.9180  -10.7640 C.2     1  UNL1        0.0010
     37  C         16.3930  -22.2220  -10.2870 C.2     1  UNL1        0.0000
     38  C         17.5180  -23.0430  -10.2120 C.2     1  UNL1        0.0010
     39  C         18.7650  -22.5580  -10.6090 C.2     1  UNL1        0.0070
@<TRIPOS>BOND
     1    29    28    2
     2    26    25    2
     3    26    27    1
     4    25    24    1
     5    28    27    1
     6    28    30   am
     7    27    22    2
     8    24    23    2
     9    32    30    1
    10    32    33    1
    11    30    31    1
    12    22    23    1
    13    22     1    1
    14     2     1    1
    15    33    34    1
    16     1     3    1
    17    35    34    2
    18    35    36    1
    19    34    39    1
    20    36    37    2
    21    39    38    2
    22    37    38    1
    23     5     3    2
    24     3     4    2
    25     3     6    1
    26     7     6   ar
    27     7     8   ar
    28     6    10   ar
    29     8     9   ar
    30    10     9   ar
    31     9    11    1
    32    13    12    2
    33    11    12   am
    34    11    14    1
    35    12    15    1
    36    21    15    2
    37    21    19    1
    38    20    19    1
    39    15    16    1
    40    19    18    2
    41    16    17    2
    42    18    17    1
