@<TRIPOS>MOLECULE
73797_out_ligand_01.pdbqt
 33 35 0 0 0
SMALL
GASTEIGER

@<TRIPOS>ATOM
      1  C         19.7390  -23.1010   -8.6550 C.3     1  UNL1        0.1790
      2  S         19.8410  -22.1300   -7.0880 S.3     1  UNL1       -0.0900
      3  C         18.2880  -22.6200   -6.3720 C.ar    1  UNL1        0.1110
      4  N         17.5940  -23.4770   -7.1550 N.ar    1  UNL1       -0.2450
      5  C         16.4030  -23.9450   -6.7060 C.ar    1  UNL1        0.0380
      6  C         15.6860  -24.8700   -7.6500 C.3     1  UNL1        0.0710
      7  C         15.8690  -23.5990   -5.4540 C.ar    1  UNL1       -0.0310
      8  C         16.5830  -22.6740   -4.6570 C.ar    1  UNL1       -0.0350
      9  C         14.5380  -24.1470   -5.0040 C.3     1  UNL1        0.0510
     10  C         17.8310  -22.2140   -5.1220 C.ar    1  UNL1        0.0730
     11  C         16.0350  -22.2080   -3.3310 C.3     1  UNL1        0.0500
     12  C         18.6470  -21.2930   -4.3140 C.2     1  UNL1        0.2520
     13  N         18.9590  -20.1020   -4.9050 N.am    1  UNL1       -0.3660
     14  H         19.4360  -19.4140   -4.3370 H       1  UNL1        0.1590
     15  H         18.5390  -19.7950   -5.7720 H       1  UNL1        0.1590
     16  O         19.0180  -21.5930   -3.1890 O.2     1  UNL1       -0.2680
     17  C         21.1030  -23.6370   -9.1560 C.2     1  UNL1        0.2400
     18  O         21.3570  -24.8410   -9.0780 O.2     1  UNL1       -0.2720
     19  N         21.9530  -22.6950   -9.7060 N.am    1  UNL1       -0.3260
     20  H         21.6950  -21.7270   -9.5250 H       1  UNL1        0.1690
     21  C         23.2020  -22.8980  -10.3230 C.2     1  UNL1        0.0350
     22  C         24.3910  -23.1310   -9.6260 C.2     1  UNL1        0.0320
     23  C         25.5890  -23.3280  -10.3210 C.2     1  UNL1        0.0440
     24  C         25.5950  -23.2990  -11.7080 C.2     1  UNL1        0.1160
     25  F         26.7430  -23.4890  -12.3710 F       1  UNL1       -0.2060
     26  C         24.4220  -23.0780  -12.4190 C.2     1  UNL1        0.0440
     27  C         23.2260  -22.8800  -11.7260 C.2     1  UNL1        0.0320
     28  C         19.0260  -22.2640   -9.7080 C.2     1  UNL1       -0.0350
     29  C         19.7810  -21.4830  -10.6000 C.2     1  UNL1        0.0090
     30  C         19.1560  -20.7260  -11.5920 C.2     1  UNL1        0.0010
     31  C         17.7680  -20.7450  -11.7120 C.2     1  UNL1        0.0000
     32  C         17.0050  -21.5230  -10.8450 C.2     1  UNL1        0.0010
     33  C         17.6280  -22.2830   -9.8510 C.2     1  UNL1        0.0090
@<TRIPOS>BOND
     1    26    27    1
     2    26    24    2
     3    25    24    1
     4    27    21    2
     5    31    30    2
     6    31    32    1
     7    24    23    1
     8    30    29    1
     9    32    33    2
    10    29    28    2
    11    21    19    1
    12    21    22    1
    13    23    22    2
    14    33    28    1
    15    28     1    1
    16    19    20    1
    17    19    17   am
    18    17    18    2
    19    17     1    1
    20     1     2    1
    21     6     5    1
    22     4     5   ar
    23     4     3   ar
    24     2     3    1
    25     5     7   ar
    26     3    10   ar
    27    15    13    1
    28     7     9    1
    29     7     8   ar
    30    10     8   ar
    31    10    12    1
    32    13    14    1
    33    13    12   am
    34     8    11    1
    35    12    16    2
