@<TRIPOS>MOLECULE
73805_out_ligand_01.pdbqt
 29 31 0 0 0
SMALL
GASTEIGER

@<TRIPOS>ATOM
      1  N         17.9330  -22.4670   -8.8970 N.am    1  UNL1       -0.3220
      2  C         17.5990  -21.8510  -10.0880 C.2     1  UNL1        0.2760
      3  O         16.4730  -21.5810  -10.4850 O.2     1  UNL1       -0.2660
      4  H         18.9380  -22.5860   -8.7860 H       1  UNL1        0.1690
      5  C         18.7980  -21.5310  -10.8860 C.2     1  UNL1        0.1470
      6  C         19.9880  -22.2930  -10.9880 C.2     1  UNL1        0.0710
      7  C         20.8240  -21.6010  -11.8460 C.2     1  UNL1        0.0640
      8  N         20.0980  -20.4900  -12.1960 N.pl3   1  UNL1       -0.2770
      9  N         18.8770  -20.4140  -11.6370 N.2     1  UNL1       -0.1690
     10  H         20.3880  -19.7510  -12.8290 H       1  UNL1        0.1890
     11  C         22.1930  -21.8840  -12.3030 C.2     1  UNL1        0.0140
     12  C         22.6120  -21.3220  -13.5250 C.2     1  UNL1        0.0150
     13  C         23.8950  -21.5470  -14.0310 C.2     1  UNL1        0.0010
     14  C         24.7920  -22.3410  -13.3260 C.2     1  UNL1        0.0020
     15  C         24.4040  -22.9090  -12.1140 C.2     1  UNL1        0.0250
     16  C         23.1180  -22.6850  -11.6030 C.2     1  UNL1        0.0460
     17 CL         22.7630  -23.4250  -10.0770 Cl      1  UNL1       -0.0830
     18  C         17.0880  -22.9230   -7.8740 C.2     1  UNL1        0.0360
     19  C         16.9810  -22.3180   -6.6180 C.2     1  UNL1        0.0490
     20  C         16.1090  -22.8380   -5.6430 C.2     1  UNL1        0.0720
     21  C         15.3480  -23.9680   -5.9470 C.2     1  UNL1        0.1320
     22  C         15.4460  -24.5780   -7.1940 C.2     1  UNL1        0.0450
     23  F         14.5020  -24.5030   -5.0540 F       1  UNL1       -0.2050
     24  C         16.3140  -24.0570   -8.1540 C.2     1  UNL1        0.0320
     25  C         16.0340  -22.1540   -4.3240 C.2     1  UNL1        0.2520
     26  N         17.1940  -21.7150   -3.7550 N.am    1  UNL1       -0.3660
     27  H         18.1030  -21.8330   -4.1830 H       1  UNL1        0.1590
     28  H         17.1330  -21.2500   -2.8580 H       1  UNL1        0.1590
     29  O         14.9660  -21.9790   -3.7490 O.2     1  UNL1       -0.2680
@<TRIPOS>BOND
     1    13    12    1
     2    13    14    2
     3    12    11    2
     4    14    15    1
     5    10     8    1
     6    11     7    1
     7    11    16    1
     8     8     7    1
     9     8     9    1
    10    15    16    2
    11     7     6    2
    12     9     5    2
    13    16    17    1
    14     6     5    1
    15     5     2    1
    16     3     2    2
    17     2     1   am
    18     1     4    1
    19     1    18    1
    20    24    18    2
    21    24    22    1
    22    18    19    1
    23    22    21    2
    24    19    20    2
    25    21    20    1
    26    21    23    1
    27    20    25    1
    28    25    26   am
    29    25    29    2
    30    27    26    1
    31    26    28    1
