@<TRIPOS>MOLECULE
73836_out_ligand_01.pdbqt
 31 33 0 0 0
SMALL
GASTEIGER

@<TRIPOS>ATOM
      1  N         21.9490  -22.9560   -9.2230 N.am    1  UNL1       -0.3480
      2  C         22.6830  -21.9750   -8.4320 C.3     1  UNL1        0.1530
      3  C         21.0330  -23.7900   -8.5670 C.2     1  UNL1        0.2530
      4  O         20.9940  -25.0100   -8.6930 O.2     1  UNL1       -0.2670
      5  C         22.7000  -23.5330  -10.3420 C.3     1  UNL1        0.1680
      6  C         22.7360  -22.6530  -11.5850 C.2     1  UNL1        0.0040
      7  C         23.9350  -22.4910  -12.3540 C.2     1  UNL1       -0.0150
      8  C         25.1590  -23.1540  -12.0830 C.2     1  UNL1        0.0130
      9  C         23.9170  -21.6190  -13.4700 C.2     1  UNL1       -0.0250
     10  C         26.3070  -22.9440  -12.8510 C.2     1  UNL1        0.0010
     11  C         26.2690  -22.0680  -13.9250 C.2     1  UNL1        0.0010
     12  C         25.0790  -21.4150  -14.2340 C.2     1  UNL1        0.0120
     13  C         22.7340  -20.9600  -13.8210 C.2     1  UNL1        0.0150
     14  C         21.5620  -21.1530  -13.0950 C.2     1  UNL1        0.0380
     15  C         21.5520  -21.9930  -11.9840 C.2     1  UNL1        0.0770
     16  O         20.4230  -22.2730  -11.2580 O.2     1  UNL1       -0.3510
     17  C         19.4460  -21.2370  -11.1340 C.3     1  UNL1        0.1750
     18  C         18.0910  -21.8330  -11.5040 C.3     1  UNL1        0.0220
     19  C         17.1310  -21.8500  -10.3260 C.3     1  UNL1        0.0070
     20  C         20.0280  -23.1400   -7.6850 C.2     1  UNL1        0.0330
     21  C         20.3360  -21.9480   -7.0120 C.2     1  UNL1        0.0170
     22  C         19.3910  -21.3470   -6.1780 C.2     1  UNL1        0.0030
     23  C         18.1350  -21.9320   -6.0190 C.2     1  UNL1        0.0250
     24  C         17.8250  -23.1140   -6.7090 C.2     1  UNL1        0.0800
     25  C         18.7560  -23.7080   -7.5640 C.2     1  UNL1        0.0420
     26  S         16.2090  -23.8270   -6.5320 S.O2    1  UNL1        0.2580
     27  O         15.9500  -24.6400   -7.7040 O.2     1  UNL1       -0.2010
     28  O         16.0650  -24.3510   -5.1910 O.2     1  UNL1       -0.2010
     29  N         15.2180  -22.4770   -6.6890 N.3     1  UNL1       -0.3200
     30  C         14.4150  -22.0730   -5.5430 C.3     1  UNL1        0.1590
     31  H         14.7920  -22.4280   -7.6110 H       1  UNL1        0.1710
@<TRIPOS>BOND
     1    12    11    2
     2    12     9    1
     3    11    10    1
     4    13     9    2
     5    13    14    1
     6     9     7    1
     7    14    15    2
     8    10     8    2
     9     7     8    1
    10     7     6    2
    11    15     6    1
    12    15    16    1
    13     6     5    1
    14    18    17    1
    15    18    19    1
    16    16    17    1
    17     5     1    1
    18     1     3   am
    19     1     2    1
    20     4     3    2
    21     3    20    1
    22    27    26    2
    23    20    25    2
    24    20    21    1
    25    31    29    1
    26    25    24    1
    27    21    22    2
    28    24    26    1
    29    24    23    2
    30    29    26    1
    31    29    30    1
    32    26    28    2
    33    22    23    1
