@<TRIPOS>MOLECULE
73841_out_ligand_01.pdbqt
 30 33 0 0 0
SMALL
GASTEIGER

@<TRIPOS>ATOM
      1  C         21.7140  -23.1820   -9.5300 C.2     1  UNL1        0.2570
      2  O         22.2610  -24.1950   -9.1140 O.2     1  UNL1       -0.2670
      3  N         22.2360  -22.2230  -10.3760 N.am    1  UNL1       -0.3230
      4  H         21.6050  -21.4860  -10.6730 H       1  UNL1        0.1690
      5  C         20.3010  -22.9470   -9.1530 C.2     1  UNL1        0.0460
      6  C         19.9180  -23.3940   -7.8890 C.2     1  UNL1        0.0450
      7  C         18.5960  -23.2450   -7.5170 C.2     1  UNL1        0.0390
      8  N         17.6790  -22.6840   -8.3420 N.2     1  UNL1       -0.2520
      9  C         18.0580  -22.2240   -9.5460 C.2     1  UNL1        0.0680
     10  C         17.1000  -21.6290  -10.3550 C.2     1  UNL1        0.0320
     11  C         19.3820  -22.3150  -10.0180 C.2     1  UNL1        0.0080
     12  C         17.4110  -21.1080  -11.6130 C.2     1  UNL1        0.0020
     13  C         18.7160  -21.1710  -12.0790 C.2     1  UNL1        0.0010
     14  C         19.6970  -21.7650  -11.2890 C.2     1  UNL1        0.0150
     15  C         18.1200  -23.7210   -6.1580 C.3     1  UNL1        0.0290
     16  C         17.9690  -22.5440   -5.1930 C.3     1  UNL1        0.0160
     17  C         16.8070  -24.4940   -6.2850 C.3     1  UNL1        0.0160
     18  C         23.5390  -22.1720  -10.9110 C.2     1  UNL1        0.0350
     19  C         24.5940  -21.4650  -10.3310 C.2     1  UNL1        0.0290
     20  C         25.8630  -21.4710  -10.9170 C.2     1  UNL1        0.0030
     21  C         26.0890  -22.1750  -12.1000 C.2     1  UNL1        0.0170
     22  C         25.0360  -22.8690  -12.7050 C.2     1  UNL1        0.0340
     23  C         23.7700  -22.8740  -12.1000 C.2     1  UNL1        0.0460
     24  C         25.2120  -23.6370  -13.9680 C.2     1  UNL1        0.2520
     25  O         25.5360  -24.8180  -13.9200 O.2     1  UNL1       -0.2680
     26  N         24.9570  -22.9530  -15.1420 N.am    1  UNL1       -0.3520
     27  H         24.5420  -22.0320  -15.0980 H       1  UNL1        0.1630
     28  C         25.0290  -23.5930  -16.4180 C.3     1  UNL1        0.0840
     29  C         23.8430  -23.5890  -17.3410 C.3     1  UNL1        0.0270
     30  C         25.0600  -22.7800  -17.6840 C.3     1  UNL1        0.0270
@<TRIPOS>BOND
     1    30    29    1
     2    30    28    1
     3    29    28    1
     4    28    26    1
     5    26    27    1
     6    26    24   am
     7    24    25    2
     8    24    22    1
     9    22    21    2
    10    22    23    1
    11    21    20    1
    12    23    18    2
    13    13    12    1
    14    13    14    2
    15    12    10    2
    16    14    11    1
    17    20    19    2
    18    18     3    1
    19    18    19    1
    20     4     3    1
    21     3     1   am
    22    10     9    1
    23    11     9    1
    24    11     5    2
    25     9     8    2
    26     1     5    1
    27     1     2    2
    28     5     6    1
    29     8     7    1
    30     6     7    2
    31     7    15    1
    32    17    15    1
    33    15    16    1
