@<TRIPOS>MOLECULE
73865_out_ligand_01.pdbqt
 31 34 0 0 0
SMALL
GASTEIGER

@<TRIPOS>ATOM
      1  O         16.5530  -21.4110  -10.4700 O.2     1  UNL1       -0.2680
      2  C         17.4120  -22.2470  -10.2140 C.2     1  UNL1        0.2510
      3  N         17.1820  -23.3540   -9.4250 N.am    1  UNL1       -0.3570
      4  H         17.9640  -23.8950   -9.0820 H       1  UNL1        0.1620
      5  C         18.7990  -22.0730  -10.7260 C.2     1  UNL1        0.0320
      6  C         19.1330  -21.0950  -11.6670 C.2     1  UNL1        0.0190
      7  C         20.4530  -20.9690  -12.1180 C.2     1  UNL1        0.0300
      8  C         21.4570  -21.8090  -11.6320 C.2     1  UNL1        0.0350
      9  C         21.1220  -22.7730  -10.6710 C.2     1  UNL1        0.0300
     10  C         19.8040  -22.9030  -10.2190 C.2     1  UNL1        0.0190
     11  N         22.8080  -21.7450  -12.0290 N.am    1  UNL1       -0.3230
     12  C         23.3150  -21.4990  -13.3000 C.2     1  UNL1        0.2630
     13  O         22.6140  -21.3620  -14.2980 O.2     1  UNL1       -0.2670
     14  H         23.4840  -21.9650  -11.3110 H       1  UNL1        0.1690
     15  C         24.7770  -21.4420  -13.3470 C.2     1  UNL1        0.0720
     16  C         25.6950  -21.0540  -12.3850 C.2     1  UNL1        0.0250
     17  C         27.0440  -21.1490  -12.8370 C.2     1  UNL1        0.0090
     18  C         27.1210  -21.5980  -14.1350 C.2     1  UNL1        0.0500
     19  S         25.5760  -21.8930  -14.8030 S.3     1  UNL1       -0.0970
     20  C         15.8840  -23.5810   -8.8100 C.3     1  UNL1        0.1270
     21  C         15.9720  -24.4970   -7.5870 C.3     1  UNL1        0.0600
     22  C         16.1060  -23.7260   -6.3110 C.2     1  UNL1       -0.0290
     23  C         15.2220  -23.7280   -5.2490 C.2     1  UNL1        0.0960
     24  N         15.7140  -22.8930   -4.2820 N.pl3   1  UNL1       -0.3650
     25  C         16.9040  -22.3390   -4.6890 C.2     1  UNL1        0.0420
     26  H         15.2720  -22.7060   -3.3930 H       1  UNL1        0.1650
     27  C         17.7520  -21.4360   -4.0350 C.2     1  UNL1        0.0300
     28  C         17.1780  -22.8450   -5.9590 C.2     1  UNL1       -0.0020
     29  C         18.9150  -21.0400   -4.7020 C.2     1  UNL1        0.0020
     30  C         19.2170  -21.5290   -5.9710 C.2     1  UNL1        0.0010
     31  C         18.3590  -22.4310   -6.6100 C.2     1  UNL1        0.0140
@<TRIPOS>BOND
     1    19    18    1
     2    19    15    1
     3    13    12    2
     4    18    17    2
     5    15    12    1
     6    15    16    2
     7    12    11   am
     8    17    16    1
     9     7     6    1
    10     7     8    2
    11    11     8    1
    12    11    14    1
    13     6     5    2
    14     8     9    1
    15     5    10    1
    16     5     2    1
    17     9    10    2
    18     1     2    2
    19     2     3   am
    20     3     4    1
    21     3    20    1
    22    20    21    1
    23    21    22    1
    24    31    30    2
    25    31    28    1
    26    22    28    1
    27    22    23    2
    28    30    29    1
    29    28    25    2
    30    23    24    1
    31    29    27    2
    32    25    24    1
    33    25    27    1
    34    24    26    1
