@<TRIPOS>MOLECULE
73887_out_ligand_01.pdbqt
 32 34 0 0 0
SMALL
GASTEIGER

@<TRIPOS>ATOM
      1  C         20.6900  -21.8250  -10.8810 C.2     1  UNL1        0.2590
      2  O         21.4160  -21.7490   -9.8960 O.2     1  UNL1       -0.2670
      3  N         21.1130  -21.8780  -12.1960 N.am    1  UNL1       -0.3230
      4  H         20.3990  -22.0310  -12.9010 H       1  UNL1        0.1690
      5  C         19.2190  -21.8280  -10.6610 C.2     1  UNL1        0.0680
      6  C         18.4610  -20.9720  -11.4750 C.2     1  UNL1        0.0210
      7  C         17.0760  -20.9370  -11.3530 C.2     1  UNL1        0.0200
      8  C         16.4860  -21.7600  -10.4150 C.2     1  UNL1        0.1180
      9  N         17.1810  -22.5860   -9.6040 N.2     1  UNL1       -0.2530
     10  C         18.5380  -22.5990   -9.7130 C.2     1  UNL1        0.1130
     11  S         19.3410  -23.6970   -8.5530 S.3     1  UNL1       -0.0690
     12  C         18.8200  -22.9680   -7.0010 C.2     1  UNL1        0.0130
     13  C         17.8290  -23.5490   -6.1890 C.2     1  UNL1       -0.0450
     14  C         17.4730  -22.9060   -4.9910 C.2     1  UNL1        0.0090
     15  C         17.1590  -24.8540   -6.5270 C.3     1  UNL1        0.0490
     16  C         18.0710  -21.7050   -4.6120 C.2     1  UNL1        0.0070
     17  C         19.0410  -21.1130   -5.4240 C.2     1  UNL1       -0.0610
     18  C         19.6460  -19.7920   -5.0510 C.3     1  UNL1        0.0480
     19  C         19.3990  -21.7450   -6.6210 C.2     1  UNL1        0.0260
     20  C         22.4390  -21.8510  -12.6720 C.2     1  UNL1        0.0360
     21  C         22.6780  -21.1130  -13.8350 C.2     1  UNL1        0.0300
     22  C         23.9590  -21.0460  -14.3890 C.2     1  UNL1        0.0100
     23  C         25.0410  -21.7120  -13.7930 C.2     1  UNL1       -0.0390
     24  C         26.3930  -21.5880  -14.4380 C.3     1  UNL1        0.0500
     25  C         24.8020  -22.4250  -12.6030 C.2     1  UNL1        0.0820
     26  C         23.5090  -22.4970  -12.0540 C.2     1  UNL1        0.0540
     27  S         26.1150  -23.2480  -11.7170 S.O2    1  UNL1        0.2390
     28  O         26.4590  -24.4730  -12.3980 O.2     1  UNL1       -0.2060
     29  O         27.1210  -22.2770  -11.3530 O.2     1  UNL1       -0.2060
     30  N         25.3480  -23.6470  -10.2700 N.3     1  UNL1       -0.2250
     31  H         24.3860  -23.9580  -10.4050 H       1  UNL1        0.1360
     32  H         25.3890  -22.8310   -9.6550 H       1  UNL1        0.1360
@<TRIPOS>BOND
     1    24    23    1
     2    22    21    1
     3    22    23    2
     4    21    20    2
     5    23    25    1
     6     4     3    1
     7    20     3    1
     8    20    26    1
     9    25    26    2
    10    25    27    1
    11    28    27    2
    12     3     1   am
    13    27    29    2
    14    27    30    1
    15     6     7    1
    16     6     5    2
    17     7     8    2
    18     1     5    1
    19     1     2    2
    20     5    10    1
    21     8     9    1
    22    31    30    1
    23    30    32    1
    24    10     9    2
    25    10    11    1
    26    11    12    1
    27    12    19    2
    28    12    13    1
    29    19    17    1
    30    15    13    1
    31    13    14    2
    32    17    18    1
    33    17    16    2
    34    14    16    1
