@<TRIPOS>MOLECULE
73889_out_ligand_01.pdbqt
 35 38 0 0 0
SMALL
GASTEIGER

@<TRIPOS>ATOM
      1  C         19.7590  -23.0380   -8.9300 C.2     1  UNL1        0.0320
      2  C         20.8110  -23.8330   -8.4590 C.2     1  UNL1        0.0190
      3  C         21.9880  -23.9440   -9.2050 C.2     1  UNL1        0.0310
      4  C         22.1190  -23.2610  -10.4140 C.2     1  UNL1        0.0420
      5  C         21.0770  -22.4600  -10.8820 C.2     1  UNL1        0.0310
      6  C         19.9020  -22.3430  -10.1370 C.2     1  UNL1        0.0190
      7  N         23.3270  -23.3300  -11.1600 N.pl3   1  UNL1       -0.2810
      8  H         23.2630  -23.5490  -12.1530 H       1  UNL1        0.1790
      9  S         24.5740  -22.2400  -10.8270 S.O2    1  UNL1        0.2630
     10  O         24.0990  -21.2200   -9.9180 O.2     1  UNL1       -0.2000
     11  O         25.7350  -23.0460  -10.5170 O.2     1  UNL1       -0.2000
     12  C         24.8690  -21.4720  -12.4080 C.2     1  UNL1        0.0820
     13  C         25.7730  -20.3840  -12.4940 C.2     1  UNL1        0.0280
     14  C         26.0320  -19.7670  -13.7230 C.2     1  UNL1        0.0330
     15  C         25.3840  -20.2840  -14.8190 C.ar    1  UNL1        0.0630
     16  N         25.4460  -19.8950  -16.1530 N.ar    1  UNL1       -0.3070
     17  C         24.5100  -21.3690  -14.7310 C.ar    1  UNL1        0.0640
     18  C         24.6190  -20.7380  -16.9100 C.ar    1  UNL1        0.3250
     19  H         25.9900  -19.1440  -16.5470 H       1  UNL1        0.1700
     20  O         24.4360  -20.6920  -18.1130 O.2     1  UNL1       -0.2470
     21  N         24.0420  -21.6470  -16.0100 N.ar    1  UNL1       -0.3060
     22  H         23.4090  -22.3800  -16.2880 H       1  UNL1        0.1700
     23  C         24.2300  -21.9940  -13.5420 C.2     1  UNL1        0.0570
     24  C         18.4890  -22.8820   -8.1670 C.2     1  UNL1        0.2570
     25  O         17.5240  -22.4160   -8.7590 O.2     1  UNL1       -0.2670
     26  N         18.5480  -23.3310   -6.8680 N.am    1  UNL1       -0.3050
     27  H         19.3760  -23.8040   -6.5320 H       1  UNL1        0.1700
     28  C         17.5080  -23.2910   -5.9290 C.2     1  UNL1        0.1630
     29  N         16.4950  -24.1750   -5.9640 N.2     1  UNL1       -0.2410
     30  C         15.5330  -24.0610   -5.0210 C.2     1  UNL1        0.1190
     31  C         15.5310  -23.0900   -4.0330 C.2     1  UNL1        0.0220
     32  C         16.5780  -22.1750   -4.0040 C.2     1  UNL1        0.0420
     33  C         17.5780  -22.2790   -4.9630 C.2     1  UNL1        0.1110
     34  O         18.6330  -21.4010   -4.9780 O.2     1  UNL1       -0.3570
     35  H         18.9300  -21.2950   -5.8980 H       1  UNL1        0.2180
@<TRIPOS>BOND
     1    20    18    2
     2    18    16   ar
     3    18    21   ar
     4    19    16    1
     5    22    21    1
     6    16    15   ar
     7    21    17   ar
     8    15    17   ar
     9    15    14    1
    10    17    23    1
    11    14    13    2
    12    23    12    2
    13    13    12    1
    14    12     9    1
    15     8     7    1
    16     7     9    1
    17     7     4    1
    18     5     4    2
    19     5     6    1
    20     9    11    2
    21     9    10    2
    22     4     3    1
    23     6     1    2
    24     3     2    2
    25     1     2    1
    26     1    24    1
    27    25    24    2
    28    24    26   am
    29    26    27    1
    30    26    28    1
    31    29    28    2
    32    29    30    1
    33    28    33    1
    34    35    34    1
    35    30    31    2
    36    34    33    1
    37    33    32    2
    38    31    32    1
