@<TRIPOS>MOLECULE
73883_out_ligand_01.pdbqt
 32 35 0 0 0
SMALL
GASTEIGER

@<TRIPOS>ATOM
      1  C         18.6620  -22.5590   -9.4380 C.2     1  UNL1        0.0340
      2  C         17.7910  -21.7870  -10.2150 C.2     1  UNL1        0.0170
      3  C         18.2490  -21.2180  -11.4020 C.2     1  UNL1        0.0030
      4  C         19.5720  -21.4090  -11.8130 C.2     1  UNL1        0.0290
      5  C         20.4560  -22.1630  -11.0390 C.2     1  UNL1        0.0350
      6  C         19.9920  -22.7320   -9.8470 C.2     1  UNL1        0.0460
      7  N         21.8070  -22.3870  -11.3760 N.am    1  UNL1       -0.3230
      8  C         22.9240  -21.8470  -10.7680 C.2     1  UNL1        0.2570
      9  O         22.9500  -21.0320   -9.8550 O.2     1  UNL1       -0.2670
     10  H         21.9660  -22.9900  -12.1750 H       1  UNL1        0.1690
     11  C         24.1970  -22.3290  -11.3770 C.2     1  UNL1        0.0500
     12  C         25.0550  -22.9620  -10.5590 C.2     1  UNL1        0.0920
     13  C         26.3570  -23.4570  -11.0490 C.2     1  UNL1        0.2460
     14  O         27.1190  -24.0540  -10.2980 O.2     1  UNL1       -0.2680
     15  N         26.6540  -23.2250  -12.3610 N.am    1  UNL1       -0.3230
     16  C         25.8020  -22.5480  -13.2420 C.2     1  UNL1        0.0460
     17  H         27.5520  -23.5650  -12.6790 H       1  UNL1        0.1690
     18  C         26.2020  -22.3540  -14.5650 C.2     1  UNL1        0.0300
     19  C         24.5620  -22.0780  -12.7810 C.2     1  UNL1        0.0060
     20  C         25.3580  -21.6820  -15.4480 C.2     1  UNL1        0.0020
     21  C         24.1230  -21.2080  -15.0080 C.2     1  UNL1        0.0010
     22  C         23.7250  -21.4050  -13.6820 C.2     1  UNL1        0.0150
     23  C         18.2320  -23.1930   -8.1610 C.2     1  UNL1        0.2520
     24  O         18.6580  -24.3010   -7.8560 O.2     1  UNL1       -0.2680
     25  N         17.3250  -22.4840   -7.3980 N.am    1  UNL1       -0.3520
     26  H         16.8290  -21.7220   -7.8380 H       1  UNL1        0.1630
     27  C         16.7340  -23.0610   -6.1980 C.3     1  UNL1        0.0840
     28  C         15.2160  -22.8570   -6.1750 C.3     1  UNL1        0.0250
     29  C         14.5670  -23.5410   -4.9690 C.3     1  UNL1        0.0020
     30  C         15.4940  -23.6580   -3.7580 C.3     1  UNL1        0.0000
     31  C         16.4940  -22.5120   -3.7000 C.3     1  UNL1        0.0020
     32  C         17.3910  -22.4690   -4.9400 C.3     1  UNL1        0.0250
@<TRIPOS>BOND
     1    20    21    2
     2    20    18    1
     3    21    22    1
     4    18    16    2
     5    22    19    2
     6    16    19    1
     7    16    15    1
     8    19    11    1
     9    17    15    1
    10    15    13   am
    11    10     7    1
    12     4     3    2
    13     4     5    1
    14     3     2    1
    15    11     8    1
    16    11    12    2
    17     7     5    1
    18     7     8   am
    19    13    12    1
    20    13    14    2
    21     5     6    2
    22     8     9    2
    23     2     1    2
    24     6     1    1
    25     1    23    1
    26    23    24    2
    27    23    25   am
    28    26    25    1
    29    25    27    1
    30    27    28    1
    31    27    32    1
    32    28    29    1
    33    29    30    1
    34    32    31    1
    35    30    31    1
