@<TRIPOS>MOLECULE
73884_out_ligand_01.pdbqt
 36 39 0 0 0
SMALL
GASTEIGER

@<TRIPOS>ATOM
      1  C         18.6080  -22.5900   -6.6230 C.2     1  UNL1        0.0800
      2  C         18.9660  -21.4760   -5.8570 C.2     1  UNL1        0.0250
      3  C         20.2250  -20.9010   -6.0290 C.2     1  UNL1        0.0030
      4  C         21.1130  -21.4330   -6.9660 C.2     1  UNL1        0.0170
      5  C         20.7370  -22.5290   -7.7550 C.2     1  UNL1        0.0330
      6  C         19.4810  -23.1170   -7.5810 C.2     1  UNL1        0.0420
      7  C         21.7130  -23.0730   -8.7390 C.2     1  UNL1        0.2560
      8  O         21.8090  -24.2890   -8.8490 O.2     1  UNL1       -0.2670
      9  N         22.4570  -22.1140   -9.4020 N.am    1  UNL1       -0.3230
     10  H         22.3970  -21.1650   -9.0530 H       1  UNL1        0.1690
     11  C         23.3840  -22.3260  -10.4430 C.2     1  UNL1        0.0350
     12  C         24.6210  -22.8840  -10.0910 C.2     1  UNL1        0.0290
     13  C         25.6050  -23.1130  -11.0580 C.2     1  UNL1        0.0030
     14  C         25.3610  -22.7850  -12.3880 C.2     1  UNL1        0.0170
     15  C         24.1270  -22.2300  -12.7490 C.2     1  UNL1        0.0340
     16  C         23.1450  -21.9900  -11.7770 C.2     1  UNL1        0.0460
     17  C         23.8440  -21.8500  -14.1580 C.2     1  UNL1        0.2520
     18  O         22.9100  -21.0990  -14.4200 O.2     1  UNL1       -0.2680
     19  N         24.6790  -22.4170  -15.1040 N.am    1  UNL1       -0.3520
     20  H         25.3150  -23.1500  -14.8180 H       1  UNL1        0.1630
     21  C         24.5150  -22.1740  -16.5030 C.3     1  UNL1        0.0840
     22  C         25.5970  -22.5580  -17.4730 C.3     1  UNL1        0.0270
     23  C         24.3030  -23.3170  -17.4590 C.3     1  UNL1        0.0270
     24  S         17.0310  -23.3710   -6.3860 S.O2    1  UNL1        0.2590
     25  O         17.2260  -24.8040   -6.3920 O.2     1  UNL1       -0.2010
     26  O         16.3850  -22.6880   -5.2870 O.2     1  UNL1       -0.2010
     27  N         16.2000  -22.9600   -7.7670 N.3     1  UNL1       -0.3070
     28  H         15.7280  -22.0610   -7.7700 H       1  UNL1        0.1730
     29  C         16.4580  -23.6430   -9.0360 C.3     1  UNL1        0.1220
     30  C         15.1240  -24.1600   -9.5910 C.3     1  UNL1        0.0380
     31  C         17.1730  -22.7050   -9.9950 C.2     1  UNL1       -0.0350
     32  C         18.4600  -23.0270  -10.4550 C.2     1  UNL1        0.0090
     33  C         19.1520  -22.1580  -11.3020 C.2     1  UNL1        0.0010
     34  C         18.5690  -20.9570  -11.7040 C.2     1  UNL1        0.0000
     35  C         17.2960  -20.6180  -11.2530 C.2     1  UNL1        0.0010
     36  C         16.6030  -21.4830  -10.4000 C.2     1  UNL1        0.0090
@<TRIPOS>BOND
     1    22    23    1
     2    22    21    1
     3    23    21    1
     4    21    19    1
     5    19    20    1
     6    19    17   am
     7    18    17    2
     8    17    15    1
     9    15    14    2
    10    15    16    1
    11    14    13    1
    12    16    11    2
    13    34    33    2
    14    34    35    1
    15    33    32    1
    16    35    36    2
    17    13    12    2
    18    32    31    2
    19    11    12    1
    20    11     9    1
    21    36    31    1
    22    31    29    1
    23    30    29    1
    24     9    10    1
    25     9     7   am
    26    29    27    1
    27     8     7    2
    28     7     5    1
    29    28    27    1
    30    27    24    1
    31     5     6    1
    32     5     4    2
    33     6     1    2
    34     4     3    1
    35     1    24    1
    36     1     2    1
    37    25    24    2
    38    24    26    2
    39     3     2    2
