@<TRIPOS>MOLECULE
73899_out_ligand_01.pdbqt
 33 36 0 0 0
SMALL
GASTEIGER

@<TRIPOS>ATOM
      1  C         18.3580  -22.7040   -9.5810 C.2     1  UNL1        0.0340
      2  C         17.3310  -21.8680  -10.0290 C.2     1  UNL1        0.0170
      3  C         17.5340  -21.0730  -11.1560 C.2     1  UNL1        0.0030
      4  C         18.7580  -21.1010  -11.8310 C.2     1  UNL1        0.0290
      5  C         19.7970  -21.9190  -11.3830 C.2     1  UNL1        0.0350
      6  C         19.5900  -22.7160  -10.2520 C.2     1  UNL1        0.0460
      7  N         21.0650  -21.9910  -11.9960 N.am    1  UNL1       -0.3230
      8  C         22.2900  -21.6990  -11.4300 C.2     1  UNL1        0.2570
      9  O         22.5070  -21.2660  -10.3060 O.2     1  UNL1       -0.2670
     10  H         21.0700  -22.2800  -12.9680 H       1  UNL1        0.1690
     11  C         23.4180  -21.9190  -12.3790 C.2     1  UNL1        0.0500
     12  C         23.1980  -21.4740  -13.6250 C.2     1  UNL1        0.0920
     13  C         24.1900  -21.6880  -14.6980 C.2     1  UNL1        0.2460
     14  O         23.9820  -21.2840  -15.8360 O.2     1  UNL1       -0.2680
     15  N         25.3250  -22.3700  -14.3630 N.am    1  UNL1       -0.3230
     16  C         25.6080  -22.8230  -13.0690 C.2     1  UNL1        0.0460
     17  H         25.9930  -22.5060  -15.1100 H       1  UNL1        0.1690
     18  C         26.8170  -23.4740  -12.8220 C.2     1  UNL1        0.0300
     19  C         24.6810  -22.5980  -12.0380 C.2     1  UNL1        0.0060
     20  C         27.1210  -23.8960  -11.5290 C.2     1  UNL1        0.0020
     21  C         26.2230  -23.6570  -10.4890 C.2     1  UNL1        0.0010
     22  C         25.0120  -23.0060  -10.7400 C.2     1  UNL1        0.0150
     23  C         18.2090  -23.5710   -8.3800 C.2     1  UNL1        0.2520
     24  O         19.0740  -24.3990   -8.1190 O.2     1  UNL1       -0.2680
     25  N         17.0590  -23.3980   -7.6370 N.am    1  UNL1       -0.3520
     26  H         16.3670  -22.7330   -7.9470 H       1  UNL1        0.1630
     27  C         16.8240  -24.1320   -6.3950 C.3     1  UNL1        0.0840
     28  C         15.3360  -24.1200   -6.0040 C.3     1  UNL1        0.0250
     29  C         14.7290  -22.7440   -5.7340 C.3     1  UNL1        0.0020
     30  C         14.9210  -22.2110   -4.3190 C.3     1  UNL1        0.0000
     31  C         16.2950  -22.3920   -3.6850 C.3     1  UNL1        0.0000
     32  C         17.4760  -22.3210   -4.6480 C.3     1  UNL1        0.0020
     33  C         17.7860  -23.6740   -5.2910 C.3     1  UNL1        0.0250
@<TRIPOS>BOND
     1    14    13    2
     2    17    15    1
     3    13    15   am
     4    13    12    1
     5    15    16    1
     6    12    11    2
     7    16    18    2
     8    16    19    1
     9    10     7    1
    10    18    20    1
    11    11    19    1
    12    11     8    1
    13    19    22    2
    14     7     8   am
    15     7     5    1
    16     4     5    2
    17     4     3    1
    18    20    21    2
    19     8     9    2
    20     5     6    1
    21     3     2    2
    22    22    21    1
    23     6     1    2
    24     2     1    1
    25     1    23    1
    26    23    24    2
    27    23    25   am
    28    26    25    1
    29    25    27    1
    30    27    28    1
    31    27    33    1
    32    28    29    1
    33    29    30    1
    34    33    32    1
    35    32    31    1
    36    30    31    1
