@<TRIPOS>MOLECULE
738_out_ligand_01.pdbqt
 36 38 0 0 0
SMALL
GASTEIGER

@<TRIPOS>ATOM
      1  C         17.3520  -22.8980   -9.1060 C.2     1  UNL1        0.0810
      2  C         18.7500  -23.0300   -9.1860 C.2     1  UNL1        0.0420
      3  C         19.4500  -22.4880  -10.2650 C.2     1  UNL1        0.0330
      4  C         18.7540  -21.8270  -11.2810 C.2     1  UNL1        0.0170
      5  C         17.3660  -21.6930  -11.1990 C.2     1  UNL1        0.0090
      6  C         16.6410  -22.2180  -10.1130 C.2     1  UNL1       -0.0390
      7  C         15.1500  -22.0290  -10.1050 C.3     1  UNL1        0.0500
      8  C         20.9270  -22.6680  -10.3220 C.2     1  UNL1        0.2560
      9  O         21.4310  -23.5270   -9.6110 O.2     1  UNL1       -0.2670
     10  N         21.5840  -21.7960  -11.1710 N.am    1  UNL1       -0.3230
     11  H         21.0330  -21.0500  -11.5760 H       1  UNL1        0.1690
     12  C         22.9610  -21.7820  -11.4780 C.2     1  UNL1        0.0360
     13  C         23.9750  -21.8080  -10.5170 C.2     1  UNL1        0.0290
     14  C         25.3210  -21.8260  -10.8960 C.2     1  UNL1        0.0040
     15  C         25.6700  -21.8070  -12.2440 C.2     1  UNL1        0.0250
     16  C         24.6620  -21.7530  -13.2050 C.2     1  UNL1        0.0810
     17  C         23.3130  -21.7620  -12.8320 C.2     1  UNL1        0.0540
     18  S         25.0900  -21.7550  -14.9330 S.O2    1  UNL1        0.2600
     19  O         26.5110  -21.4960  -15.0220 O.2     1  UNL1       -0.2000
     20  O         24.1340  -20.9090  -15.6170 O.2     1  UNL1       -0.2000
     21  N         24.8120  -23.3670  -15.4000 N.3     1  UNL1       -0.3150
     22  C         25.7570  -24.3800  -14.9010 C.3     1  UNL1        0.1620
     23  C         24.3980  -23.5970  -16.7950 C.3     1  UNL1        0.1620
     24  S         16.5860  -23.6270   -7.6630 S.O2    1  UNL1        0.2460
     25  O         16.0030  -24.9100   -7.9860 O.2     1  UNL1       -0.2060
     26  O         15.7740  -22.5850   -7.0660 O.2     1  UNL1       -0.2060
     27  N         17.9130  -23.8480   -6.6290 N.pl3   1  UNL1       -0.1790
     28  H         18.7460  -23.9960   -7.2040 H       1  UNL1        0.1460
     29  C         18.0960  -22.8570   -5.6120 C.2     1  UNL1        0.0560
     30  C         18.8390  -21.7100   -5.8850 C.2     1  UNL1        0.0270
     31  C         19.0700  -20.7790   -4.8730 C.2     1  UNL1        0.0020
     32  C         18.5600  -20.9980   -3.5920 C.2     1  UNL1        0.0030
     33  C         17.8220  -22.1520   -3.3140 C.2     1  UNL1        0.0380
     34  C         17.6040  -23.0940   -4.3200 C.2     1  UNL1        0.0900
     35  O         16.8690  -24.2390   -4.1340 O.2     1  UNL1       -0.3540
     36  C         15.4960  -23.9910   -3.8390 C.3     1  UNL1        0.2100
@<TRIPOS>BOND
     1    23    21    1
     2    20    18    2
     3    21    18    1
     4    21    22    1
     5    19    18    2
     6    18    16    1
     7    16    17    1
     8    16    15    2
     9    17    12    2
    10    15    14    1
    11    11    10    1
    12    12    10    1
    13    12    13    1
    14     4     5    2
    15     4     3    1
    16     5     6    1
    17    10     8   am
    18    14    13    2
    19     8     3    1
    20     8     9    2
    21     3     2    2
    22     6     7    1
    23     6     1    2
    24     2     1    1
    25     1    24    1
    26    25    24    2
    27    24    26    2
    28    24    27    1
    29    28    27    1
    30    27    29    1
    31    30    29    2
    32    30    31    1
    33    29    34    1
    34    31    32    2
    35    34    35    1
    36    34    33    2
    37    35    36    1
    38    32    33    1
