@<TRIPOS>MOLECULE
73911_out_ligand_01.pdbqt
 33 36 0 0 0
SMALL
GASTEIGER

@<TRIPOS>ATOM
      1  C         21.2830  -23.2000   -9.9390 C.2     1  UNL1        0.2560
      2  O         21.8690  -24.0670   -9.3050 O.2     1  UNL1       -0.2670
      3  N         21.8480  -22.2740  -10.7980 N.am    1  UNL1       -0.3230
      4  H         21.2630  -21.5040  -11.0960 H       1  UNL1        0.1690
      5  C         19.8120  -23.0630   -9.7490 C.2     1  UNL1        0.0330
      6  C         19.0930  -22.2550  -10.6420 C.2     1  UNL1        0.0170
      7  C         17.7130  -22.0930  -10.4960 C.2     1  UNL1        0.0030
      8  C         17.0450  -22.7250   -9.4490 C.2     1  UNL1        0.0250
      9  C         17.7700  -23.5080   -8.5450 C.2     1  UNL1        0.0800
     10  C         19.1510  -23.6860   -8.6850 C.2     1  UNL1        0.0420
     11  S         16.9070  -24.2860   -7.1990 S.O2    1  UNL1        0.2610
     12  O         17.8390  -25.1600   -6.5180 O.2     1  UNL1       -0.2000
     13  O         15.6710  -24.8000   -7.7490 O.2     1  UNL1       -0.2000
     14  N         16.5670  -22.9620   -6.1650 N.3     1  UNL1       -0.3020
     15  C         17.4160  -21.7530   -6.3660 C.3     1  UNL1        0.1360
     16  C         18.6080  -21.7470   -5.4200 C.3     1  UNL1        0.0210
     17  C         18.1880  -21.8020   -3.9550 C.3     1  UNL1        0.0040
     18  C         16.7250  -22.1910   -3.7820 C.3     1  UNL1        0.0260
     19  C         16.3160  -23.3260   -4.7310 C.3     1  UNL1        0.0920
     20  C         14.8250  -23.6100   -4.5440 C.3     1  UNL1        0.0330
     21  C         23.1950  -22.2150  -11.2160 C.2     1  UNL1        0.0350
     22  C         24.0990  -21.5630  -10.3670 C.2     1  UNL1        0.0290
     23  C         25.4500  -21.4540  -10.7050 C.2     1  UNL1        0.0030
     24  C         25.9130  -21.9970  -11.9010 C.2     1  UNL1        0.0170
     25  C         25.0160  -22.6470  -12.7580 C.2     1  UNL1        0.0340
     26  C         23.6590  -22.7460  -12.4210 C.2     1  UNL1        0.0460
     27  C         25.4730  -23.2120  -14.0530 C.2     1  UNL1        0.2520
     28  O         26.4370  -23.9670  -14.0900 O.2     1  UNL1       -0.2680
     29  N         24.7550  -22.8080  -15.1640 N.am    1  UNL1       -0.3520
     30  H         24.0820  -22.0590  -15.0640 H       1  UNL1        0.1630
     31  C         25.1060  -23.2280  -16.4830 C.3     1  UNL1        0.0840
     32  C         24.0360  -23.4780  -17.5090 C.3     1  UNL1        0.0270
     33  C         24.9490  -22.2960  -17.6530 C.3     1  UNL1        0.0270
@<TRIPOS>BOND
     1    33    32    1
     2    33    31    1
     3    32    31    1
     4    31    29    1
     5    29    30    1
     6    29    27   am
     7    28    27    2
     8    27    25    1
     9    25    26    1
    10    25    24    2
    11    26    21    2
    12    24    23    1
    13    21     3    1
    14    21    22    1
    15     4     3    1
    16     3     1   am
    17    23    22    2
    18     6     7    1
    19     6     5    2
    20     7     8    2
    21     1     5    1
    22     1     2    2
    23     5    10    1
    24     8     9    1
    25    10     9    2
    26     9    11    1
    27    13    11    2
    28    11    12    2
    29    11    14    1
    30    15    14    1
    31    15    16    1
    32    14    19    1
    33    16    17    1
    34    19    20    1
    35    19    18    1
    36    17    18    1
