@<TRIPOS>MOLECULE
73912_out_ligand_01.pdbqt
 29 31 0 0 0
SMALL
GASTEIGER

@<TRIPOS>ATOM
      1  C         20.3890  -23.5540   -9.2130 C.2     1  UNL1        0.2560
      2  O         20.8360  -24.5890   -8.7380 O.2     1  UNL1       -0.2670
      3  N         19.2340  -22.8880   -8.8410 N.am    1  UNL1       -0.3220
      4  H         18.9230  -22.1720   -9.4800 H       1  UNL1        0.1690
      5  C         18.3790  -23.1810   -7.7450 C.2     1  UNL1        0.0470
      6  C         17.4650  -24.2330   -7.8150 C.2     1  UNL1        0.0330
      7  C         16.6500  -24.5320   -6.7320 C.2     1  UNL1        0.0410
      8  C         16.7250  -23.7760   -5.5640 C.2     1  UNL1        0.1040
      9  C         17.6510  -22.7360   -5.4260 C.2     1  UNL1        0.1020
     10  N         17.7440  -22.0710   -4.2500 N.2     1  UNL1       -0.2570
     11  C         18.4870  -22.4220   -6.5320 C.2     1  UNL1        0.0220
     12  C         18.6280  -21.0630   -4.1230 C.2     1  UNL1        0.1170
     13  C         19.4630  -20.6600   -5.1350 C.2     1  UNL1        0.0200
     14  C         19.3890  -21.3440   -6.3430 C.2     1  UNL1        0.0170
     15  O         15.8580  -24.2010   -4.5830 O.2     1  UNL1       -0.2880
     16  C         14.5590  -23.6250   -4.6360 C.3     1  UNL1        0.5050
     17  F         13.7630  -24.5300   -5.2710 F       1  UNL1       -0.1840
     18  F         14.5730  -22.5230   -5.4300 F       1  UNL1       -0.1840
     19  C         21.1100  -22.9390  -10.3610 C.2     1  UNL1        0.0320
     20  C         22.4610  -23.2500  -10.5530 C.2     1  UNL1        0.0180
     21  C         23.1610  -22.6900  -11.6240 C.2     1  UNL1        0.0180
     22  C         22.5220  -21.7970  -12.4960 C.2     1  UNL1        0.0310
     23  C         21.1710  -21.4800  -12.2980 C.2     1  UNL1        0.0180
     24  C         20.4670  -22.0460  -11.2290 C.2     1  UNL1        0.0180
     25  C         23.3070  -21.2310  -13.6240 C.2     1  UNL1        0.2490
     26  N         22.6750  -20.3370  -14.4440 N.am    1  UNL1       -0.3660
     27  H         21.8370  -19.8510  -14.1600 H       1  UNL1        0.1590
     28  H         23.2720  -19.8680  -15.1140 H       1  UNL1        0.1590
     29  O         24.4810  -21.5280  -13.8030 O.2     1  UNL1       -0.2680
@<TRIPOS>BOND
     1    28    26    1
     2    26    27    1
     3    26    25   am
     4    29    25    2
     5    25    22    1
     6    22    23    2
     7    22    21    1
     8    23    24    1
     9    21    20    2
    10    24    19    2
    11    20    19    1
    12    19     1    1
    13     4     3    1
    14     1     3   am
    15     1     2    2
    16     3     5    1
    17     6     5    2
    18     6     7    1
    19     5    11    1
    20     7     8    2
    21    11    14    1
    22    11     9    2
    23    14    13    2
    24     8     9    1
    25     8    15    1
    26    18    16    1
    27     9    10    1
    28    17    16    1
    29    13    12    1
    30    16    15    1
    31    10    12    2
