@<TRIPOS>MOLECULE
73936_out_ligand_01.pdbqt
 36 38 0 0 0
SMALL
GASTEIGER

@<TRIPOS>ATOM
      1  C         17.4900  -23.3520   -9.5380 C.2     1  UNL1        0.1130
      2  C         16.1090  -23.6670   -9.6490 C.1     1  UNL1        0.1050
      3  N         14.9780  -23.9130   -9.7520 N.1     1  UNL1       -0.1910
      4  C         18.2230  -23.0300  -10.6220 C.2     1  UNL1        0.0390
      5  C         18.0650  -23.3250   -8.1630 C.2     1  UNL1        0.2660
      6  N         17.6210  -22.2480   -7.4190 N.am    1  UNL1       -0.3210
      7  H         16.9620  -21.6040   -7.8670 H       1  UNL1        0.1690
      8  O         18.8650  -24.1880   -7.8240 O.2     1  UNL1       -0.2670
      9  C         17.9590  -21.8950   -6.0880 C.2     1  UNL1        0.0490
     10  C         19.0170  -21.0210   -5.8030 C.2     1  UNL1        0.0300
     11  C         19.3160  -20.6700   -4.4820 C.2     1  UNL1        0.0020
     12  C         18.5630  -21.1890   -3.4280 C.2     1  UNL1        0.0010
     13  C         17.5110  -22.0670   -3.6910 C.2     1  UNL1        0.0170
     14  C         17.1990  -22.4260   -5.0160 C.2     1  UNL1        0.0360
     15  C         16.0490  -23.3550   -5.2740 C.2     1  UNL1        0.1580
     16  C         14.6410  -22.8110   -5.2440 C.3     1  UNL1        0.0970
     17  O         16.2590  -24.5490   -5.5070 O.2     1  UNL1       -0.2930
     18  C         19.6130  -22.5640  -10.5820 C.2     1  UNL1       -0.0340
     19  C         20.5930  -23.3130   -9.9210 C.2     1  UNL1        0.0140
     20  C         21.9210  -22.8770   -9.8860 C.2     1  UNL1        0.0390
     21  C         22.2780  -21.6820  -10.5110 C.2     1  UNL1        0.0890
     22  C         21.2980  -20.9260  -11.1620 C.2     1  UNL1        0.0390
     23  C         19.9710  -21.3630  -11.1980 C.2     1  UNL1        0.0140
     24  O         23.5420  -21.1510  -10.5510 O.2     1  UNL1       -0.2290
     25  S         24.8750  -22.0590  -10.8120 S.3     1  UNL1        0.3030
     26  O         26.0620  -21.2390  -10.6360 O.3     1  UNL1       -0.1930
     27  O         24.7260  -23.3240  -10.1200 O.3     1  UNL1       -0.1930
     28  C         24.7730  -22.4110  -12.5620 C.2     1  UNL1        0.0860
     29  C         25.2060  -23.6450  -13.0590 C.2     1  UNL1        0.0280
     30  C         25.1230  -23.9040  -14.4320 C.2     1  UNL1        0.0370
     31  C         24.6100  -22.9220  -15.2930 C.2     1  UNL1        0.1020
     32  C         24.1840  -21.6830  -14.7910 C.2     1  UNL1        0.0370
     33  C         24.2660  -21.4270  -13.4190 C.2     1  UNL1        0.0280
     34  N         24.5210  -23.1960  -16.7350 N.pl3   1  UNL1       -0.1160
     35  O         23.3920  -23.2410  -17.2460 O.2     1  UNL1       -0.5320
     36  O         25.5810  -23.3580  -17.3550 O.2     1  UNL1       -0.5320
@<TRIPOS>BOND
     1    36    34    2
     2    35    34    2
     3    34    31    1
     4    31    32    2
     5    31    30    1
     6    32    33    1
     7    30    29    2
     8    33    28    2
     9    29    28    1
    10    28    25    1
    11    23    22    1
    12    23    18    2
    13    22    21    2
    14    25    26    1
    15    25    24    1
    16    25    27    1
    17     4    18    1
    18     4     1    2
    19    18    19    1
    20    24    21    1
    21    21    20    1
    22    19    20    2
    23     3     2    3
    24     2     1    1
    25     1     5    1
    26     5     8    2
    27     5     6   am
    28     7     6    1
    29     6     9    1
    30     9    10    2
    31     9    14    1
    32    10    11    1
    33    17    15    2
    34    15    16    1
    35    15    14    1
    36    14    13    2
    37    11    12    2
    38    13    12    1
