@<TRIPOS>MOLECULE
73946_out_ligand_01.pdbqt
 35 37 0 0 0
SMALL
GASTEIGER

@<TRIPOS>ATOM
      1  C         17.6290  -23.0910   -9.4510 C.2     1  UNL1        0.1130
      2  C         16.2270  -23.2960   -9.5380 C.1     1  UNL1        0.1050
      3  N         15.0850  -23.4820   -9.6550 N.1     1  UNL1       -0.1910
      4  C         18.3660  -22.8790  -10.5630 C.2     1  UNL1        0.0390
      5  C         18.2300  -23.0890   -8.0890 C.2     1  UNL1        0.2660
      6  N         17.6680  -22.1480   -7.2550 N.am    1  UNL1       -0.3210
      7  H         16.9670  -21.5240   -7.6590 H       1  UNL1        0.1690
      8  O         19.1510  -23.8560   -7.8360 O.2     1  UNL1       -0.2670
      9  C         17.9530  -21.8900   -5.8940 C.2     1  UNL1        0.0490
     10  C         18.9120  -20.9380   -5.5130 C.2     1  UNL1        0.0300
     11  C         19.1760  -20.7010   -4.1580 C.2     1  UNL1        0.0020
     12  C         18.4950  -21.4060   -3.1740 C.2     1  UNL1        0.0010
     13  C         17.5480  -22.3730   -3.5310 C.2     1  UNL1        0.0170
     14  C         17.2670  -22.6240   -4.8880 C.2     1  UNL1        0.0360
     15  C         16.2140  -23.6450   -5.2520 C.2     1  UNL1        0.1580
     16  C         14.7490  -23.3410   -5.0000 C.3     1  UNL1        0.0970
     17  O         16.5500  -24.7130   -5.7690 O.2     1  UNL1       -0.2930
     18  C         19.8010  -22.5760  -10.6090 C.2     1  UNL1       -0.0340
     19  C         20.2790  -21.4030  -11.2130 C.2     1  UNL1        0.0140
     20  C         21.6520  -21.1430  -11.2650 C.2     1  UNL1        0.0380
     21  C         22.5400  -22.0560  -10.7080 C.2     1  UNL1        0.0790
     22  C         22.0860  -23.2470  -10.1380 C.2     1  UNL1        0.0380
     23  C         20.7130  -23.5020  -10.0860 C.2     1  UNL1        0.0140
     24  O         23.9080  -21.7840  -10.8330 O.3     1  UNL1       -0.2750
     25  C         24.5070  -22.2210  -11.9970 C.2     1  UNL1        0.3010
     26  O         24.4170  -23.3060  -12.5420 O.2     1  UNL1       -0.2590
     27  C         25.2160  -21.0680  -12.5920 C.2     1  UNL1        0.0720
     28  C         26.2300  -20.4660  -11.8280 C.2     1  UNL1        0.0200
     29  C         26.9930  -19.4190  -12.3660 C.2     1  UNL1        0.0010
     30  C         26.7480  -18.9630  -13.6640 C.2     1  UNL1        0.0020
     31  C         25.7260  -19.5360  -14.4280 C.2     1  UNL1        0.0370
     32  C         24.9590  -20.5760  -13.8770 C.2     1  UNL1        0.1190
     33  N         23.8510  -21.0940  -14.6580 N.pl3   1  UNL1       -0.1150
     34  O         24.1160  -21.9230  -15.5360 O.2     1  UNL1       -0.5320
     35  O         22.7210  -20.6540  -14.3990 O.2     1  UNL1       -0.5320
@<TRIPOS>BOND
     1    34    33    2
     2    33    35    2
     3    33    32    1
     4    31    32    1
     5    31    30    2
     6    32    27    2
     7    30    29    1
     8    27    25    1
     9    27    28    1
    10    26    25    2
    11    29    28    2
    12    25    24    1
    13    20    19    1
    14    20    21    2
    15    19    18    2
    16    24    21    1
    17    21    22    1
    18    18     4    1
    19    18    23    1
    20     4     1    2
    21    22    23    2
    22     3     2    3
    23     2     1    1
    24     1     5    1
    25     5     8    2
    26     5     6   am
    27     7     6    1
    28     6     9    1
    29     9    10    2
    30     9    14    1
    31    17    15    2
    32    10    11    1
    33    15    16    1
    34    15    14    1
    35    14    13    2
    36    11    12    2
    37    13    12    1
