@<TRIPOS>MOLECULE
7394_out_ligand_01.pdbqt
 35 38 0 0 0
SMALL
GASTEIGER

@<TRIPOS>ATOM
      1  C         18.9980  -22.4860   -6.5380 C.2     1  UNL1        0.0810
      2  C         19.9260  -22.8420   -7.5290 C.2     1  UNL1        0.0420
      3  C         21.1250  -22.1330   -7.6570 C.2     1  UNL1        0.0330
      4  C         21.3910  -21.0580   -6.8030 C.2     1  UNL1        0.0170
      5  C         20.4670  -20.7080   -5.8140 C.2     1  UNL1        0.0090
      6  C         19.2570  -21.4100   -5.6660 C.2     1  UNL1       -0.0390
      7  C         18.3190  -20.9890   -4.5680 C.3     1  UNL1        0.0500
      8  C         22.0730  -22.5300   -8.7350 C.2     1  UNL1        0.2570
      9  O         22.2700  -23.7250   -8.9100 O.2     1  UNL1       -0.2670
     10  N         22.6500  -21.4780   -9.4060 N.am    1  UNL1       -0.3000
     11  H         22.4920  -20.5290   -9.0990 H       1  UNL1        0.1710
     12  C         23.5400  -21.5610  -10.4480 C.ar    1  UNL1        0.1970
     13  N         24.8130  -21.2750  -10.2980 N.ar    1  UNL1       -0.1230
     14  N         25.5170  -21.4160  -11.4760 N.ar    1  UNL1       -0.1400
     15  C         24.7540  -21.8030  -12.4840 C.ar    1  UNL1        0.1330
     16  S         23.1060  -22.0080  -12.0280 S.2     1  UNL1       -0.0280
     17  C         25.2420  -22.0300  -13.8580 C.2     1  UNL1        0.0020
     18  C         26.5050  -22.5710  -14.1530 C.2     1  UNL1        0.0160
     19  C         26.9160  -22.7660  -15.4790 C.2     1  UNL1        0.0240
     20  C         26.0690  -22.4210  -16.5270 C.2     1  UNL1        0.0340
     21 CL         26.5740  -22.6620  -18.1530 Cl      1  UNL1       -0.0840
     22  C         24.8140  -21.8820  -16.2630 C.2     1  UNL1        0.0240
     23  C         24.4070  -21.6890  -14.9390 C.2     1  UNL1        0.0160
     24  S         17.5000  -23.4610   -6.4210 S.O2    1  UNL1        0.2460
     25  O         17.7420  -24.5300   -5.4760 O.2     1  UNL1       -0.2060
     26  O         16.3900  -22.5490   -6.2650 O.2     1  UNL1       -0.2060
     27  N         17.4770  -24.1820   -7.9690 N.pl3   1  UNL1       -0.1810
     28  H         16.7330  -24.8820   -7.9640 H       1  UNL1        0.1460
     29  C         17.2790  -23.2450   -9.0370 C.2     1  UNL1        0.0230
     30  C         16.0260  -22.6650   -9.2340 C.2     1  UNL1        0.0240
     31  C         15.8500  -21.7300  -10.2540 C.2     1  UNL1        0.0020
     32  C         16.9270  -21.3640  -11.0620 C.2     1  UNL1        0.0070
     33  C         18.1970  -21.9160  -10.8450 C.2     1  UNL1       -0.0600
     34  C         19.3550  -21.5340  -11.7190 C.3     1  UNL1        0.0480
     35  C         18.3630  -22.8650   -9.8290 C.2     1  UNL1        0.0310
@<TRIPOS>BOND
     1    21    20    1
     2    20    22    2
     3    20    19    1
     4    22    23    1
     5    19    18    2
     6    23    17    2
     7    18    17    1
     8    17    15    1
     9    15    16   ar
    10    15    14   ar
    11    16    12   ar
    12    34    33    1
    13    14    13   ar
    14    32    33    2
    15    32    31    1
    16    33    35    1
    17    12    13   ar
    18    12    10    1
    19    31    30    2
    20    35    29    2
    21    10    11    1
    22    10     8   am
    23    30    29    1
    24    29    27    1
    25     9     8    2
    26     8     3    1
    27    27    28    1
    28    27    24    1
    29     3     2    1
    30     3     4    2
    31     2     1    2
    32     4     5    1
    33     1    24    1
    34     1     6    1
    35    24    26    2
    36    24    25    2
    37     5     6    2
    38     6     7    1
