@<TRIPOS>MOLECULE
73954_out_ligand_01.pdbqt
 37 40 0 0 0
SMALL
GASTEIGER

@<TRIPOS>ATOM
      1  C         17.6370  -23.0660   -9.4510 C.2     1  UNL1        0.1130
      2  C         16.2550  -23.2810   -9.6920 C.1     1  UNL1        0.1050
      3  N         15.1280  -23.4430   -9.9130 N.1     1  UNL1       -0.1910
      4  C         18.4970  -22.8480  -10.4670 C.2     1  UNL1        0.0390
      5  C         18.1070  -23.1670   -8.0380 C.2     1  UNL1        0.2660
      6  N         17.6330  -22.1470   -7.2490 N.am    1  UNL1       -0.3210
      7  H         16.9860  -21.4880   -7.6850 H       1  UNL1        0.1690
      8  O         18.8030  -24.1170   -7.6960 O.2     1  UNL1       -0.2670
      9  C         17.9140  -21.8690   -5.8890 C.2     1  UNL1        0.0490
     10  C         19.0090  -21.0880   -5.5050 C.2     1  UNL1        0.0300
     11  C         19.2470  -20.8050   -4.1570 C.2     1  UNL1        0.0020
     12  C         18.3940  -21.2890   -3.1760 C.2     1  UNL1        0.0010
     13  C         17.2940  -22.0630   -3.5400 C.2     1  UNL1        0.0170
     14  C         17.0490  -22.3720   -4.8890 C.2     1  UNL1        0.0360
     15  C         15.8780  -23.2390   -5.2570 C.2     1  UNL1        0.1580
     16  C         14.5030  -22.6230   -5.3670 C.3     1  UNL1        0.0970
     17  O         16.0390  -24.4480   -5.4580 O.2     1  UNL1       -0.2930
     18  C         19.9480  -22.7160  -10.3200 C.2     1  UNL1       -0.0340
     19  C         20.6060  -21.5930  -10.8230 C.2     1  UNL1        0.0140
     20  C         21.9940  -21.4920  -10.7190 C.2     1  UNL1        0.0390
     21  C         22.7370  -22.5120  -10.1230 C.2     1  UNL1        0.0890
     22  C         22.0820  -23.6290   -9.6020 C.2     1  UNL1        0.0390
     23  C         20.6900  -23.7270   -9.6970 C.2     1  UNL1        0.0140
     24  O         24.0890  -22.3000  -10.1010 O.2     1  UNL1       -0.2290
     25  S         25.1000  -22.8860  -11.2390 S.3     1  UNL1        0.3030
     26  O         24.3300  -23.6230  -12.2250 O.3     1  UNL1       -0.1930
     27  O         26.2570  -23.4810  -10.5980 O.3     1  UNL1       -0.1930
     28  C         25.6790  -21.3950  -12.0270 C.2     1  UNL1        0.0870
     29  C         26.3290  -20.4090  -11.2890 C.2     1  UNL1        0.0270
     30  C         26.8030  -19.2710  -11.9410 C.2     1  UNL1        0.0140
     31  C         26.6330  -19.1110  -13.3270 C.2     1  UNL1       -0.0260
     32  C         27.1180  -17.9770  -13.9940 C.2     1  UNL1        0.0120
     33  C         25.9620  -20.1150  -14.0690 C.2     1  UNL1       -0.0250
     34  C         26.9470  -17.8310  -15.3740 C.2     1  UNL1        0.0010
     35  C         26.2910  -18.8190  -16.1020 C.2     1  UNL1        0.0010
     36  C         25.7980  -19.9530  -15.4560 C.2     1  UNL1        0.0120
     37  C         25.4830  -21.2530  -13.4060 C.2     1  UNL1        0.0380
@<TRIPOS>BOND
     1    35    36    2
     2    35    34    1
     3    36    33    1
     4    34    32    2
     5    33    37    1
     6    33    31    2
     7    32    31    1
     8    37    28    2
     9    31    30    1
    10    26    25    1
    11    28    29    1
    12    28    25    1
    13    30    29    2
    14    25    27    1
    15    25    24    1
    16    19    20    1
    17    19    18    2
    18    20    21    2
    19     4    18    1
    20     4     1    2
    21    18    23    1
    22    21    24    1
    23    21    22    1
    24     3     2    3
    25    23    22    2
    26     2     1    1
    27     1     5    1
    28     5     8    2
    29     5     6   am
    30     7     6    1
    31     6     9    1
    32     9    10    2
    33     9    14    1
    34    10    11    1
    35    17    15    2
    36    16    15    1
    37    15    14    1
    38    14    13    2
    39    11    12    2
    40    13    12    1
