@<TRIPOS>MOLECULE
7398_out_ligand_01.pdbqt
 34 36 0 0 0
SMALL
GASTEIGER

@<TRIPOS>ATOM
      1  C         17.8790  -23.5080   -8.5980 C.2     1  UNL1        0.0860
      2  C         19.2270  -23.8700   -8.4370 C.2     1  UNL1        0.0420
      3  C         20.1900  -23.4080   -9.3370 C.2     1  UNL1        0.0330
      4  C         19.8120  -22.5640  -10.3840 C.2     1  UNL1        0.0170
      5  C         18.4710  -22.2060  -10.5470 C.2     1  UNL1        0.0090
      6  C         17.4830  -22.6690   -9.6600 C.2     1  UNL1       -0.0390
      7  C         16.0580  -22.2630   -9.9230 C.3     1  UNL1        0.0500
      8  C         21.6070  -23.8270   -9.1490 C.2     1  UNL1        0.2510
      9  O         21.8680  -24.9600   -8.7650 O.2     1  UNL1       -0.2680
     10  N         22.5600  -22.8850   -9.4680 N.am    1  UNL1       -0.3530
     11  H         22.2810  -22.0760  -10.0060 H       1  UNL1        0.1630
     12  C         23.9690  -23.2070   -9.4620 C.3     1  UNL1        0.1610
     13  C         24.6300  -22.7660  -10.7440 C.2     1  UNL1       -0.0400
     14  C         26.0240  -22.7760  -10.8730 C.2     1  UNL1        0.0090
     15  C         26.6290  -22.3520  -12.0580 C.2     1  UNL1        0.0010
     16  C         25.8420  -21.9150  -13.1270 C.2     1  UNL1        0.0160
     17  C         24.4440  -21.8780  -13.0170 C.2     1  UNL1        0.0480
     18  C         23.8470  -22.3090  -11.8200 C.2     1  UNL1        0.0250
     19  C         23.5860  -21.4030  -14.1660 C.3     1  UNL1        0.4170
     20  F         23.8760  -20.1290  -14.5620 F       1  UNL1       -0.1660
     21  F         22.2530  -21.4040  -13.8750 F       1  UNL1       -0.1660
     22  F         23.7280  -22.1810  -15.2750 F       1  UNL1       -0.1660
     23  S         16.6980  -24.2150   -7.4520 S.O2    1  UNL1        0.2630
     24  O         17.4030  -25.1350   -6.5860 O.2     1  UNL1       -0.2000
     25  O         15.5520  -24.6680   -8.2140 O.2     1  UNL1       -0.2000
     26  N         16.1810  -22.8850   -6.5590 N.pl3   1  UNL1       -0.2800
     27  H         15.5590  -22.2710   -7.0680 H       1  UNL1        0.1790
     28  C         16.9880  -22.3380   -5.5190 C.2     1  UNL1        0.0480
     29  C         18.0700  -21.5120   -5.8530 C.2     1  UNL1        0.0300
     30  C         18.8900  -20.9750   -4.8580 C.2     1  UNL1        0.0020
     31  C         18.6240  -21.2530   -3.5190 C.2     1  UNL1        0.0010
     32  C         17.5440  -22.0740   -3.1770 C.2     1  UNL1        0.0090
     33  C         16.7210  -22.6380   -4.1690 C.2     1  UNL1       -0.0350
     34  C         15.5560  -23.4790   -3.7330 C.3     1  UNL1        0.0500
@<TRIPOS>BOND
     1    22    19    1
     2    20    19    1
     3    19    21    1
     4    19    17    1
     5    16    17    2
     6    16    15    1
     7    17    18    1
     8    15    14    2
     9    18    13    2
    10    14    13    1
    11    13    12    1
    12     5     4    2
    13     5     6    1
    14     4     3    1
    15    11    10    1
    16     7     6    1
    17     6     1    2
    18    10    12    1
    19    10     8   am
    20     3     8    1
    21     3     2    2
    22     8     9    2
    23     1     2    1
    24     1    23    1
    25    25    23    2
    26    23    24    2
    27    23    26    1
    28    27    26    1
    29    26    28    1
    30    29    28    2
    31    29    30    1
    32    28    33    1
    33    30    31    2
    34    33    34    1
    35    33    32    2
    36    31    32    1
