@<TRIPOS>MOLECULE
74001_out_ligand_01.pdbqt
 31 34 0 0 0
SMALL
GASTEIGER

@<TRIPOS>ATOM
      1  N         24.5770  -23.2190   -9.9440 N.1     1  UNL1       -0.1910
      2  C         24.0390  -22.7260  -10.8470 C.1     1  UNL1        0.1000
      3  C         23.3980  -22.1120  -11.9670 C.2     1  UNL1        0.0550
      4  C         22.0650  -21.9100  -12.0400 C.2     1  UNL1        0.0370
      5  C         24.2450  -21.6200  -13.0750 C.2     1  UNL1       -0.0150
      6  C         23.6890  -21.3460  -14.3350 C.2     1  UNL1        0.0140
      7  C         24.4930  -20.8820  -15.3800 C.2     1  UNL1        0.0200
      8  C         25.8570  -20.6900  -15.1710 C.2     1  UNL1        0.0110
      9 BR         26.9440  -20.0600  -16.5830 Br      1  UNL1       -0.0510
     10  C         26.4260  -20.9610  -13.9280 C.2     1  UNL1        0.0200
     11  C         25.6220  -21.4260  -12.8830 C.2     1  UNL1        0.0140
     12  C         21.0510  -22.2800  -11.1000 C.2     1  UNL1       -0.0070
     13  C         21.2050  -23.1150  -10.0180 C.2     1  UNL1        0.1040
     14  N         19.9900  -23.2270   -9.3880 N.pl3   1  UNL1       -0.3460
     15  C         19.0360  -22.4820  -10.0540 C.2     1  UNL1        0.0450
     16  C         17.6670  -22.2910   -9.8000 C.2     1  UNL1        0.0300
     17  C         19.6780  -21.8880  -11.1480 C.2     1  UNL1        0.0020
     18  C         16.9400  -21.4830  -10.6770 C.2     1  UNL1        0.0020
     19  C         17.5520  -20.8810  -11.7710 C.2     1  UNL1        0.0010
     20  C         18.9160  -21.0730  -12.0150 C.2     1  UNL1        0.0140
     21  C         19.7610  -24.0420   -8.2020 C.3     1  UNL1        0.2310
     22  C         19.0080  -23.3300   -7.0890 C.2     1  UNL1        0.2400
     23  O         19.4670  -22.2840   -6.6290 O.2     1  UNL1       -0.2710
     24  N         17.7950  -23.8970   -6.7360 N.am    1  UNL1       -0.3260
     25  H         17.5390  -24.7670   -7.1880 H       1  UNL1        0.1690
     26  C         16.8700  -23.4360   -5.7750 C.2     1  UNL1        0.0340
     27  C         17.0290  -23.5830   -4.3960 C.2     1  UNL1        0.0290
     28  C         16.0600  -23.0930   -3.5140 C.2     1  UNL1        0.0020
     29  C         14.9230  -22.4530   -4.0030 C.2     1  UNL1        0.0000
     30  C         14.7540  -22.3020   -5.3760 C.2     1  UNL1        0.0020
     31  C         15.7230  -22.7910   -6.2570 C.2     1  UNL1        0.0290
@<TRIPOS>BOND
     1     9     8    1
     2     7     8    2
     3     7     6    1
     4     8    10    1
     5     6     5    2
     6    10    11    2
     7     5    11    1
     8     5     3    1
     9     4     3    2
    10     4    12    1
    11    20    19    2
    12    20    17    1
    13     3     2    1
    14    19    18    1
    15    17    12    1
    16    17    15    2
    17    12    13    2
    18     2     1    3
    19    18    16    2
    20    15    16    1
    21    15    14    1
    22    13    14    1
    23    14    21    1
    24    21    22    1
    25    25    24    1
    26    22    24   am
    27    22    23    2
    28    24    26    1
    29    31    26    2
    30    31    30    1
    31    26    27    1
    32    30    29    2
    33    27    28    2
    34    29    28    1
