@<TRIPOS>MOLECULE
74006_out_ligand_01.pdbqt
 35 38 0 0 0
SMALL
GASTEIGER

@<TRIPOS>ATOM
      1  N         27.0570  -24.3080   -9.9230 N.1     1  UNL1       -0.1910
      2  C         26.2260  -23.6150  -10.3430 C.1     1  UNL1        0.1050
      3  C         25.1670  -22.8270  -10.8750 C.2     1  UNL1        0.1130
      4  C         23.8980  -23.2810  -10.8230 C.2     1  UNL1        0.0400
      5  C         25.5460  -21.4920  -11.4210 C.2     1  UNL1        0.2660
      6  O         25.6260  -20.5340  -10.6620 O.2     1  UNL1       -0.2670
      7  N         25.7970  -21.5030  -12.7770 N.am    1  UNL1       -0.3210
      8  H         25.6960  -22.3870  -13.2670 H       1  UNL1        0.1690
      9  C         26.1490  -20.4160  -13.6110 C.2     1  UNL1        0.0510
     10  C         26.8010  -19.2740  -13.1340 C.2     1  UNL1        0.0310
     11  C         27.1210  -18.2200  -13.9980 C.2     1  UNL1        0.0020
     12  C         26.7940  -18.2920  -15.3490 C.2     1  UNL1        0.0010
     13  C         26.1480  -19.4220  -15.8440 C.2     1  UNL1        0.0200
     14  C         25.8280  -20.4760  -14.9810 C.2     1  UNL1        0.0330
     15  I         24.8590  -22.1440  -15.8210 I       1  UNL1       -0.0420
     16  C         22.6720  -22.5850  -11.2440 C.2     1  UNL1       -0.0320
     17  C         22.5410  -22.0110  -12.5160 C.2     1  UNL1        0.0110
     18  C         21.3720  -21.3330  -12.8710 C.2     1  UNL1        0.0040
     19  C         20.3310  -21.2060  -11.9530 C.2     1  UNL1        0.0380
     20  C         20.4620  -21.7670  -10.6870 C.2     1  UNL1        0.0900
     21  C         21.6300  -22.4380  -10.3210 C.2     1  UNL1        0.0490
     22  O         19.4540  -21.5760   -9.7820 O.2     1  UNL1       -0.2290
     23  S         18.0530  -22.3910  -10.0070 S.3     1  UNL1        0.3030
     24  O         18.3410  -23.6370  -10.6940 O.3     1  UNL1       -0.1930
     25  O         17.0470  -21.4740  -10.5100 O.3     1  UNL1       -0.1930
     26  C         17.5790  -22.8060   -8.3410 C.2     1  UNL1        0.0870
     27  C         18.3740  -23.6670   -7.5840 C.2     1  UNL1        0.0270
     28  C         17.9850  -23.9880   -6.2830 C.2     1  UNL1        0.0140
     29  C         16.8040  -23.4600   -5.7340 C.2     1  UNL1       -0.0260
     30  C         16.4040  -23.7760   -4.4260 C.2     1  UNL1        0.0120
     31  C         15.9990  -22.5940   -6.5130 C.2     1  UNL1       -0.0250
     32  C         15.2270  -23.2480   -3.8930 C.2     1  UNL1        0.0010
     33  C         14.4350  -22.4000   -4.6590 C.2     1  UNL1        0.0010
     34  C         14.8170  -22.0740   -5.9620 C.2     1  UNL1        0.0120
     35  C         16.3950  -22.2750   -7.8200 C.2     1  UNL1        0.0380
@<TRIPOS>BOND
     1    13    12    2
     2    13    14    1
     3    15    14    1
     4    12    11    1
     5    14     9    2
     6    11    10    2
     7     9    10    1
     8     9     7    1
     9     8     7    1
    10    18    17    1
    11    18    19    2
    12     7     5   am
    13    17    16    2
    14    19    20    1
    15     5     3    1
    16     5     6    2
    17    16     4    1
    18    16    21    1
    19     3     4    2
    20     3     2    1
    21    24    23    1
    22    20    21    2
    23    20    22    1
    24    25    23    1
    25     2     1    3
    26    23    22    1
    27    23    26    1
    28    26    35    2
    29    26    27    1
    30    35    31    1
    31    27    28    2
    32    31    34    1
    33    31    29    2
    34    28    29    1
    35    34    33    2
    36    29    30    1
    37    33    32    1
    38    30    32    2
