@<TRIPOS>MOLECULE
74010_out_ligand_01.pdbqt
 35 38 0 0 0
SMALL
GASTEIGER

@<TRIPOS>ATOM
      1  N         27.1210  -24.3180   -9.8360 N.1     1  UNL1       -0.1910
      2  C         26.2540  -23.6600  -10.2380 C.1     1  UNL1        0.1050
      3  C         25.1550  -22.9070  -10.7320 C.2     1  UNL1        0.1130
      4  C         23.8920  -23.3530  -10.5840 C.2     1  UNL1        0.0400
      5  C         25.4600  -21.5790  -11.3360 C.2     1  UNL1        0.2660
      6  O         25.3080  -20.5630  -10.6690 O.2     1  UNL1       -0.2670
      7  N         25.9190  -21.6660  -12.6340 N.am    1  UNL1       -0.3220
      8  H         26.0720  -22.5960  -13.0120 H       1  UNL1        0.1690
      9  C         26.1620  -20.6020  -13.5250 C.2     1  UNL1        0.0350
     10  C         25.5930  -20.6960  -14.8020 C.2     1  UNL1        0.0310
     11  C         25.7660  -19.6720  -15.7380 C.2     1  UNL1        0.0210
     12  C         26.5060  -18.5430  -15.3930 C.2     1  UNL1        0.0110
     13 BR         26.7300  -17.1500  -16.6500 Br      1  UNL1       -0.0510
     14  C         27.0720  -18.4340  -14.1280 C.2     1  UNL1        0.0210
     15  C         26.9030  -19.4630  -13.1960 C.2     1  UNL1        0.0310
     16  C         22.6770  -22.6220  -10.9700 C.2     1  UNL1       -0.0320
     17  C         22.5460  -22.0690  -12.2510 C.2     1  UNL1        0.0110
     18  C         21.3650  -21.4250  -12.6210 C.2     1  UNL1        0.0040
     19  C         20.3180  -21.3140  -11.7090 C.2     1  UNL1        0.0380
     20  C         20.4630  -21.8220  -10.4190 C.2     1  UNL1        0.0900
     21  C         21.6320  -22.4870  -10.0500 C.2     1  UNL1        0.0490
     22  O         19.3880  -21.7060   -9.5800 O.2     1  UNL1       -0.2290
     23  S         17.9760  -22.4600   -9.9190 S.3     1  UNL1        0.3030
     24  O         17.0990  -21.4930  -10.5500 O.3     1  UNL1       -0.1930
     25  O         18.2650  -23.7230  -10.5750 O.3     1  UNL1       -0.1930
     26  C         17.2470  -22.8220   -8.3340 C.2     1  UNL1        0.0870
     27  C         16.0880  -23.5930   -8.2530 C.2     1  UNL1        0.0270
     28  C         15.5400  -23.8720   -7.0010 C.2     1  UNL1        0.0140
     29  C         16.1400  -23.3830   -5.8270 C.2     1  UNL1       -0.0260
     30  C         15.5960  -23.6570   -4.5630 C.2     1  UNL1        0.0120
     31  C         17.3130  -22.5960   -5.9190 C.2     1  UNL1       -0.0250
     32  C         16.1950  -23.1590   -3.4060 C.2     1  UNL1        0.0010
     33  C         17.3460  -22.3830   -3.4960 C.2     1  UNL1        0.0010
     34  C         17.9040  -22.1020   -4.7440 C.2     1  UNL1        0.0120
     35  C         17.8590  -22.3190   -7.1810 C.2     1  UNL1        0.0380
@<TRIPOS>BOND
     1    13    12    1
     2    11    12    2
     3    11    10    1
     4    12    14    1
     5    10     9    2
     6    14    15    2
     7     9    15    1
     8     9     7    1
     9     8     7    1
    10     7     5   am
    11    18    17    1
    12    18    19    2
    13    17    16    2
    14    19    20    1
    15     5     3    1
    16     5     6    2
    17    16     4    1
    18    16    21    1
    19     3     4    2
    20     3     2    1
    21    25    23    1
    22    24    23    1
    23    20    21    2
    24    20    22    1
    25     2     1    3
    26    23    22    1
    27    23    26    1
    28    26    27    2
    29    26    35    1
    30    27    28    1
    31    35    31    2
    32    28    29    2
    33    31    29    1
    34    31    34    1
    35    29    30    1
    36    34    33    2
    37    30    32    2
    38    33    32    1
