@<TRIPOS>MOLECULE
74026_out_ligand_01.pdbqt
 34 36 0 0 0
SMALL
GASTEIGER

@<TRIPOS>ATOM
      1  C         17.7010  -22.9900   -9.4900 C.2     1  UNL1        0.1130
      2  C         16.2850  -23.0280   -9.6470 C.1     1  UNL1        0.1050
      3  N         15.1350  -23.0730   -9.8080 N.1     1  UNL1       -0.1910
      4  C         18.5130  -22.8280  -10.5540 C.2     1  UNL1        0.0390
      5  C         18.2180  -23.1040   -8.0960 C.2     1  UNL1        0.2660
      6  N         17.6660  -22.1760   -7.2470 N.am    1  UNL1       -0.3210
      7  H         16.9890  -21.5180   -7.6480 H       1  UNL1        0.1690
      8  O         19.0980  -23.9190   -7.8460 O.2     1  UNL1       -0.2670
      9  C         17.9510  -21.9360   -5.8790 C.2     1  UNL1        0.0490
     10  C         18.8890  -20.9810   -5.4740 C.2     1  UNL1        0.0300
     11  C         19.1480  -20.7480   -4.1230 C.2     1  UNL1        0.0020
     12  C         18.4750  -21.4690   -3.1530 C.2     1  UNL1        0.0010
     13  C         17.5330  -22.4260   -3.5290 C.2     1  UNL1        0.0170
     14  C         17.2600  -22.6690   -4.8900 C.2     1  UNL1        0.0360
     15  C         16.2170  -23.6790   -5.2730 C.2     1  UNL1        0.1580
     16  C         14.7570  -23.3540   -5.0440 C.3     1  UNL1        0.0970
     17  O         16.5460  -24.7540   -5.7820 O.2     1  UNL1       -0.2930
     18  C         19.9710  -22.6720  -10.4870 C.2     1  UNL1       -0.0340
     19  C         20.5930  -21.5400  -11.0230 C.2     1  UNL1        0.0140
     20  C         21.9760  -21.3870  -10.9230 C.2     1  UNL1        0.0390
     21  C         22.7530  -22.3530  -10.2870 C.2     1  UNL1        0.0890
     22  C         22.1360  -23.4920   -9.7650 C.2     1  UNL1        0.0390
     23  C         20.7520  -23.6570   -9.8720 C.2     1  UNL1        0.0140
     24  O         24.0960  -22.0750  -10.2400 O.2     1  UNL1       -0.2290
     25  S         25.1710  -22.7260  -11.2760 S.3     1  UNL1        0.3030
     26  O         24.4810  -23.6140  -12.1950 O.3     1  UNL1       -0.1930
     27  O         26.3200  -23.1870  -10.5170 O.3     1  UNL1       -0.1930
     28  C         25.6860  -21.3230  -12.2390 C.2     1  UNL1        0.0860
     29  C         25.1380  -21.1510  -13.5160 C.2     1  UNL1        0.0260
     30  C         25.5280  -20.0590  -14.2870 C.2     1  UNL1        0.0080
     31  C         26.4560  -19.1330  -13.7860 C.2     1  UNL1       -0.0620
     32  C         26.9030  -17.9730  -14.6290 C.3     1  UNL1        0.0480
     33  C         27.0100  -19.3320  -12.5130 C.2     1  UNL1        0.0080
     34  C         26.6240  -20.4220  -11.7330 C.2     1  UNL1        0.0260
@<TRIPOS>BOND
     1    32    31    1
     2    30    31    2
     3    30    29    1
     4    31    33    1
     5    29    28    2
     6    33    34    2
     7    28    34    1
     8    28    25    1
     9    26    25    1
    10    25    27    1
    11    25    24    1
    12    19    20    1
    13    19    18    2
    14    20    21    2
    15     4    18    1
    16     4     1    2
    17    18    23    1
    18    21    24    1
    19    21    22    1
    20    23    22    2
    21     3     2    3
    22     2     1    1
    23     1     5    1
    24     5     8    2
    25     5     6   am
    26     7     6    1
    27     6     9    1
    28     9    10    2
    29     9    14    1
    30    17    15    2
    31    10    11    1
    32    15    16    1
    33    15    14    1
    34    14    13    2
    35    11    12    2
    36    13    12    1
