@<TRIPOS>MOLECULE
74031_out_ligand_01.pdbqt
 30 32 0 0 0
SMALL
GASTEIGER

@<TRIPOS>ATOM
      1  C         20.7470  -22.5430   -7.7300 C.2     1  UNL1        0.0320
      2  C         20.7700  -23.7040   -8.5140 C.2     1  UNL1        0.0190
      3  C         21.8720  -23.9740   -9.3310 C.2     1  UNL1        0.0250
      4  C         22.9670  -23.1080   -9.3450 C.2     1  UNL1        0.0220
      5  C         22.9120  -21.9150   -8.6220 C.2     1  UNL1        0.0250
      6  C         21.8110  -21.6380   -7.8070 C.2     1  UNL1        0.0190
      7  N         24.0630  -23.2870  -10.2400 N.pl3   1  UNL1       -0.1810
      8  H         24.9410  -22.8820   -9.9020 H       1  UNL1        0.1460
      9  S         23.8790  -22.8890  -11.8810 S.O2    1  UNL1        0.2480
     10  O         24.3410  -23.9640  -12.7260 O.2     1  UNL1       -0.2050
     11  O         22.5350  -22.3580  -11.9450 O.2     1  UNL1       -0.2050
     12  C         24.9930  -21.5340  -12.1050 C.2     1  UNL1        0.1070
     13  C         25.7620  -21.0760  -11.0290 C.2     1  UNL1        0.0270
     14  C         26.5880  -19.9580  -11.1800 C.2     1  UNL1        0.0020
     15  C         26.6510  -19.2880  -12.4020 C.2     1  UNL1        0.0030
     16  C         25.9020  -19.7440  -13.4870 C.2     1  UNL1        0.0380
     17  C         25.0810  -20.8710  -13.3310 C.2     1  UNL1        0.1250
     18  N         24.3930  -21.3540  -14.5130 N.pl3   1  UNL1       -0.1140
     19  O         25.0140  -22.1370  -15.2400 O.2     1  UNL1       -0.5320
     20  O         23.2660  -20.8900  -14.7350 O.2     1  UNL1       -0.5320
     21  C         19.5900  -22.2140   -6.8510 C.2     1  UNL1        0.2560
     22  O         19.6750  -21.2190   -6.1400 O.2     1  UNL1       -0.2670
     23  N         18.5440  -23.1140   -6.9100 N.am    1  UNL1       -0.3230
     24  H         18.6900  -23.9580   -7.4490 H       1  UNL1        0.1690
     25  C         17.3120  -23.0390   -6.2270 C.2     1  UNL1        0.0350
     26  C         16.1660  -22.4320   -6.7460 C.2     1  UNL1        0.0290
     27  C         14.9790  -22.4070   -6.0040 C.2     1  UNL1        0.0020
     28  C         14.9280  -22.9900   -4.7410 C.2     1  UNL1        0.0000
     29  C         16.0620  -23.6010   -4.2160 C.2     1  UNL1        0.0020
     30  C         17.2480  -23.6270   -4.9560 C.2     1  UNL1        0.0290
@<TRIPOS>BOND
     1    19    18    2
     2    20    18    2
     3    18    17    1
     4    16    17    1
     5    16    15    2
     6    17    12    2
     7    10     9    2
     8    15    14    1
     9    12     9    1
    10    12    13    1
    11    11     9    2
    12     9     7    1
    13    14    13    2
    14     7     8    1
    15     7     4    1
    16     4     3    2
    17     4     5    1
    18     3     2    1
    19     5     6    2
    20     2     1    2
    21     6     1    1
    22     1    21    1
    23    24    23    1
    24    23    21   am
    25    23    25    1
    26    21    22    2
    27    26    25    2
    28    26    27    1
    29    25    30    1
    30    27    28    2
    31    30    29    2
    32    28    29    1
