@<TRIPOS>MOLECULE
74067_out_ligand_01.pdbqt
 37 40 0 0 0
SMALL
GASTEIGER

@<TRIPOS>ATOM
      1  C         25.1500  -22.7940  -11.0360 C.2     1  UNL1        0.1130
      2  C         26.2400  -23.5840  -10.5790 C.1     1  UNL1        0.1050
      3  N         27.1050  -24.2670  -10.2190 N.1     1  UNL1       -0.1910
      4  C         23.8860  -23.2500  -10.9540 C.2     1  UNL1        0.0400
      5  C         25.4780  -21.4390  -11.5650 C.2     1  UNL1        0.2660
      6  N         25.8140  -21.4550  -12.9000 N.am    1  UNL1       -0.3210
      7  H         25.8000  -22.3650  -13.3730 H       1  UNL1        0.1690
      8  O         25.4590  -20.4740  -10.8120 O.2     1  UNL1       -0.2670
      9  C         26.1560  -20.3750  -13.7480 C.2     1  UNL1        0.0490
     10  C         26.8050  -19.2320  -13.2630 C.2     1  UNL1        0.0300
     11  C         27.1190  -18.1720  -14.1160 C.2     1  UNL1        0.0020
     12  C         26.7820  -18.2330  -15.4640 C.2     1  UNL1        0.0010
     13  C         26.1430  -19.3620  -15.9690 C.2     1  UNL1        0.0170
     14  C         25.8320  -20.4440  -15.1280 C.2     1  UNL1        0.0360
     15  C         25.1740  -21.6670  -15.7040 C.2     1  UNL1        0.1580
     16  C         26.0120  -22.6840  -16.4380 C.3     1  UNL1        0.0970
     17  O         23.9630  -21.8410  -15.5670 O.2     1  UNL1       -0.2930
     18  C         22.6880  -22.4910  -11.3250 C.2     1  UNL1       -0.0320
     19  C         22.5630  -21.9450  -12.6080 C.2     1  UNL1        0.0110
     20  C         21.4130  -21.2390  -12.9630 C.2     1  UNL1        0.0040
     21  C         20.3830  -21.0740  -12.0400 C.2     1  UNL1        0.0380
     22  C         20.5150  -21.6010  -10.7550 C.2     1  UNL1        0.0900
     23  C         21.6560  -22.3190  -10.3980 C.2     1  UNL1        0.0490
     24  O         19.4620  -21.4580   -9.8940 O.2     1  UNL1       -0.2290
     25  S         18.1400  -22.4120  -10.0500 S.3     1  UNL1        0.3030
     26  O         18.5030  -23.6540  -10.7060 O.3     1  UNL1       -0.1930
     27  O         17.0700  -21.5940  -10.5900 O.3     1  UNL1       -0.1930
     28  C         17.6780  -22.8030   -8.3730 C.2     1  UNL1        0.0870
     29  C         18.5380  -23.5720   -7.5870 C.2     1  UNL1        0.0270
     30  C         18.1810  -23.8670   -6.2720 C.2     1  UNL1        0.0140
     31  C         16.9740  -23.3940   -5.7300 C.2     1  UNL1       -0.0260
     32  C         16.6050  -23.6800   -4.4070 C.2     1  UNL1        0.0120
     33  C         16.1130  -22.6040   -6.5310 C.2     1  UNL1       -0.0250
     34  C         15.4060  -23.1990   -3.8790 C.2     1  UNL1        0.0010
     35  C         14.5610  -22.4240   -4.6660 C.2     1  UNL1        0.0010
     36  C         14.9120  -22.1280   -5.9850 C.2     1  UNL1        0.0120
     37  C         16.4760  -22.3110   -7.8520 C.2     1  UNL1        0.0380
@<TRIPOS>BOND
     1    16    15    1
     2    13    12    2
     3    13    14    1
     4    15    17    2
     5    15    14    1
     6    12    11    1
     7    14     9    2
     8    11    10    2
     9     9    10    1
    10     9     6    1
    11     7     6    1
    12    20    19    1
    13    20    21    2
    14     6     5   am
    15    19    18    2
    16    21    22    1
    17     5     1    1
    18     5     8    2
    19    18     4    1
    20    18    23    1
    21     1     4    2
    22     1     2    1
    23    22    23    2
    24    22    24    1
    25    26    25    1
    26    27    25    1
    27     2     3    3
    28    25    24    1
    29    25    28    1
    30    28    37    2
    31    28    29    1
    32    37    33    1
    33    29    30    2
    34    33    36    1
    35    33    31    2
    36    30    31    1
    37    36    35    2
    38    31    32    1
    39    35    34    1
    40    32    34    2
