@<TRIPOS>MOLECULE
74099_out_ligand_01.pdbqt
 36 39 0 0 0
SMALL
GASTEIGER

@<TRIPOS>ATOM
      1  N         16.9610  -21.5710  -12.1490 N.1     1  UNL1       -0.1910
      2  C         17.8750  -21.7860  -11.4680 C.1     1  UNL1        0.1050
      3  C         19.0470  -22.0120  -10.6890 C.2     1  UNL1        0.1130
      4  C         20.2440  -22.1360  -11.3000 C.2     1  UNL1        0.0400
      5  C         18.8490  -22.1610   -9.2160 C.2     1  UNL1        0.2660
      6  O         19.7280  -21.7820   -8.4520 O.2     1  UNL1       -0.2670
      7  N         17.6490  -22.7530   -8.8700 N.am    1  UNL1       -0.3220
      8  H         17.0310  -23.0160   -9.6280 H       1  UNL1        0.1690
      9  C         17.1500  -22.9880   -7.5710 C.2     1  UNL1        0.0360
     10  C         17.8290  -23.9330   -6.7880 C.2     1  UNL1        0.0310
     11  C         17.3990  -24.2300   -5.4910 C.2     1  UNL1        0.0280
     12  C         16.2820  -23.5830   -4.9590 C.2     1  UNL1        0.0550
     13 CL         15.8070  -23.9940   -3.3490 Cl      1  UNL1       -0.0830
     14  C         15.5970  -22.6400   -5.7320 C.2     1  UNL1        0.0580
     15 CL         14.2050  -21.8030   -5.1400 Cl      1  UNL1       -0.0820
     16  C         16.0310  -22.3450   -7.0330 C.2     1  UNL1        0.0550
     17  C         21.5310  -22.4560  -10.6690 C.2     1  UNL1       -0.0320
     18  C         21.6930  -23.5930   -9.8700 C.2     1  UNL1        0.0110
     19  C         22.9300  -23.8710   -9.2860 C.2     1  UNL1        0.0040
     20  C         24.0210  -23.0290   -9.5130 C.2     1  UNL1        0.0380
     21  C         23.8760  -21.9160  -10.3380 C.2     1  UNL1        0.0900
     22  C         22.6320  -21.6240  -10.9050 C.2     1  UNL1        0.0490
     23  O         24.8830  -21.0270  -10.6140 O.2     1  UNL1       -0.2290
     24  S         26.2940  -21.5280  -11.2710 S.3     1  UNL1        0.3030
     25  O         27.1210  -20.3660  -11.5430 O.3     1  UNL1       -0.1930
     26  O         26.8060  -22.6480  -10.5040 O.3     1  UNL1       -0.1930
     27  C         25.7710  -22.1820  -12.8440 C.2     1  UNL1        0.0870
     28  C         25.3740  -23.5140  -12.9520 C.2     1  UNL1        0.0270
     29  C         24.9640  -24.0070  -14.1910 C.2     1  UNL1        0.0140
     30  C         24.9390  -23.1770  -15.3240 C.2     1  UNL1       -0.0260
     31  C         24.5310  -23.6640  -16.5760 C.2     1  UNL1        0.0120
     32  C         25.3300  -21.8190  -15.2040 C.2     1  UNL1       -0.0250
     33  C         24.5070  -22.8270  -17.6930 C.2     1  UNL1        0.0010
     34  C         24.8860  -21.4900  -17.5740 C.2     1  UNL1        0.0010
     35  C         25.2940  -20.9880  -16.3370 C.2     1  UNL1        0.0120
     36  C         25.7420  -21.3290  -13.9550 C.2     1  UNL1        0.0380
@<TRIPOS>BOND
     1    33    34    2
     2    33    31    1
     3    34    35    1
     4    31    30    2
     5    35    32    2
     6    30    32    1
     7    30    29    1
     8    32    36    1
     9    29    28    2
    10    36    27    2
    11    28    27    1
    12    27    24    1
    13     1     2    3
    14    25    24    1
    15     2     3    1
    16     4     3    2
    17     4    17    1
    18    24    23    1
    19    24    26    1
    20    22    17    2
    21    22    21    1
    22     3     5    1
    23    17    18    1
    24    23    21    1
    25    21    20    2
    26    18    19    2
    27     8     7    1
    28    20    19    1
    29     5     7   am
    30     5     6    2
    31     7     9    1
    32     9    16    2
    33     9    10    1
    34    16    14    1
    35    10    11    2
    36    14    15    1
    37    14    12    2
    38    11    12    1
    39    12    13    1
