@<TRIPOS>MOLECULE
740_out_ligand_01.pdbqt
 33 35 0 0 0
SMALL
GASTEIGER

@<TRIPOS>ATOM
      1  C         19.9970  -23.4100   -7.9260 C.2     1  UNL1        0.0320
      2  C         20.6150  -24.3890   -8.7170 C.2     1  UNL1        0.0190
      3  C         21.9240  -24.1990   -9.1680 C.2     1  UNL1        0.0250
      4  C         22.6070  -23.0250   -8.8520 C.2     1  UNL1        0.0220
      5  C         22.0020  -22.0480   -8.0620 C.2     1  UNL1        0.0250
      6  C         20.6940  -22.2350   -7.6120 C.2     1  UNL1        0.0190
      7  N         23.9630  -22.8690   -9.2890 N.pl3   1  UNL1       -0.1810
      8  H         24.3600  -23.7740   -9.5440 H       1  UNL1        0.1460
      9  S         24.1290  -21.8580  -10.6550 S.O2    1  UNL1        0.2450
     10  O         24.8810  -20.6720  -10.3130 O.2     1  UNL1       -0.2060
     11  O         22.8250  -21.7940  -11.2760 O.2     1  UNL1       -0.2060
     12  C         25.1750  -22.8730  -11.6750 C.2     1  UNL1        0.0750
     13  C         26.2920  -23.4820  -11.0990 C.2     1  UNL1        0.0250
     14  C         27.1210  -24.2760  -11.8870 C.2     1  UNL1        0.0020
     15  C         26.8370  -24.4550  -13.2420 C.2     1  UNL1        0.0160
     16  C         25.7240  -23.8330  -13.8320 C.2     1  UNL1        0.0490
     17  C         24.8870  -23.0370  -13.0330 C.2     1  UNL1        0.0410
     18  C         25.4140  -24.0560  -15.2930 C.3     1  UNL1        0.4170
     19  F         24.3800  -23.2960  -15.7460 F       1  UNL1       -0.1660
     20  F         26.4670  -23.7780  -16.1100 F       1  UNL1       -0.1660
     21  F         25.0700  -25.3480  -15.5500 F       1  UNL1       -0.1660
     22  C         18.5960  -23.5560   -7.4360 C.2     1  UNL1        0.2560
     23  N         18.1380  -22.5110   -6.6610 N.am    1  UNL1       -0.3210
     24  H         18.7160  -21.6820   -6.5660 H       1  UNL1        0.1690
     25  O         17.9690  -24.5550   -7.7660 O.2     1  UNL1       -0.2670
     26  C         16.8920  -22.3890   -6.0050 C.2     1  UNL1        0.0680
     27  C         15.6740  -22.2650   -6.6770 C.2     1  UNL1        0.0320
     28  C         14.4810  -22.1590   -5.9570 C.2     1  UNL1        0.0020
     29  C         14.4990  -22.1780   -4.5660 C.2     1  UNL1        0.0030
     30  C         15.7100  -22.3040   -3.8820 C.2     1  UNL1        0.0390
     31  C         16.9090  -22.4140   -4.5930 C.2     1  UNL1        0.0950
     32  O         18.1560  -22.5490   -4.0210 O.2     1  UNL1       -0.3540
     33  C         18.6170  -21.4680   -3.2200 C.3     1  UNL1        0.2100
@<TRIPOS>BOND
     1    20    18    1
     2    19    18    1
     3    21    18    1
     4    18    16    1
     5    16    15    2
     6    16    17    1
     7    15    14    1
     8    17    12    2
     9    14    13    2
    10    12    13    1
    11    12     9    1
    12    11     9    2
    13     9    10    2
    14     9     7    1
    15     8     7    1
    16     7     4    1
    17     3     4    2
    18     3     2    1
    19     4     5    1
    20     2     1    2
    21     5     6    2
    22     1     6    1
    23     1    22    1
    24    25    22    2
    25    22    23   am
    26    27    26    2
    27    27    28    1
    28    23    24    1
    29    23    26    1
    30    26    31    1
    31    28    29    2
    32    31    32    1
    33    31    30    2
    34    29    30    1
    35    32    33    1
