@<TRIPOS>MOLECULE
74104_out_ligand_01.pdbqt
 36 39 0 0 0
SMALL
GASTEIGER

@<TRIPOS>ATOM
      1  N         16.6880  -20.9380  -11.7160 N.1     1  UNL1       -0.1910
      2  C         17.5680  -21.3770  -11.1000 C.1     1  UNL1        0.1050
      3  C         18.6860  -21.9200  -10.4040 C.2     1  UNL1        0.1130
      4  C         19.9360  -21.6880  -10.8550 C.2     1  UNL1        0.0400
      5  C         18.3850  -22.6840   -9.1560 C.2     1  UNL1        0.2660
      6  O         18.7130  -23.8610   -9.0740 O.2     1  UNL1       -0.2670
      7  N         17.7610  -21.9340   -8.1810 N.am    1  UNL1       -0.3210
      8  H         17.5510  -20.9620   -8.3940 H       1  UNL1        0.1690
      9  C         17.3030  -22.3590   -6.9100 C.2     1  UNL1        0.0580
     10  C         16.1140  -23.0680   -6.7180 C.2     1  UNL1        0.0550
     11  C         15.7250  -23.4500   -5.4310 C.2     1  UNL1        0.0360
     12 CL         14.2570  -24.3220   -5.2050 Cl      1  UNL1       -0.0840
     13  C         16.5100  -23.1360   -4.3230 C.2     1  UNL1        0.0260
     14  C         17.6980  -22.4310   -4.5000 C.2     1  UNL1        0.0280
     15  C         18.0920  -22.0470   -5.7830 C.2     1  UNL1        0.0600
     16 CL         19.5740  -21.1670   -5.9520 Cl      1  UNL1       -0.0820
     17  C         21.1890  -22.1060  -10.2150 C.2     1  UNL1       -0.0320
     18  C         21.2980  -22.2170   -8.8230 C.2     1  UNL1        0.0110
     19  C         22.4940  -22.6450   -8.2400 C.2     1  UNL1        0.0040
     20  C         23.5920  -22.9450   -9.0410 C.2     1  UNL1        0.0380
     21  C         23.4990  -22.7890  -10.4230 C.2     1  UNL1        0.0900
     22  C         22.3010  -22.3900  -11.0150 C.2     1  UNL1        0.0490
     23  O         24.5950  -23.0980  -11.1850 O.2     1  UNL1       -0.2290
     24  S         25.7450  -21.9590  -11.4350 S.3     1  UNL1        0.3030
     25  O         25.3690  -20.7760  -10.6850 O.3     1  UNL1       -0.1930
     26  O         27.0590  -22.5500  -11.2470 O.3     1  UNL1       -0.1930
     27  C         25.5830  -21.5400  -13.1610 C.2     1  UNL1        0.0870
     28  C         25.8090  -20.2250  -13.5680 C.2     1  UNL1        0.0270
     29  C         25.6710  -19.8930  -14.9170 C.2     1  UNL1        0.0140
     30  C         25.3140  -20.8690  -15.8630 C.2     1  UNL1       -0.0260
     31  C         25.1690  -20.5470  -17.2210 C.2     1  UNL1        0.0120
     32  C         25.1010  -22.2040  -15.4430 C.2     1  UNL1       -0.0250
     33  C         24.8170  -21.5240  -18.1520 C.2     1  UNL1        0.0010
     34  C         24.6070  -22.8370  -17.7390 C.2     1  UNL1        0.0010
     35  C         24.7480  -23.1760  -16.3930 C.2     1  UNL1        0.0120
     36  C         25.2440  -22.5320  -14.0870 C.2     1  UNL1        0.0380
@<TRIPOS>BOND
     1    33    34    2
     2    33    31    1
     3    34    35    1
     4    31    30    2
     5    35    32    2
     6    30    32    1
     7    30    29    1
     8    32    36    1
     9    29    28    2
    10    36    27    2
    11    28    27    1
    12    27    24    1
    13     1     2    3
    14    24    26    1
    15    24    23    1
    16    24    25    1
    17    23    21    1
    18     2     3    1
    19    22    21    1
    20    22    17    2
    21     4     3    2
    22     4    17    1
    23    21    20    2
    24     3     5    1
    25    17    18    1
    26     5     6    2
    27     5     7   am
    28    20    19    1
    29    18    19    2
    30     8     7    1
    31     7     9    1
    32     9    10    2
    33     9    15    1
    34    10    11    1
    35    16    15    1
    36    15    14    2
    37    11    12    1
    38    11    13    2
    39    14    13    1
