@<TRIPOS>MOLECULE
74111_out_ligand_01.pdbqt
 36 40 0 0 0
SMALL
GASTEIGER

@<TRIPOS>ATOM
      1  C         21.3320  -22.3000  -11.6970 C.3     1  UNL1        0.0980
      2  N         21.4560  -22.2300  -10.2370 N.pl3   1  UNL1       -0.2830
      3  C         20.3610  -22.7690   -9.5390 C.2     1  UNL1        0.0160
      4  C         20.5420  -23.2090   -8.2200 C.2     1  UNL1        0.0250
      5  C         19.4770  -23.7280   -7.4830 C.2     1  UNL1        0.0270
      6  C         18.2120  -23.7960   -8.0670 C.2     1  UNL1        0.0800
      7  C         17.9950  -23.2950   -9.3520 C.2     1  UNL1        0.0350
      8  C         19.0650  -22.7580  -10.0900 C.2     1  UNL1       -0.0270
      9  C         18.8150  -22.1830  -11.4700 C.3     1  UNL1        0.0490
     10  C         17.8650  -21.0150  -11.4440 C.3     1  UNL1       -0.0210
     11  C         18.5050  -19.8470  -11.5760 C.3     1  UNL1       -0.0290
     12  C         19.9790  -20.0480  -11.7240 C.3     1  UNL1        0.0340
     13  C         20.0650  -21.5390  -12.1160 C.3     1  UNL1        0.0230
     14  H         22.3420  -22.5670   -9.8770 H       1  UNL1        0.1280
     15  S         16.8530  -24.4760   -7.1430 S.O2    1  UNL1        0.2630
     16  O         17.3880  -25.4320   -6.1960 O.2     1  UNL1       -0.2000
     17  O         15.8240  -24.8530   -8.0880 O.2     1  UNL1       -0.2000
     18  N         16.2500  -23.1340   -6.3010 N.pl3   1  UNL1       -0.2790
     19  H         15.7000  -22.5410   -6.9240 H       1  UNL1        0.1790
     20  C         17.1280  -22.4420   -5.4030 C.2     1  UNL1        0.0640
     21  C         17.9940  -21.4650   -5.8960 C.2     1  UNL1        0.0320
     22  C         18.8230  -20.7570   -5.0220 C.2     1  UNL1        0.0020
     23  C         18.7900  -21.0230   -3.6540 C.2     1  UNL1        0.0020
     24  C         17.9300  -22.0030   -3.1540 C.2     1  UNL1        0.0260
     25  C         17.1020  -22.7120   -4.0260 C.2     1  UNL1        0.0610
     26 CL         16.0540  -23.9200   -3.3720 Cl      1  UNL1       -0.0820
     27  C         22.6600  -21.9260  -12.3530 C.2     1  UNL1       -0.0370
     28  C         22.6460  -21.3840  -13.6520 C.2     1  UNL1        0.0120
     29  C         23.8240  -20.9960  -14.2970 C.2     1  UNL1        0.0400
     30  C         25.0550  -21.1280  -13.6570 C.2     1  UNL1        0.1010
     31  C         25.0950  -21.6460  -12.3490 C.2     1  UNL1        0.1020
     32  C         23.9030  -22.0230  -11.7080 C.2     1  UNL1        0.0480
     33  O         26.2620  -20.7750  -14.2070 O.2     1  UNL1       -0.3530
     34  C         26.3220  -19.5590  -14.9380 C.3     1  UNL1        0.2100
     35  O         26.3390  -21.7220  -11.7700 O.2     1  UNL1       -0.3530
     36  C         26.6410  -22.8820  -11.0090 C.3     1  UNL1        0.2100
@<TRIPOS>BOND
     1    34    33    1
     2    29    30    2
     3    29    28    1
     4    33    30    1
     5    30    31    1
     6    28    27    2
     7    27    32    1
     8    27     1    1
     9    31    35    1
    10    31    32    2
    11    13    12    1
    12    13     1    1
    13    13     9    1
    14    35    36    1
    15    12    11    1
    16     1     2    1
    17    11    10    1
    18     9    10    1
    19     9     8    1
    20     2    14    1
    21     2     3    1
    22     8     3    2
    23     8     7    1
    24     3     4    1
    25     7     6    2
    26     4     5    2
    27    17    15    2
    28     6     5    1
    29     6    15    1
    30    15    18    1
    31    15    16    2
    32    19    18    1
    33    18    20    1
    34    21    20    2
    35    21    22    1
    36    20    25    1
    37    22    23    2
    38    25    26    1
    39    25    24    2
    40    23    24    1
