@<TRIPOS>MOLECULE
74170_out_ligand_01.pdbqt
 36 39 0 0 0
SMALL
GASTEIGER

@<TRIPOS>ATOM
      1  C         25.3410  -23.1040  -13.7590 C.2     1  UNL1        0.0400
      2  C         25.7390  -22.4530  -14.8720 C.2     1  UNL1        0.1130
      3  C         26.4790  -23.1510  -15.8690 C.1     1  UNL1        0.1050
      4  N         27.0370  -23.7780  -16.6700 N.1     1  UNL1       -0.1910
      5  C         25.4960  -21.0000  -15.1270 C.2     1  UNL1        0.2660
      6  O         24.4490  -20.4910  -14.7460 O.2     1  UNL1       -0.2670
      7  N         26.5430  -20.3560  -15.7560 N.am    1  UNL1       -0.3220
      8  H         27.3730  -20.9010  -15.9500 H       1  UNL1        0.1690
      9  C         26.5700  -19.0290  -16.2330 C.2     1  UNL1        0.0350
     10  C         26.3420  -18.8380  -17.6020 C.2     1  UNL1        0.0300
     11  C         26.3220  -17.5520  -18.1520 C.2     1  UNL1        0.0090
     12  C         26.5310  -16.4330  -17.3420 C.2     1  UNL1       -0.0620
     13  C         26.4670  -15.0550  -17.9230 C.3     1  UNL1        0.0480
     14  C         26.7460  -16.6230  -15.9730 C.2     1  UNL1        0.0090
     15  C         26.7720  -17.9110  -15.4230 C.2     1  UNL1        0.0300
     16  C         24.6120  -22.5490  -12.6110 C.2     1  UNL1       -0.0320
     17  C         23.2170  -22.5610  -12.5390 C.2     1  UNL1        0.0510
     18  C         22.5740  -22.0690  -11.4000 C.2     1  UNL1        0.1020
     19  C         23.2930  -21.5000  -10.3400 C.2     1  UNL1        0.1020
     20  C         24.6850  -21.4530  -10.4350 C.2     1  UNL1        0.0400
     21  C         25.3380  -21.9740  -11.5610 C.2     1  UNL1        0.0140
     22  O         21.2040  -22.1120  -11.3670 O.2     1  UNL1       -0.3490
     23  C         20.6470  -21.1270  -12.2570 C.3     1  UNL1        0.1710
     24  C         19.3940  -20.5580  -11.6130 C.3     1  UNL1        0.0340
     25  O         22.5470  -21.0090   -9.3010 O.2     1  UNL1       -0.3440
     26  C         22.4480  -21.7750   -8.0940 C.3     1  UNL1        0.2150
     27  C         21.2000  -22.6390   -7.9870 C.2     1  UNL1       -0.0230
     28  C         21.1120  -23.8190   -8.7500 C.2     1  UNL1        0.0100
     29  C         19.9840  -24.6270   -8.6930 C.2     1  UNL1        0.0020
     30  C         18.9280  -24.2830   -7.8570 C.2     1  UNL1        0.0120
     31  C         18.9900  -23.1350   -7.0550 C.2     1  UNL1       -0.0250
     32  C         17.9200  -22.8220   -6.2030 C.2     1  UNL1        0.0120
     33  C         20.1350  -22.2980   -7.1010 C.2     1  UNL1       -0.0180
     34  C         17.9580  -21.6950   -5.3840 C.2     1  UNL1        0.0010
     35  C         19.0740  -20.8710   -5.4030 C.2     1  UNL1        0.0010
     36  C         20.1470  -21.1690   -6.2470 C.2     1  UNL1        0.0130
@<TRIPOS>BOND
     1    11    10    1
     2    11    12    2
     3    13    12    1
     4    10     9    2
     5    12    14    1
     6     4     3    3
     7     9     7    1
     8     9    15    1
     9    14    15    2
    10     8     7    1
    11     3     2    1
    12     7     5   am
    13     5     2    1
    14     5     6    2
    15     2     1    2
    16     1    16    1
    17    16    17    2
    18    16    21    1
    19    17    18    1
    20    23    24    1
    21    23    22    1
    22    21    20    2
    23    18    22    1
    24    18    19    2
    25    20    19    1
    26    19    25    1
    27    25    26    1
    28    28    29    1
    29    28    27    2
    30    29    30    2
    31    26    27    1
    32    27    33    1
    33    30    31    1
    34    33    31    2
    35    33    36    1
    36    31    32    1
    37    36    35    2
    38    32    34    2
    39    35    34    1
