@<TRIPOS>MOLECULE
74172_out_ligand_01.pdbqt
 35 38 0 0 0
SMALL
GASTEIGER

@<TRIPOS>ATOM
      1  C         17.6600  -23.1530   -9.4030 C.2     1  UNL1        0.1130
      2  C         16.2600  -23.2460   -9.6280 C.1     1  UNL1        0.1050
      3  N         15.1220  -23.3530   -9.8200 N.1     1  UNL1       -0.1910
      4  C         18.5310  -22.9930  -10.4220 C.2     1  UNL1        0.0390
      5  C         18.1180  -23.2380   -7.9910 C.2     1  UNL1        0.2660
      6  N         17.7050  -22.1540   -7.2490 N.am    1  UNL1       -0.3210
      7  H         17.1420  -21.4500   -7.7320 H       1  UNL1        0.1690
      8  O         18.8060  -24.1820   -7.6200 O.2     1  UNL1       -0.2670
      9  C         17.9420  -21.8730   -5.8850 C.2     1  UNL1        0.0490
     10  C         18.9940  -21.0510   -5.4660 C.2     1  UNL1        0.0300
     11  C         19.1940  -20.7730   -4.1130 C.2     1  UNL1        0.0020
     12  C         18.3470  -21.3180   -3.1550 C.2     1  UNL1        0.0010
     13  C         17.2990  -22.1410   -3.5500 C.2     1  UNL1        0.0170
     14  C         17.0840  -22.4240   -4.9100 C.2     1  UNL1        0.0360
     15  C         15.9400  -23.3100   -5.3070 C.2     1  UNL1        0.1580
     16  C         14.5490  -22.7280   -5.3970 C.3     1  UNL1        0.0970
     17  O         16.1390  -24.5000   -5.5540 O.2     1  UNL1       -0.2930
     18  C         19.9720  -22.8330  -10.2470 C.2     1  UNL1       -0.0340
     19  C         20.6040  -21.6440  -10.6270 C.2     1  UNL1        0.0140
     20  C         21.9910  -21.5070  -10.5000 C.2     1  UNL1        0.0370
     21  C         22.7480  -22.5600   -9.9870 C.2     1  UNL1        0.0690
     22  C         22.1120  -23.7370   -9.5850 C.2     1  UNL1        0.0370
     23  C         20.7310  -23.8820   -9.7200 C.2     1  UNL1        0.0140
     24  O         24.1010  -22.5580   -9.8120 O.2     1  UNL1       -0.3470
     25  C         24.9070  -22.9020  -10.9450 C.3     1  UNL1        0.2150
     26  C         25.4410  -21.6600  -11.6430 C.2     1  UNL1       -0.0230
     27  C         26.1750  -20.7080  -10.9120 C.2     1  UNL1        0.0100
     28  C         26.6900  -19.5710  -11.5260 C.2     1  UNL1        0.0020
     29  C         26.4690  -19.3560  -12.8790 C.2     1  UNL1        0.0120
     30  C         25.7260  -20.2710  -13.6380 C.2     1  UNL1       -0.0250
     31  C         25.5120  -20.0300  -15.0060 C.2     1  UNL1        0.0120
     32  C         25.1950  -21.4380  -13.0280 C.2     1  UNL1       -0.0180
     33  C         24.7730  -20.9190  -15.7870 C.2     1  UNL1        0.0010
     34  C         24.2400  -22.0610  -15.2080 C.2     1  UNL1        0.0010
     35  C         24.4480  -22.3170  -13.8490 C.2     1  UNL1        0.0130
@<TRIPOS>BOND
     1    33    34    1
     2    33    31    2
     3    34    35    2
     4    31    30    1
     5    35    32    1
     6    30    32    1
     7    30    29    2
     8    32    26    2
     9    29    28    1
    10    26    25    1
    11    26    27    1
    12    28    27    2
    13    25    24    1
    14    19    20    1
    15    19    18    2
    16    20    21    2
    17     4    18    1
    18     4     1    2
    19    18    23    1
    20    21    24    1
    21    21    22    1
    22     3     2    3
    23    23    22    2
    24     2     1    1
    25     1     5    1
    26     5     8    2
    27     5     6   am
    28     7     6    1
    29     6     9    1
    30     9    10    2
    31     9    14    1
    32    17    15    2
    33    10    11    1
    34    16    15    1
    35    15    14    1
    36    14    13    2
    37    11    12    2
    38    13    12    1
