@<TRIPOS>MOLECULE
7418_out_ligand_01.pdbqt
 37 40 0 0 0
SMALL
GASTEIGER

@<TRIPOS>ATOM
      1  C         24.0940  -21.9540  -12.1910 C.2     1  UNL1        0.1020
      2  C         22.8340  -21.6470  -11.6550 C.2     1  UNL1        0.0440
      3  C         21.8020  -21.2030  -12.4910 C.2     1  UNL1        0.0340
      4  C         22.0450  -21.0260  -13.8570 C.2     1  UNL1        0.0190
      5  C         23.3050  -21.3240  -14.3840 C.2     1  UNL1        0.0260
      6  C         24.3340  -21.7940  -13.5580 C.2     1  UNL1        0.0570
      7 CL         25.8310  -22.1760  -14.3320 Cl      1  UNL1       -0.0830
      8  C         20.4740  -20.9060  -11.8880 C.2     1  UNL1        0.2570
      9  O         20.2730  -19.7760  -11.4650 O.2     1  UNL1       -0.2670
     10  N         19.6130  -21.9770  -11.8380 N.am    1  UNL1       -0.3000
     11  H         19.9080  -22.9030  -12.1030 H       1  UNL1        0.1710
     12  C         18.3560  -21.8650  -11.3100 C.ar    1  UNL1        0.1970
     13  N         17.4260  -20.9620  -11.5020 N.ar    1  UNL1       -0.1220
     14  N         16.2910  -21.2350  -10.7610 N.ar    1  UNL1       -0.1330
     15  C         16.4290  -22.3210  -10.0310 C.ar    1  UNL1        0.1600
     16  S         17.9340  -23.1190  -10.2300 S.2     1  UNL1       -0.0220
     17  S         15.1780  -22.9050   -8.9630 S.3     1  UNL1       -0.0970
     18  C         16.1630  -23.9640   -7.8620 C.3     1  UNL1        0.1200
     19  C         16.1180  -23.5080   -6.4240 C.2     1  UNL1       -0.0490
     20  C         17.1590  -23.8240   -5.5390 C.2     1  UNL1        0.0080
     21  C         17.1220  -23.3890   -4.2140 C.2     1  UNL1        0.0010
     22  C         16.0440  -22.6310   -3.7590 C.2     1  UNL1        0.0000
     23  C         15.0060  -22.3050   -4.6280 C.2     1  UNL1        0.0010
     24  C         15.0400  -22.7410   -5.9530 C.2     1  UNL1        0.0080
     25  S         25.3520  -22.5510  -11.0900 S.O2    1  UNL1        0.2640
     26  O         25.7880  -21.4430  -10.2660 O.2     1  UNL1       -0.2000
     27  O         26.3100  -23.2990  -11.8750 O.2     1  UNL1       -0.2000
     28  N         24.5350  -23.6570  -10.1090 N.pl3   1  UNL1       -0.2810
     29  H         24.5020  -24.5840  -10.5330 H       1  UNL1        0.1790
     30  C         23.4140  -23.2300   -9.3400 C.2     1  UNL1        0.0430
     31  C         23.3880  -21.9910   -8.7100 C.2     1  UNL1        0.0300
     32  C         22.2580  -21.5950   -7.9910 C.2     1  UNL1        0.0090
     33  C         21.1410  -22.4370   -7.8870 C.2     1  UNL1       -0.0560
     34  C         19.9460  -21.9780   -7.0960 C.3     1  UNL1        0.0490
     35  C         21.1740  -23.7040   -8.5040 C.2     1  UNL1       -0.0540
     36  C         22.3180  -24.0880   -9.2240 C.2     1  UNL1        0.0370
     37  C         20.0130  -24.6550   -8.4040 C.3     1  UNL1        0.0490
@<TRIPOS>BOND
     1     5     4    2
     2     5     6    1
     3     7     6    1
     4     4     3    1
     5     6     1    2
     6     3     8    1
     7     3     2    2
     8     1     2    1
     9     1    25    1
    10    11    10    1
    11     8    10   am
    12     8     9    2
    13    27    25    2
    14    10    12    1
    15    13    12   ar
    16    13    14   ar
    17    12    16   ar
    18    25    26    2
    19    25    28    1
    20    14    15   ar
    21    29    28    1
    22    16    15   ar
    23    28    30    1
    24    15    17    1
    25    30    36    2
    26    30    31    1
    27    36    35    1
    28    17    18    1
    29    31    32    2
    30    35    37    1
    31    35    33    2
    32    32    33    1
    33    33    34    1
    34    18    19    1
    35    19    24    2
    36    19    20    1
    37    24    23    1
    38    20    21    2
    39    23    22    2
    40    21    22    1
