@<TRIPOS>MOLECULE
74190_out_ligand_01.pdbqt
 38 41 0 0 0
SMALL
GASTEIGER

@<TRIPOS>ATOM
      1  C         19.9880  -21.4200  -11.5530 C.2     1  UNL1        0.0690
      2  C         19.5010  -22.6880  -11.2310 C.2     1  UNL1        0.0370
      3  C         18.1470  -22.8640  -10.9220 C.2     1  UNL1        0.0150
      4  C         17.2740  -21.7750  -10.9450 C.2     1  UNL1       -0.0170
      5  C         17.7590  -20.5020  -11.2450 C.2     1  UNL1        0.0150
      6  C         19.1090  -20.3310  -11.5600 C.2     1  UNL1        0.0370
      7  C         15.8610  -22.0070  -10.5730 C.2     1  UNL1        0.1500
      8  N         15.3550  -22.5700   -9.5120 N.2     1  UNL1       -0.1840
      9  N         16.1750  -22.8340   -8.4490 N.am    1  UNL1       -0.2460
     10  C         16.2880  -24.1340   -7.9340 C.2     1  UNL1        0.2500
     11  O         15.5800  -25.0850   -8.2690 O.2     1  UNL1       -0.2710
     12  H         17.0520  -22.3230   -8.4910 H       1  UNL1        0.1920
     13  C         17.4000  -24.2910   -6.8790 C.3     1  UNL1        0.1450
     14  C         16.9180  -23.7140   -5.5420 C.2     1  UNL1       -0.0410
     15  C         17.7930  -23.4470   -4.4740 C.2     1  UNL1        0.0080
     16  C         17.3170  -22.8890   -3.2870 C.2     1  UNL1        0.0010
     17  C         15.9650  -22.5780   -3.1530 C.2     1  UNL1        0.0000
     18  C         15.0880  -22.8210   -4.2060 C.2     1  UNL1        0.0010
     19  C         15.5600  -23.3820   -5.3940 C.2     1  UNL1        0.0080
     20  C         18.7910  -23.8370   -7.3470 C.2     1  UNL1       -0.0410
     21  C         19.6180  -24.7140   -8.0740 C.2     1  UNL1        0.0080
     22  C         20.8760  -24.3130   -8.5270 C.2     1  UNL1        0.0010
     23  C         21.3210  -23.0170   -8.2910 C.2     1  UNL1        0.0000
     24  C         20.5020  -22.1170   -7.6170 C.2     1  UNL1        0.0010
     25  C         19.2440  -22.5180   -7.1580 C.2     1  UNL1        0.0080
     26  O         21.2840  -21.1000  -11.8520 O.2     1  UNL1       -0.3420
     27  C         22.3100  -21.9980  -11.4390 C.3     1  UNL1        0.2780
     28  C         23.5430  -22.0450  -12.3530 C.2     1  UNL1        0.2460
     29  N         23.3360  -21.3900  -13.5550 N.am    1  UNL1       -0.3250
     30  H         22.4340  -20.9320  -13.6460 H       1  UNL1        0.1690
     31  O         24.5580  -22.6400  -12.0050 O.2     1  UNL1       -0.2710
     32  C         24.2420  -21.2120  -14.6170 C.2     1  UNL1        0.0340
     33  C         25.1110  -20.1190  -14.5360 C.2     1  UNL1        0.0300
     34  C         26.0470  -19.8720  -15.5470 C.2     1  UNL1        0.0090
     35  C         26.1370  -20.7240  -16.6500 C.2     1  UNL1       -0.0620
     36  C         27.1200  -20.4510  -17.7490 C.3     1  UNL1        0.0480
     37  C         25.2560  -21.8070  -16.7390 C.2     1  UNL1        0.0090
     38  C         24.3180  -22.0520  -15.7270 C.2     1  UNL1        0.0300
@<TRIPOS>BOND
     1    36    35    1
     2    37    35    2
     3    37    38    1
     4    35    34    1
     5    38    32    2
     6    34    33    2
     7    32    33    1
     8    32    29    1
     9    30    29    1
    10    29    28   am
    11    28    31    2
    12    28    27    1
    13    26     1    1
    14    26    27    1
    15     6     1    2
    16     6     5    1
    17     1     2    1
    18     5     4    2
    19     2     3    2
    20     4     3    1
    21     4     7    1
    22     7     8    2
    23     8     9    1
    24    22    23    2
    25    22    21    1
    26    12     9    1
    27     9    10   am
    28    23    24    1
    29    11    10    2
    30    21    20    2
    31    10    13    1
    32    24    25    2
    33    20    25    1
    34    20    13    1
    35    13    14    1
    36    14    19    2
    37    14    15    1
    38    19    18    1
    39    15    16    2
    40    18    17    2
    41    16    17    1
