@<TRIPOS>MOLECULE
74191_out_ligand_01.pdbqt
 37 40 0 0 0
SMALL
GASTEIGER

@<TRIPOS>ATOM
      1  C         16.2480  -21.8920  -10.8310 C.2     1  UNL1        0.1500
      2  N         15.6690  -22.4500   -9.8050 N.2     1  UNL1       -0.1840
      3  C         17.6870  -21.7130  -11.1140 C.2     1  UNL1       -0.0170
      4  C         18.5250  -22.8280  -11.0400 C.2     1  UNL1        0.0150
      5  C         19.9010  -22.6880  -11.2530 C.2     1  UNL1        0.0370
      6  C         20.4400  -21.4290  -11.5160 C.2     1  UNL1        0.0690
      7  C         19.5950  -20.3190  -11.5980 C.2     1  UNL1        0.0370
      8  C         18.2250  -20.4530  -11.3810 C.2     1  UNL1        0.0150
      9  O         21.7620  -21.1590  -11.7410 O.2     1  UNL1       -0.3420
     10  C         22.6970  -22.2090  -11.4810 C.3     1  UNL1        0.2780
     11  C         23.7750  -22.3950  -12.5560 C.2     1  UNL1        0.2460
     12  O         24.6710  -23.2230  -12.3990 O.2     1  UNL1       -0.2710
     13  N         23.6170  -21.5360  -13.6310 N.am    1  UNL1       -0.3250
     14  H         22.7670  -20.9760  -13.6210 H       1  UNL1        0.1690
     15  C         24.4570  -21.3940  -14.7550 C.2     1  UNL1        0.0340
     16  C         25.3530  -20.3150  -14.7540 C.2     1  UNL1        0.0290
     17  C         26.2200  -20.1120  -15.8360 C.2     1  UNL1        0.0020
     18  C         26.1990  -20.9860  -16.9260 C.2     1  UNL1        0.0000
     19  C         25.3140  -22.0620  -16.9330 C.2     1  UNL1        0.0020
     20  C         24.4480  -22.2670  -15.8500 C.2     1  UNL1        0.0290
     21  N         16.4280  -22.7530   -8.7050 N.am    1  UNL1       -0.2460
     22  C         16.3060  -24.0070   -8.0770 C.2     1  UNL1        0.2500
     23  O         15.4770  -24.8600   -8.3900 O.2     1  UNL1       -0.2710
     24  H         17.3860  -22.4180   -8.7880 H       1  UNL1        0.1920
     25  C         17.3390  -24.1770   -6.9470 C.3     1  UNL1        0.1450
     26  C         18.7410  -23.6830   -7.3150 C.2     1  UNL1       -0.0410
     27  C         19.6270  -24.4770   -8.0690 C.2     1  UNL1        0.0080
     28  C         20.8820  -23.9920   -8.4430 C.2     1  UNL1        0.0010
     29  C         21.2760  -22.7110   -8.0600 C.2     1  UNL1        0.0000
     30  C         20.4210  -21.9180   -7.2920 C.2     1  UNL1        0.0010
     31  C         19.1610  -22.3990   -6.9230 C.2     1  UNL1        0.0080
     32  C         16.8480  -23.6330   -5.5980 C.2     1  UNL1       -0.0410
     33  C         15.6650  -22.8720   -5.5500 C.2     1  UNL1        0.0080
     34  C         15.1970  -22.3530   -4.3380 C.2     1  UNL1        0.0010
     35  C         15.9010  -22.5890   -3.1590 C.2     1  UNL1        0.0000
     36  C         17.0620  -23.3570   -3.1860 C.2     1  UNL1        0.0010
     37  C         17.5330  -23.8820   -4.3960 C.2     1  UNL1        0.0080
@<TRIPOS>BOND
     1    19    18    2
     2    19    20    1
     3    18    17    1
     4    20    15    2
     5    17    16    2
     6    15    16    1
     7    15    13    1
     8    13    14    1
     9    13    11   am
    10    11    12    2
    11    11    10    1
    12     9     6    1
    13     9    10    1
    14     7     6    2
    15     7     8    1
    16     6     5    1
    17     8     3    2
    18     5     4    2
    19     3     4    1
    20     3     1    1
    21     1     2    2
    22     2    21    1
    23    24    21    1
    24    21    22   am
    25    28    27    1
    26    28    29    2
    27    23    22    2
    28    22    25    1
    29    27    26    2
    30    29    30    1
    31    26    25    1
    32    26    31    1
    33    30    31    2
    34    25    32    1
    35    32    33    2
    36    32    37    1
    37    33    34    1
    38    37    36    2
    39    34    35    2
    40    36    35    1
