@<TRIPOS>MOLECULE
74253_out_ligand_01.pdbqt
 35 38 0 0 0
SMALL
GASTEIGER

@<TRIPOS>ATOM
      1  C         25.1780  -22.7610  -10.8420 C.2     1  UNL1        0.1130
      2  C         26.2700  -23.6000  -10.4730 C.1     1  UNL1        0.1050
      3  N         27.1130  -24.3150  -10.1180 N.1     1  UNL1       -0.1910
      4  C         23.9160  -23.2220  -10.7190 C.2     1  UNL1        0.0400
      5  C         25.5350  -21.4170  -11.3870 C.2     1  UNL1        0.2660
      6  N         25.7680  -21.4140  -12.7510 N.am    1  UNL1       -0.3220
      7  H         25.7100  -22.3020  -13.2340 H       1  UNL1        0.1690
      8  O         25.5630  -20.4540  -10.6270 O.2     1  UNL1       -0.2670
      9  C         26.0970  -20.3040  -13.5610 C.2     1  UNL1        0.0350
     10  C         26.8450  -19.2110  -13.1250 C.2     1  UNL1        0.0300
     11  C         27.1190  -18.1440  -13.9910 C.2     1  UNL1        0.0090
     12  C         26.6570  -18.1560  -15.3110 C.2     1  UNL1       -0.0620
     13  C         26.9310  -16.9920  -16.2190 C.3     1  UNL1        0.0480
     14  C         25.9000  -19.2480  -15.7460 C.2     1  UNL1        0.0090
     15  C         25.6280  -20.3140  -14.8820 C.2     1  UNL1        0.0300
     16  C         22.6720  -22.5410  -11.0970 C.2     1  UNL1       -0.0320
     17  C         22.5120  -21.9230  -12.3420 C.2     1  UNL1        0.0110
     18  C         21.3110  -21.2870  -12.6580 C.2     1  UNL1        0.0040
     19  C         20.2500  -21.2840  -11.7500 C.2     1  UNL1        0.0380
     20  C         20.3860  -21.9280  -10.5210 C.2     1  UNL1        0.0900
     21  C         21.5980  -22.5490  -10.1970 C.2     1  UNL1        0.0490
     22  O         19.4230  -22.0010   -9.5490 O.2     1  UNL1       -0.2290
     23  S         17.8770  -22.4150   -9.8720 S.3     1  UNL1        0.3030
     24  O         17.1940  -21.2470  -10.3940 O.3     1  UNL1       -0.1930
     25  O         17.8550  -23.6820  -10.5780 O.3     1  UNL1       -0.1930
     26  C         17.2080  -22.7440   -8.2560 C.2     1  UNL1        0.0870
     27  C         16.0520  -23.5220   -8.1520 C.2     1  UNL1        0.0270
     28  C         15.5310  -23.8050   -6.8890 C.2     1  UNL1        0.0140
     29  C         16.1530  -23.3100   -5.7270 C.2     1  UNL1       -0.0260
     30  C         15.6350  -23.5850   -4.4500 C.2     1  UNL1        0.0120
     31  C         17.3230  -22.5180   -5.8430 C.2     1  UNL1       -0.0250
     32  C         16.2550  -23.0830   -3.3030 C.2     1  UNL1        0.0010
     33  C         17.4070  -22.3080   -3.4170 C.2     1  UNL1        0.0010
     34  C         17.9350  -22.0240   -4.6800 C.2     1  UNL1        0.0120
     35  C         17.8470  -22.2420   -7.1160 C.2     1  UNL1        0.0380
@<TRIPOS>BOND
     1    13    12    1
     2    14    12    2
     3    14    15    1
     4    12    11    1
     5    15     9    2
     6    11    10    2
     7     9    10    1
     8     9     6    1
     9     7     6    1
    10     6     5   am
    11    18    17    1
    12    18    19    2
    13    17    16    2
    14    19    20    1
    15     5     1    1
    16     5     8    2
    17    16     4    1
    18    16    21    1
    19     1     4    2
    20     1     2    1
    21    25    23    1
    22    20    21    2
    23    20    22    1
    24     2     3    3
    25    24    23    1
    26    23    22    1
    27    23    26    1
    28    26    27    2
    29    26    35    1
    30    27    28    1
    31    35    31    2
    32    28    29    2
    33    31    29    1
    34    31    34    1
    35    29    30    1
    36    34    33    2
    37    30    32    2
    38    33    32    1
