@<TRIPOS>MOLECULE
74286_out_ligand_01.pdbqt
 35 38 0 0 0
SMALL
GASTEIGER

@<TRIPOS>ATOM
      1  C         17.2740  -22.6500   -5.5700 C.2     1  UNL1        0.0540
      2  C         17.1690  -23.1410   -4.2600 C.2     1  UNL1        0.0190
      3  C         15.9200  -23.4900   -3.7460 C.2     1  UNL1        0.0010
      4  C         14.7770  -23.3600   -4.5350 C.2     1  UNL1        0.0020
      5  C         14.8770  -22.8840   -5.8440 C.2     1  UNL1        0.0250
      6  C         16.1240  -22.5400   -6.3700 C.2     1  UNL1        0.0380
      7  N         16.1820  -21.9780   -7.6900 N.pl3   1  UNL1       -0.1800
      8  H         15.3990  -21.3370   -7.8960 H       1  UNL1        0.1460
      9  S         16.3010  -23.0910   -8.9670 S.O2    1  UNL1        0.2460
     10  O         15.0100  -23.1320   -9.6190 O.2     1  UNL1       -0.2060
     11  O         16.9500  -24.2960   -8.4930 O.2     1  UNL1       -0.2060
     12  C         17.4060  -22.2550  -10.0820 C.2     1  UNL1        0.0770
     13  C         16.9980  -21.0440  -10.6960 C.2     1  UNL1        0.0270
     14  C         17.8530  -20.3690  -11.5740 C.2     1  UNL1        0.0330
     15  C         19.0870  -20.9370  -11.7920 C.ar    1  UNL1        0.0630
     16  N         20.1330  -20.5040  -12.5990 N.ar    1  UNL1       -0.3070
     17  C         19.4840  -22.1250  -11.1760 C.ar    1  UNL1        0.0640
     18  C         21.1930  -21.4140  -12.4920 C.ar    1  UNL1        0.3250
     19  H         20.1640  -19.6740  -13.1700 H       1  UNL1        0.1700
     20  O         22.2680  -21.3480  -13.0600 O.2     1  UNL1       -0.2470
     21  N         20.7730  -22.4180  -11.6060 N.ar    1  UNL1       -0.3060
     22  H         21.3460  -23.2030  -11.3380 H       1  UNL1        0.1700
     23  C         18.6720  -22.8130  -10.3100 C.2     1  UNL1        0.0560
     24  C         18.6030  -22.2950   -6.1330 C.2     1  UNL1        0.2580
     25  N         19.1640  -23.2590   -6.9500 N.am    1  UNL1       -0.3230
     26  H         18.7070  -24.1620   -6.9700 H       1  UNL1        0.1690
     27  O         19.0940  -21.2230   -5.7990 O.2     1  UNL1       -0.2670
     28  C         20.3850  -23.1750   -7.6490 C.2     1  UNL1        0.0350
     29  C         21.2060  -22.0470   -7.6500 C.2     1  UNL1        0.0310
     30  C         22.4030  -22.0410   -8.3780 C.2     1  UNL1        0.0210
     31  C         22.7960  -23.1630   -9.1080 C.2     1  UNL1       -0.0000
     32  C         21.9700  -24.2890   -9.1210 C.2     1  UNL1        0.0210
     33  C         20.7730  -24.2930   -8.3960 C.2     1  UNL1        0.0310
     34  S         24.3200  -23.1280  -10.0300 S.3     1  UNL1       -0.1340
     35  C         24.4180  -21.3500  -10.3630 C.3     1  UNL1        0.0950
@<TRIPOS>BOND
     1    19    16    1
     2    20    18    2
     3    16    18   ar
     4    16    15   ar
     5    18    21   ar
     6    15    14    2
     7    15    17   ar
     8    21    22    1
     9    21    17   ar
    10    14    13    1
    11    17    23    2
    12    13    12    2
    13    35    34    1
    14    23    12    1
    15    12     9    1
    16    34    31    1
    17    10     9    2
    18    32    31    2
    19    32    33    1
    20    31    30    1
    21     9    11    2
    22     9     7    1
    23    33    28    2
    24    30    29    2
    25     8     7    1
    26     7     6    1
    27    29    28    1
    28    28    25    1
    29    26    25    1
    30    25    24   am
    31     6     5    1
    32     6     1    2
    33    24    27    2
    34    24     1    1
    35     5     4    2
    36     1     2    1
    37     4     3    1
    38     2     3    2
