@<TRIPOS>MOLECULE
74288_out_ligand_01.pdbqt
 33 36 0 0 0
SMALL
GASTEIGER

@<TRIPOS>ATOM
      1  N         21.9780  -23.2850   -8.8640 N.am    1  UNL1       -0.2630
      2  C         21.8770  -22.1750   -8.0920 C.2     1  UNL1        0.3260
      3  O         22.7840  -21.5050   -7.6280 O.2     1  UNL1       -0.2470
      4  N         20.5500  -21.9210   -7.8630 N.am    1  UNL1       -0.3200
      5  C         19.6610  -22.8970   -8.4680 C.3     1  UNL1        0.1470
      6  C         20.7410  -23.8140   -9.1050 C.2     1  UNL1        0.2610
      7  O         20.5230  -24.8640   -9.7010 O.2     1  UNL1       -0.2700
      8  H         20.2510  -21.1580   -7.2710 H       1  UNL1        0.1660
      9  C         18.9160  -23.7210   -7.3910 C.3     1  UNL1        0.0850
     10  C         18.5860  -22.9550   -6.1270 C.2     1  UNL1       -0.0550
     11  C         17.8660  -23.5710   -5.0920 C.2     1  UNL1        0.0070
     12  C         17.5690  -22.8710   -3.9220 C.2     1  UNL1        0.0010
     13  C         17.9880  -21.5500   -3.7740 C.2     1  UNL1        0.0000
     14  C         18.7030  -20.9290   -4.7950 C.2     1  UNL1        0.0010
     15  C         19.0000  -21.6270   -5.9670 C.2     1  UNL1        0.0070
     16  C         18.7500  -22.2950   -9.5390 C.2     1  UNL1       -0.0200
     17  C         17.3490  -22.3550   -9.3950 C.2     1  UNL1        0.0100
     18  C         16.4970  -21.7980  -10.3510 C.2     1  UNL1        0.0010
     19  C         17.0260  -21.1680  -11.4720 C.2     1  UNL1        0.0000
     20  C         18.4050  -21.0970  -11.6380 C.2     1  UNL1        0.0010
     21  C         19.2590  -21.6540  -10.6820 C.2     1  UNL1        0.0100
     22  C         23.2250  -23.8580   -9.3140 C.3     1  UNL1        0.1750
     23  C         23.8570  -23.0330  -10.4120 C.2     1  UNL1       -0.0390
     24  C         25.2240  -22.7230  -10.3730 C.2     1  UNL1        0.0090
     25  C         25.8130  -21.9800  -11.3970 C.2     1  UNL1        0.0020
     26  C         25.0390  -21.5270  -12.4690 C.2     1  UNL1        0.0170
     27  C         23.6700  -21.8170  -12.5210 C.2     1  UNL1        0.0320
     28  C         23.0900  -22.5850  -11.5010 C.2     1  UNL1        0.0260
     29  C         22.7970  -21.3480  -13.6330 C.2     1  UNL1        0.2490
     30  N         21.5880  -20.7950  -13.3060 N.am    1  UNL1       -0.3660
     31  H         20.9760  -20.6150  -14.0930 H       1  UNL1        0.1590
     32  H         21.1460  -20.9710  -12.4180 H       1  UNL1        0.1590
     33  O         23.1130  -21.4870  -14.8080 O.2     1  UNL1       -0.2680
@<TRIPOS>BOND
     1    33    29    2
     2    31    30    1
     3    29    30   am
     4    29    27    1
     5    30    32    1
     6    27    26    2
     7    27    28    1
     8    26    25    1
     9    20    19    2
    10    20    21    1
    11    28    23    2
    12    19    18    1
    13    25    24    2
    14    21    16    2
    15    23    24    1
    16    23    22    1
    17    18    17    2
    18     7     6    2
    19    16    17    1
    20    16     5    1
    21    22     1    1
    22     6     1   am
    23     6     5    1
    24     1     2   am
    25     5     4    1
    26     5     9    1
    27     2     4   am
    28     2     3    2
    29     4     8    1
    30     9    10    1
    31    10    15    2
    32    10    11    1
    33    15    14    1
    34    11    12    2
    35    14    13    2
    36    12    13    1
