@<TRIPOS>MOLECULE
74295_out_ligand_01.pdbqt
 36 40 0 0 0
SMALL
GASTEIGER

@<TRIPOS>ATOM
      1  C         17.2070  -22.7000   -5.5430 C.2     1  UNL1        0.0540
      2  C         17.1610  -23.2150   -4.2400 C.2     1  UNL1        0.0190
      3  C         15.9300  -23.5200   -3.6540 C.2     1  UNL1        0.0010
      4  C         14.7490  -23.3200   -4.3660 C.2     1  UNL1        0.0020
      5  C         14.7890  -22.8190   -5.6690 C.2     1  UNL1        0.0250
      6  C         16.0150  -22.5200   -6.2670 C.2     1  UNL1        0.0380
      7  N         16.0150  -21.9320   -7.5770 N.pl3   1  UNL1       -0.1800
      8  H         15.2180  -21.2970   -7.7400 H       1  UNL1        0.1460
      9  S         16.0930  -23.0190   -8.8800 S.O2    1  UNL1        0.2460
     10  O         14.7950  -23.0140   -9.5190 O.2     1  UNL1       -0.2060
     11  O         16.7210  -24.2480   -8.4420 O.2     1  UNL1       -0.2060
     12  C         17.2040  -22.1810   -9.9900 C.2     1  UNL1        0.0770
     13  C         16.8440  -20.9150  -10.5150 C.2     1  UNL1        0.0270
     14  C         17.7050  -20.2380  -11.3870 C.2     1  UNL1        0.0330
     15  C         18.8930  -20.8610  -11.6890 C.ar    1  UNL1        0.0630
     16  N         19.9320  -20.4390  -12.5100 N.ar    1  UNL1       -0.3070
     17  C         19.2440  -22.1040  -11.1600 C.ar    1  UNL1        0.0640
     18  C         20.9410  -21.4130  -12.5000 C.ar    1  UNL1        0.3250
     19  H         19.9910  -19.5800  -13.0330 H       1  UNL1        0.1700
     20  O         21.9960  -21.3730  -13.1060 O.2     1  UNL1       -0.2470
     21  N         20.4960  -22.4430  -11.6570 N.ar    1  UNL1       -0.3060
     22  H         21.0310  -23.2730  -11.4590 H       1  UNL1        0.1700
     23  C         18.4250  -22.7960  -10.3010 C.2     1  UNL1        0.0560
     24  C         18.5130  -22.3950   -6.1840 C.2     1  UNL1        0.2580
     25  O         19.0490  -21.3270   -5.9020 O.2     1  UNL1       -0.2670
     26  N         19.0020  -23.3890   -7.0100 N.am    1  UNL1       -0.3230
     27  H         18.5190  -24.2780   -6.9890 H       1  UNL1        0.1690
     28  C         20.1840  -23.3560   -7.7790 C.2     1  UNL1        0.0350
     29  C         20.5820  -24.5640   -8.3900 C.2     1  UNL1        0.0300
     30  C         21.7310  -24.6360   -9.1840 C.2     1  UNL1        0.0100
     31  C         22.4820  -23.4880   -9.3520 C.2     1  UNL1       -0.0520
     32  C         22.0950  -22.2860   -8.7550 C.2     1  UNL1       -0.0500
     33  C         23.7190  -23.3020  -10.1720 C.3     1  UNL1        0.0390
     34  C         20.9490  -22.2020   -7.9750 C.2     1  UNL1        0.0370
     35  C         23.0370  -21.1820   -9.1200 C.3     1  UNL1        0.0390
     36  C         24.2550  -21.9800   -9.6060 C.3     1  UNL1        0.0090
@<TRIPOS>BOND
     1    20    18    2
     2    19    16    1
     3    16    18   ar
     4    16    15   ar
     5    18    21   ar
     6    15    14    2
     7    15    17   ar
     8    21    22    1
     9    21    17   ar
    10    14    13    1
    11    17    23    2
    12    13    12    2
    13    23    12    1
    14    33    36    1
    15    33    31    1
    16    12     9    1
    17    36    35    1
    18    10     9    2
    19    31    30    2
    20    31    32    1
    21    30    29    1
    22    35    32    1
    23     9    11    2
    24     9     7    1
    25    32    34    2
    26    29    28    2
    27    34    28    1
    28    28    26    1
    29     8     7    1
    30     7     6    1
    31    26    27    1
    32    26    24   am
    33     6     5    1
    34     6     1    2
    35    24    25    2
    36    24     1    1
    37     5     4    2
    38     1     2    1
    39     4     3    1
    40     2     3    2
