@<TRIPOS>MOLECULE
742_out_ligand_01.pdbqt
 37 40 0 0 0
SMALL
GASTEIGER

@<TRIPOS>ATOM
      1  C         19.0150  -21.4330  -11.1860 C.3     1  UNL1        0.0500
      2  C         20.4610  -21.8010  -11.3630 C.2     1  UNL1       -0.0390
      3  C         21.1240  -21.3390  -12.5120 C.2     1  UNL1        0.0100
      4  C         22.4700  -21.6390  -12.7420 C.2     1  UNL1        0.0310
      5  C         23.1900  -22.3960  -11.8210 C.2     1  UNL1        0.0440
      6  C         22.5440  -22.8880  -10.6930 C.2     1  UNL1        0.0550
      7  C         21.1930  -22.5800  -10.4510 C.2     1  UNL1        0.0870
      8  N         24.5510  -22.6890  -12.1170 N.pl3   1  UNL1       -0.2810
      9  H         24.7630  -23.2060  -12.9690 H       1  UNL1        0.1790
     10  S         25.7970  -21.6300  -11.7070 S.O2    1  UNL1        0.2630
     11  O         25.3560  -20.7600  -10.6390 O.2     1  UNL1       -0.2000
     12  O         26.9810  -22.4510  -11.5600 O.2     1  UNL1       -0.2000
     13  C         26.0010  -20.6580  -13.1800 C.2     1  UNL1        0.0800
     14  C         26.6200  -19.4100  -13.1140 C.2     1  UNL1        0.0260
     15  C         26.7660  -18.6550  -14.2780 C.2     1  UNL1        0.0140
     16  C         26.3120  -19.1440  -15.5150 C.2     1  UNL1       -0.0260
     17  C         26.4500  -18.3920  -16.6920 C.2     1  UNL1        0.0120
     18  C         25.7050  -20.4220  -15.5780 C.2     1  UNL1       -0.0250
     19  C         26.0010  -18.8930  -17.9150 C.2     1  UNL1        0.0010
     20  C         25.4080  -20.1510  -17.9770 C.2     1  UNL1        0.0010
     21  C         25.2620  -20.9120  -16.8160 C.2     1  UNL1        0.0120
     22  C         25.5590  -21.1750  -14.4030 C.2     1  UNL1        0.0370
     23  S         20.5150  -23.2160   -8.9260 S.O2    1  UNL1        0.2630
     24  O         21.1620  -24.4900   -8.6780 O.2     1  UNL1       -0.2000
     25  O         20.5070  -22.1990   -7.8990 O.2     1  UNL1       -0.2000
     26  N         18.9220  -23.5790   -9.3620 N.pl3   1  UNL1       -0.2810
     27  H         18.8940  -24.2960  -10.0860 H       1  UNL1        0.1790
     28  C         17.9460  -23.6360   -8.3330 C.2     1  UNL1        0.0420
     29  C         18.1840  -24.4320   -7.2160 C.2     1  UNL1        0.0310
     30  C         17.2200  -24.5230   -6.2090 C.2     1  UNL1        0.0210
     31  C         16.0100  -23.8320   -6.3240 C.2     1  UNL1        0.0050
     32  C         15.7840  -23.0290   -7.4490 C.2     1  UNL1        0.0210
     33  C         16.7490  -22.9350   -8.4540 C.2     1  UNL1        0.0310
     34  S         14.8120  -23.9550   -5.0130 S.3     1  UNL1       -0.0610
     35  C         14.9390  -22.2960   -4.3160 C.3     1  UNL1        0.4200
     36  F         16.2110  -21.8320   -4.3890 F       1  UNL1       -0.2020
     37  F         14.1570  -21.4220   -4.9980 F       1  UNL1       -0.2020
@<TRIPOS>BOND
     1    20    19    2
     2    20    21    1
     3    19    17    1
     4    21    18    2
     5    17    16    2
     6    18    16    1
     7    18    22    1
     8    16    15    1
     9    22    13    2
    10    15    14    2
    11    13    14    1
    12    13    10    1
    13     9     8    1
    14     4     3    1
    15     4     5    2
    16     3     2    2
    17     8     5    1
    18     8    10    1
    19     5     6    1
    20    10    12    2
    21    10    11    2
    22     2     1    1
    23     2     7    1
    24     6     7    2
    25     7    23    1
    26    27    26    1
    27    26    23    1
    28    26    28    1
    29    23    24    2
    30    23    25    2
    31    33    28    2
    32    33    32    1
    33    28    29    1
    34    32    31    2
    35    29    30    2
    36    31    30    1
    37    31    34    1
    38    34    35    1
    39    37    35    1
    40    36    35    1
