@<TRIPOS>MOLECULE
74302_out_ligand_01.pdbqt
 28 31 0 0 0
SMALL
GASTEIGER

@<TRIPOS>ATOM
      1  C         20.4050  -22.8690  -10.0080 C.2     1  UNL1        0.0340
      2  C         19.8220  -22.0420  -10.9790 C.2     1  UNL1        0.0180
      3  C         20.5900  -21.5490  -12.0350 C.2     1  UNL1        0.0200
      4  C         21.9400  -21.8990  -12.1170 C.ar    1  UNL1        0.0610
      5  C         22.7910  -21.4080  -13.2170 C.ar    1  UNL1        0.2600
      6  O         22.3610  -20.6780  -14.1000 O.2     1  UNL1       -0.2670
      7  N         24.0970  -21.8230  -13.1870 N.ar    1  UNL1       -0.3020
      8  C         24.5820  -22.6430  -12.2160 C.ar    1  UNL1        0.1670
      9  N         23.8880  -23.1070  -11.2340 N.ar    1  UNL1       -0.2240
     10  C         22.5340  -22.7360  -11.1670 C.ar    1  UNL1        0.0760
     11  C         21.7560  -23.2260  -10.1150 C.2     1  UNL1        0.0500
     12  H         24.6800  -21.5170  -13.9490 H       1  UNL1        0.1710
     13  C         19.5440  -23.3730   -8.9040 C.2     1  UNL1        0.2520
     14  O         19.9240  -24.3240   -8.2300 O.2     1  UNL1       -0.2680
     15  N         18.3280  -22.7390   -8.7360 N.am    1  UNL1       -0.3440
     16  H         18.0710  -22.0030   -9.3800 H       1  UNL1        0.1640
     17  C         17.3980  -23.0520   -7.6110 C.3     1  UNL1        0.0600
     18  C         16.9880  -24.5720   -7.5510 C.3     1  UNL1        0.0360
     19  C         15.5380  -24.1160   -7.3170 C.3     1  UNL1        0.0060
     20  C         15.9010  -22.8190   -8.0570 C.3     1  UNL1        0.0360
     21  C         17.8730  -22.3480   -6.2400 C.2     1  UNL1       -0.0300
     22  C         18.8140  -21.2970   -6.2370 C.2     1  UNL1        0.0100
     23  C         19.2280  -20.6670   -5.0610 C.2     1  UNL1        0.0010
     24  C         18.7030  -21.0650   -3.8370 C.2     1  UNL1        0.0000
     25  C         17.7600  -22.0850   -3.7960 C.2     1  UNL1        0.0010
     26  C         17.3500  -22.7090   -4.9800 C.2     1  UNL1        0.0100
     27  S         26.2610  -23.0440  -12.3880 S.3     1  UNL1       -0.1050
     28  H         26.2720  -24.1340  -11.6130 H       1  UNL1        0.1100
@<TRIPOS>BOND
     1     6     5    2
     2    12     7    1
     3     5     7   ar
     4     5     4   ar
     5     7     8   ar
     6    27     8    1
     7    27    28    1
     8     8     9   ar
     9     4     3    2
    10     4    10   ar
    11     3     2    1
    12     9    10   ar
    13    10    11    2
    14     2     1    2
    15    11     1    1
    16     1    13    1
    17    16    15    1
    18    13    15   am
    19    13    14    2
    20    15    17    1
    21    20    17    1
    22    20    19    1
    23    17    18    1
    24    17    21    1
    25    18    19    1
    26    21    22    2
    27    21    26    1
    28    22    23    1
    29    23    24    2
    30    26    25    2
    31    24    25    1
