@<TRIPOS>MOLECULE
74300_out_ligand_01.pdbqt
 35 38 0 0 0
SMALL
GASTEIGER

@<TRIPOS>ATOM
      1  C         17.3700  -22.7250   -5.6540 C.2     1  UNL1        0.0540
      2  C         17.2650  -23.2590   -4.3620 C.2     1  UNL1        0.0190
      3  C         16.0090  -23.5670   -3.8370 C.2     1  UNL1        0.0010
      4  C         14.8600  -23.3530   -4.5990 C.2     1  UNL1        0.0020
      5  C         14.9600  -22.8330   -5.8910 C.2     1  UNL1        0.0250
      6  C         16.2130  -22.5290   -6.4290 C.2     1  UNL1        0.0380
      7  N         16.2720  -21.9180   -7.7260 N.pl3   1  UNL1       -0.1800
      8  H         15.5310  -21.2180   -7.8870 H       1  UNL1        0.1460
      9  S         16.2850  -22.9830   -9.0500 S.O2    1  UNL1        0.2460
     10  O         16.8460  -24.2520   -8.6340 O.2     1  UNL1       -0.2060
     11  O         14.9850  -22.8970   -9.6780 O.2     1  UNL1       -0.2060
     12  C         17.4360  -22.1880  -10.1490 C.2     1  UNL1        0.0770
     13  C         17.0730  -20.9740  -10.7830 C.2     1  UNL1        0.0270
     14  C         17.9650  -20.3290  -11.6480 C.2     1  UNL1        0.0330
     15  C         19.1870  -20.9330  -11.8350 C.ar    1  UNL1        0.0630
     16  N         20.2610  -20.5350  -12.6220 N.ar    1  UNL1       -0.3070
     17  C         19.5410  -22.1240  -11.1980 C.ar    1  UNL1        0.0640
     18  C         21.2950  -21.4730  -12.4820 C.ar    1  UNL1        0.3250
     19  H         20.3290  -19.7140  -13.2000 H       1  UNL1        0.1700
     20  O         22.3840  -21.4390  -13.0270 O.2     1  UNL1       -0.2470
     21  N         20.8300  -22.4540  -11.5960 N.ar    1  UNL1       -0.3060
     22  H         21.3770  -23.2510  -11.3080 H       1  UNL1        0.1700
     23  C         18.6910  -22.7810  -10.3430 C.2     1  UNL1        0.0560
     24  C         18.7040  -22.4110   -6.2300 C.2     1  UNL1        0.2580
     25  N         19.2200  -23.3750   -7.0720 N.am    1  UNL1       -0.3220
     26  H         18.7320  -24.2610   -7.1170 H       1  UNL1        0.1690
     27  O         19.2450  -21.3640   -5.8910 O.2     1  UNL1       -0.2670
     28  C         20.4430  -23.3050   -7.7740 C.2     1  UNL1        0.0520
     29  C         21.1860  -22.1270   -7.6690 C.2     1  UNL1        0.0350
     30  C         22.4050  -22.0140   -8.3340 C.2     1  UNL1        0.0600
     31  C         22.8490  -23.0880   -9.0870 C.2     1  UNL1        0.1630
     32  N         22.1670  -24.2430   -9.2100 N.2     1  UNL1       -0.2350
     33  C         20.9790  -24.3260   -8.5550 C.2     1  UNL1        0.1490
     34  O         24.0630  -22.9270   -9.7240 O.2     1  UNL1       -0.3390
     35  C         24.2560  -21.6070  -10.2240 C.3     1  UNL1        0.2110
@<TRIPOS>BOND
     1    19    16    1
     2    20    18    2
     3    16    18   ar
     4    16    15   ar
     5    18    21   ar
     6    15    14    2
     7    15    17   ar
     8    14    13    1
     9    21    22    1
    10    21    17   ar
    11    17    23    2
    12    13    12    2
    13    23    12    1
    14    35    34    1
    15    12     9    1
    16    34    31    1
    17    11     9    2
    18    32    31    2
    19    32    33    1
    20    31    30    1
    21     9    10    2
    22     9     7    1
    23    33    28    2
    24    30    29    2
    25     8     7    1
    26    28    29    1
    27    28    25    1
    28     7     6    1
    29    26    25    1
    30    25    24   am
    31     6     5    1
    32     6     1    2
    33    24    27    2
    34    24     1    1
    35     5     4    2
    36     1     2    1
    37     4     3    1
    38     2     3    2
