@<TRIPOS>MOLECULE
74304_out_ligand_01.pdbqt
 37 41 0 0 0
SMALL
GASTEIGER

@<TRIPOS>ATOM
      1  C         19.9430  -22.3410  -10.4170 C.2     1  UNL1        0.0540
      2  C         19.0580  -21.4250  -11.0020 C.2     1  UNL1        0.0190
      3  C         19.4570  -20.6890  -12.1200 C.2     1  UNL1        0.0010
      4  C         20.7340  -20.8610  -12.6530 C.2     1  UNL1        0.0020
      5  C         21.6220  -21.7690  -12.0700 C.2     1  UNL1        0.0250
      6  C         21.2360  -22.5020  -10.9450 C.2     1  UNL1        0.0380
      7  N         22.1430  -23.4850  -10.4240 N.pl3   1  UNL1       -0.1800
      8  H         22.4600  -24.1620  -11.1360 H       1  UNL1        0.1460
      9  S         23.5270  -22.8790   -9.6440 S.O2    1  UNL1        0.2460
     10  O         23.1880  -21.5730   -9.1220 O.2     1  UNL1       -0.2060
     11  O         24.0900  -23.9080   -8.7950 O.2     1  UNL1       -0.2060
     12  C         24.6310  -22.6070  -11.0120 C.2     1  UNL1        0.0770
     13  C         25.5000  -21.4890  -10.9980 C.2     1  UNL1        0.0270
     14  C         26.3770  -21.2560  -12.0650 C.2     1  UNL1        0.0330
     15  C         26.3360  -22.1580  -13.1030 C.ar    1  UNL1        0.0630
     16  N         27.0780  -22.1900  -14.2780 N.ar    1  UNL1       -0.3070
     17  C         25.4710  -23.2520  -13.1120 C.ar    1  UNL1        0.0640
     18  C         26.6810  -23.3030  -15.0330 C.ar    1  UNL1        0.3250
     19  H         27.7830  -21.5360  -14.5770 H       1  UNL1        0.1700
     20  O         27.1190  -23.6400  -16.1180 O.2     1  UNL1       -0.2470
     21  N         25.6820  -23.9540  -14.2940 N.ar    1  UNL1       -0.3060
     22  H         25.2100  -24.7870  -14.6060 H       1  UNL1        0.1700
     23  C         24.5970  -23.5090  -12.0860 C.2     1  UNL1        0.0560
     24  C         19.5380  -23.1180   -9.2190 C.2     1  UNL1        0.2540
     25  O         19.8820  -24.2920   -9.1170 O.2     1  UNL1       -0.2680
     26  N         18.7450  -22.4590   -8.3060 N.am    1  UNL1       -0.3480
     27  H         18.2710  -21.6220   -8.6180 H       1  UNL1        0.1630
     28  C         18.1040  -23.1870   -7.2190 C.3     1  UNL1        0.1180
     29  C         16.6470  -23.5020   -7.6100 C.3     1  UNL1        0.0300
     30  C         15.7680  -24.0400   -6.4740 C.3     1  UNL1        0.0070
     31  C         16.4420  -24.0820   -5.1050 C.3     1  UNL1        0.0390
     32  C         17.2990  -22.8680   -4.8680 C.2     1  UNL1       -0.0500
     33  C         17.3200  -22.2340   -3.6190 C.2     1  UNL1        0.0070
     34  C         18.1460  -22.4260   -5.9040 C.2     1  UNL1       -0.0290
     35  C         18.1820  -21.1610   -3.3950 C.2     1  UNL1        0.0010
     36  C         19.0380  -20.7320   -4.4060 C.2     1  UNL1        0.0010
     37  C         19.0280  -21.3660   -5.6500 C.2     1  UNL1        0.0100
@<TRIPOS>BOND
     1    20    18    2
     2    18    21   ar
     3    18    16   ar
     4    22    21    1
     5    19    16    1
     6    21    17   ar
     7    16    15   ar
     8    17    15   ar
     9    17    23    1
    10    15    14    1
    11     4     3    2
    12     4     5    1
    13     3     2    1
    14    23    12    2
    15     5     6    2
    16    14    13    2
    17     8     7    1
    18    12    13    1
    19    12     9    1
    20     2     1    2
    21     6     7    1
    22     6     1    1
    23     7     9    1
    24     1    24    1
    25     9    10    2
    26     9    11    2
    27    24    25    2
    28    24    26   am
    29    27    26    1
    30    26    28    1
    31    29    28    1
    32    29    30    1
    33    28    34    1
    34    30    31    1
    35    34    37    1
    36    34    32    2
    37    37    36    2
    38    31    32    1
    39    32    33    1
    40    36    35    1
    41    33    35    2
