@<TRIPOS>MOLECULE
74301_out_ligand_01.pdbqt
 35 38 0 0 0
SMALL
GASTEIGER

@<TRIPOS>ATOM
      1  C         17.2600  -22.7120   -5.5980 C.2     1  UNL1        0.0540
      2  C         17.1430  -23.2370   -4.3040 C.2     1  UNL1        0.0190
      3  C         15.8830  -23.5380   -3.7860 C.2     1  UNL1        0.0010
      4  C         14.7400  -23.3230   -4.5570 C.2     1  UNL1        0.0020
      5  C         14.8520  -22.8110   -5.8510 C.2     1  UNL1        0.0250
      6  C         16.1090  -22.5170   -6.3820 C.2     1  UNL1        0.0380
      7  N         16.1810  -21.9160   -7.6840 N.pl3   1  UNL1       -0.1800
      8  H         15.4320  -21.2300   -7.8620 H       1  UNL1        0.1460
      9  S         16.2300  -22.9920   -8.9970 S.O2    1  UNL1        0.2460
     10  O         16.8130  -24.2450   -8.5640 O.2     1  UNL1       -0.2060
     11  O         14.9330  -22.9420   -9.6360 O.2     1  UNL1       -0.2060
     12  C         17.3720  -22.1830  -10.0940 C.2     1  UNL1        0.0770
     13  C         17.0060  -20.9580  -10.7060 C.2     1  UNL1        0.0270
     14  C         17.8910  -20.3030  -11.5700 C.2     1  UNL1        0.0330
     15  C         19.1100  -20.9070  -11.7780 C.ar    1  UNL1        0.0630
     16  N         20.1760  -20.5000  -12.5700 N.ar    1  UNL1       -0.3070
     17  C         19.4660  -22.1090  -11.1640 C.ar    1  UNL1        0.0640
     18  C         21.2090  -21.4420  -12.4560 C.ar    1  UNL1        0.3250
     19  H         20.2390  -19.6700  -13.1370 H       1  UNL1        0.1700
     20  O         22.2920  -21.4040  -13.0110 O.2     1  UNL1       -0.2470
     21  N         20.7510  -22.4370  -11.5800 N.ar    1  UNL1       -0.3060
     22  H         21.2980  -23.2380  -11.3100 H       1  UNL1        0.1700
     23  C         18.6240  -22.7760  -10.3100 C.2     1  UNL1        0.0560
     24  C         18.5980  -22.4030   -6.1670 C.2     1  UNL1        0.2580
     25  O         19.1410  -21.3620   -5.8150 O.2     1  UNL1       -0.2670
     26  N         19.1080  -23.3700   -7.0120 N.am    1  UNL1       -0.3230
     27  H         18.6030  -24.2480   -7.0550 H       1  UNL1        0.1690
     28  C         20.3330  -23.3310   -7.7110 C.2     1  UNL1        0.0380
     29  C         20.8260  -24.3930   -8.4810 C.2     1  UNL1        0.0320
     30  C         22.0560  -24.2840   -9.1410 C.2     1  UNL1        0.0480
     31  C         22.7960  -23.1150   -9.0280 C.2     1  UNL1        0.1540
     32  F         23.9730  -23.0140   -9.6570 F       1  UNL1       -0.2030
     33  C         22.3180  -22.0600   -8.2630 C.2     1  UNL1        0.1570
     34  F         23.0310  -20.9320   -8.1470 F       1  UNL1       -0.2030
     35  C         21.0940  -22.1610   -7.6040 C.2     1  UNL1        0.0750
@<TRIPOS>BOND
     1    19    16    1
     2    20    18    2
     3    16    18   ar
     4    16    15   ar
     5    18    21   ar
     6    15    14    2
     7    15    17   ar
     8    21    22    1
     9    21    17   ar
    10    14    13    1
    11    17    23    2
    12    13    12    2
    13    23    12    1
    14    12     9    1
    15    32    31    1
    16    11     9    2
    17    30    31    2
    18    30    29    1
    19    31    33    1
    20     9    10    2
    21     9     7    1
    22    29    28    2
    23    33    34    1
    24    33    35    2
    25     8     7    1
    26    28    35    1
    27    28    26    1
    28     7     6    1
    29    27    26    1
    30    26    24   am
    31     6     5    1
    32     6     1    2
    33    24    25    2
    34    24     1    1
    35     5     4    2
    36     1     2    1
    37     4     3    1
    38     2     3    2
