@<TRIPOS>MOLECULE
74324_out_ligand_01.pdbqt
 35 38 0 0 0
SMALL
GASTEIGER

@<TRIPOS>ATOM
      1  C         17.4880  -22.6900   -5.6260 C.2     1  UNL1        0.0540
      2  C         17.4550  -23.2890   -4.3580 C.2     1  UNL1        0.0190
      3  C         16.2390  -23.7130   -3.8180 C.2     1  UNL1        0.0010
      4  C         15.0560  -23.5350   -4.5340 C.2     1  UNL1        0.0020
      5  C         15.0790  -22.9280   -5.7910 C.2     1  UNL1        0.0250
      6  C         16.2900  -22.4910   -6.3360 C.2     1  UNL1        0.0380
      7  N         16.2840  -21.9410   -7.6610 N.pl3   1  UNL1       -0.1800
      8  H         17.0130  -21.2260   -7.8100 H       1  UNL1        0.1460
      9  S         16.3900  -23.0620   -8.9330 S.O2    1  UNL1        0.2460
     10  O         17.1000  -24.2160   -8.4250 O.2     1  UNL1       -0.2060
     11  O         15.0960  -23.1880   -9.5690 O.2     1  UNL1       -0.2060
     12  C         17.4960  -22.2410  -10.0590 C.2     1  UNL1        0.0770
     13  C         17.0770  -21.0530  -10.7090 C.2     1  UNL1        0.0270
     14  C         17.9310  -20.3930  -11.6000 C.2     1  UNL1        0.0330
     15  C         19.1680  -20.9580  -11.8030 C.ar    1  UNL1        0.0630
     16  N         20.2130  -20.5360  -12.6180 N.ar    1  UNL1       -0.3070
     17  C         19.5690  -22.1330  -11.1660 C.ar    1  UNL1        0.0640
     18  C         21.2730  -21.4450  -12.4990 C.ar    1  UNL1        0.3250
     19  H         20.2360  -19.7260  -13.2160 H       1  UNL1        0.1700
     20  O         22.3470  -21.3880  -13.0710 O.2     1  UNL1       -0.2470
     21  N         20.8580  -22.4300  -11.5920 N.ar    1  UNL1       -0.3060
     22  H         21.4270  -23.2180  -11.3240 H       1  UNL1        0.1700
     23  C         18.7590  -22.8070  -10.2880 C.2     1  UNL1        0.0560
     24  C         18.7750  -22.2160   -6.2040 C.2     1  UNL1        0.2580
     25  O         19.1190  -21.0620   -5.9670 O.2     1  UNL1       -0.2670
     26  N         19.4400  -23.1340   -6.9890 N.am    1  UNL1       -0.3200
     27  H         18.9610  -24.0020   -7.2120 H       1  UNL1        0.1690
     28  C         20.6760  -22.9640   -7.6500 C.2     1  UNL1        0.0740
     29  C         21.4560  -21.8090   -7.5780 C.2     1  UNL1        0.0360
     30  C         22.6710  -21.7400   -8.2700 C.2     1  UNL1        0.0440
     31  C         23.1020  -22.8250   -9.0270 C.2     1  UNL1        0.1190
     32  F         24.2660  -22.7500   -9.6830 F       1  UNL1       -0.2060
     33  C         22.3460  -23.9840   -9.1090 C.2     1  UNL1        0.0860
     34  C         21.1410  -24.0420   -8.4180 C.2     1  UNL1        0.1460
     35  F         20.4080  -25.1650   -8.4880 F       1  UNL1       -0.2040
@<TRIPOS>BOND
     1    19    16    1
     2    20    18    2
     3    16    18   ar
     4    16    15   ar
     5    18    21   ar
     6    15    14    2
     7    15    17   ar
     8    14    13    1
     9    21    22    1
    10    21    17   ar
    11    17    23    2
    12    13    12    2
    13    23    12    1
    14    12     9    1
    15    32    31    1
    16    11     9    2
    17    33    31    2
    18    33    34    1
    19    31    30    1
    20     9    10    2
    21     9     7    1
    22    35    34    1
    23    34    28    2
    24    30    29    2
    25     8     7    1
    26     7     6    1
    27    28    29    1
    28    28    26    1
    29    27    26    1
    30    26    24   am
    31     6     5    1
    32     6     1    2
    33    24    25    2
    34    24     1    1
    35     5     4    2
    36     1     2    1
    37     4     3    1
    38     2     3    2
