@<TRIPOS>MOLECULE
74341_out_ligand_01.pdbqt
 32 35 0 0 0
SMALL
GASTEIGER

@<TRIPOS>ATOM
      1  C         19.5580  -22.5720  -10.2860 C.2     1  UNL1        0.0320
      2  C         18.2100  -22.2060  -10.3450 C.2     1  UNL1        0.0180
      3  C         17.3100  -22.7440   -9.4260 C.2     1  UNL1        0.0260
      4  C         17.7710  -23.6410   -8.4540 C.2     1  UNL1        0.0790
      5  C         19.1110  -24.0470   -8.4270 C.2     1  UNL1        0.0260
      6  C         20.0090  -23.5100   -9.3490 C.2     1  UNL1        0.0180
      7  C         20.5060  -22.0010  -11.2670 C.2     1  UNL1        0.2580
      8  N         21.8830  -22.2360  -11.0680 N.am    1  UNL1       -0.3130
      9  C         22.3710  -22.5600   -9.7180 C.3     1  UNL1        0.1330
     10  C         22.8680  -21.8540  -12.0550 C.2     1  UNL1        0.0440
     11  C         23.7880  -23.0990   -9.6780 C.3     1  UNL1        0.0250
     12  C         24.7150  -22.0950  -10.3260 C.3     1  UNL1        0.0420
     13  C         24.2350  -21.7820  -11.7160 C.2     1  UNL1       -0.0280
     14  C         25.1950  -21.3820  -12.6700 C.2     1  UNL1        0.0460
     15  C         24.8230  -21.0920  -13.9790 C.2     1  UNL1        0.0680
     16  C         23.4840  -21.2100  -14.3320 C.2     1  UNL1        0.0390
     17  C         22.5230  -21.5880  -13.3870 C.2     1  UNL1        0.0330
     18  O         19.9830  -21.3500  -12.1670 O.2     1  UNL1       -0.2670
     19  O         25.6560  -20.7070  -14.9920 O.2     1  UNL1       -0.3560
     20  C         25.1110  -20.6920  -16.3040 C.3     1  UNL1        0.2100
     21  S         16.6230  -24.3210   -7.2720 S.O2    1  UNL1        0.2630
     22  O         17.3870  -25.1270   -6.3410 O.2     1  UNL1       -0.2000
     23  O         15.5050  -24.8770   -8.0010 O.2     1  UNL1       -0.2000
     24  N         16.1220  -22.9670   -6.4000 N.pl3   1  UNL1       -0.2800
     25  H         15.1190  -22.9580   -6.2270 H       1  UNL1        0.1790
     26  C         16.9880  -22.3720   -5.4370 C.2     1  UNL1        0.0480
     27  C         18.0060  -21.5150   -5.8650 C.2     1  UNL1        0.0300
     28  C         18.8830  -20.9450   -4.9440 C.2     1  UNL1        0.0020
     29  C         18.7430  -21.2260   -3.5880 C.2     1  UNL1        0.0010
     30  C         17.7210  -22.0700   -3.1530 C.2     1  UNL1        0.0090
     31  C         16.8320  -22.6550   -4.0690 C.2     1  UNL1       -0.0350
     32  C         15.7360  -23.5450   -3.5550 C.3     1  UNL1        0.0500
@<TRIPOS>BOND
     1    20    19    1
     2    19    15    1
     3    16    15    2
     4    16    17    1
     5    15    14    1
     6    17    10    2
     7    14    13    2
     8    18     7    2
     9    10    13    1
    10    10     8    1
    11    13    12    1
    12     7     8   am
    13     7     1    1
    14     8     9    1
    15     2     1    2
    16     2     3    1
    17    12    11    1
    18     1     6    1
    19     9    11    1
    20     3     4    2
    21     6     5    2
    22     4     5    1
    23     4    21    1
    24    23    21    2
    25    21    24    1
    26    21    22    2
    27    24    25    1
    28    24    26    1
    29    27    26    2
    30    27    28    1
    31    26    31    1
    32    28    29    2
    33    31    32    1
    34    31    30    2
    35    29    30    1
