@<TRIPOS>MOLECULE
74352_out_ligand_01.pdbqt
 26 28 0 0 0
SMALL
GASTEIGER

@<TRIPOS>ATOM
      1  C         18.2600  -23.7230   -7.8250 C.2     1  UNL1        0.2280
      2  O         17.9700  -24.7780   -7.2500 O.2     1  UNL1       -0.2730
      3  N         19.2900  -23.6720   -8.7710 N.am    1  UNL1       -0.3170
      4  C         20.2910  -24.7370   -8.7140 C.3     1  UNL1        0.1320
      5  C         21.6830  -24.1410   -8.7850 C.3     1  UNL1        0.0250
      6  C         21.8620  -23.4050  -10.1050 C.3     1  UNL1        0.0430
      7  C         20.6540  -22.5910  -10.5110 C.2     1  UNL1       -0.0150
      8  C         20.7370  -21.7110  -11.6140 C.2     1  UNL1        0.0400
      9  C         19.6070  -21.0500  -12.1060 C.2     1  UNL1        0.0180
     10  C         18.3770  -21.2560  -11.5000 C.2     1  UNL1        0.0030
     11  C         18.2770  -22.1120  -10.4010 C.2     1  UNL1        0.0300
     12  C         19.4030  -22.7670   -9.8740 C.2     1  UNL1        0.0440
     13  C         17.5660  -22.4150   -7.4440 C.3     1  UNL1        0.1420
     14  C         17.5140  -22.1810   -5.9390 C.2     1  UNL1       -0.0380
     15  C         18.5920  -21.5520   -5.2680 C.2     1  UNL1       -0.0550
     16  C         18.5270  -21.3600   -3.8790 C.2     1  UNL1        0.0070
     17  C         19.8280  -21.0870   -5.9930 C.3     1  UNL1        0.0490
     18  C         17.4110  -21.7640   -3.1530 C.2     1  UNL1        0.0010
     19  C         16.3420  -22.3660   -3.8070 C.2     1  UNL1        0.0070
     20  C         16.3730  -22.5760   -5.1940 C.2     1  UNL1       -0.0550
     21  C         15.1810  -23.2320   -5.8410 C.3     1  UNL1        0.0490
     22  C         22.0020  -21.4600  -12.3360 C.2     1  UNL1        0.2490
     23  N         21.8790  -20.8530  -13.5520 N.am    1  UNL1       -0.3660
     24  H         22.7160  -20.7680  -14.1160 H       1  UNL1        0.1590
     25  H         20.9820  -20.6980  -13.9920 H       1  UNL1        0.1590
     26  O         23.0780  -21.8290  -11.8900 O.2     1  UNL1       -0.2680
@<TRIPOS>BOND
     1    24    23    1
     2    25    23    1
     3    23    22   am
     4    22    26    2
     5    22     8    1
     6     9     8    1
     7     9    10    2
     8     8     7    2
     9    10    11    1
    10     7     6    1
    11     7    12    1
    12    11    12    2
    13     6     5    1
    14    12     3    1
    15     5     4    1
    16     3     4    1
    17     3     1   am
    18     1    13    1
    19     1     2    2
    20    13    14    1
    21    17    15    1
    22    14    15    2
    23    14    20    1
    24    21    20    1
    25    15    16    1
    26    20    19    2
    27    16    18    2
    28    19    18    1
