@<TRIPOS>MOLECULE
74350_out_ligand_01.pdbqt
 27 29 0 0 0
SMALL
GASTEIGER

@<TRIPOS>ATOM
      1  C         18.7480  -22.5910   -9.5490 C.2     1  UNL1        0.0350
      2  C         17.6400  -22.6660  -10.3930 C.2     1  UNL1        0.0290
      3  C         16.3530  -22.8100   -9.8660 C.2     1  UNL1        0.0030
      4  C         16.1590  -22.8730   -8.4870 C.2     1  UNL1        0.0150
      5  C         17.2600  -22.7840   -7.6280 C.2     1  UNL1        0.0120
      6  C         18.5500  -22.6560   -8.1640 C.2     1  UNL1        0.0440
      7  N         20.0760  -22.4630  -10.0030 N.am    1  UNL1       -0.3230
      8  C         20.5870  -21.4940  -10.8430 C.2     1  UNL1        0.2560
      9  O         20.0070  -20.5180  -11.3010 O.2     1  UNL1       -0.2670
     10  H         20.7380  -23.1450   -9.6490 H       1  UNL1        0.1690
     11  C         22.0290  -21.6720  -11.1530 C.2     1  UNL1        0.0380
     12  C         23.0110  -21.7530  -10.1490 C.2     1  UNL1       -0.0460
     13  C         24.3530  -21.8560  -10.5430 C.2     1  UNL1        0.0080
     14  C         22.6790  -21.7250   -8.6840 C.3     1  UNL1        0.0490
     15  C         24.7010  -21.9190  -11.8960 C.2     1  UNL1        0.0070
     16  C         23.7170  -21.8920  -12.8880 C.2     1  UNL1       -0.0610
     17  C         24.0940  -21.9440  -14.3400 C.3     1  UNL1        0.0480
     18  C         22.3770  -21.7560  -12.5090 C.2     1  UNL1        0.0240
     19  C         17.1110  -22.8450   -6.1490 C.2     1  UNL1        0.1410
     20  N         17.8460  -22.1020   -5.3810 N.2     1  UNL1       -0.2350
     21  C         17.6670  -22.2020   -4.0210 C.2     1  UNL1        0.0380
     22  C         18.5710  -21.3360   -3.1910 C.3     1  UNL1        0.0700
     23  C         16.7610  -23.0060   -3.4460 C.2     1  UNL1        0.1010
     24  C         15.9080  -23.8200   -4.3190 C.2     1  UNL1        0.2480
     25  O         15.0300  -24.5450   -3.8670 O.2     1  UNL1       -0.2680
     26  N         16.1580  -23.7010   -5.6520 N.am    1  UNL1       -0.3070
     27  H         15.5410  -24.2240   -6.2530 H       1  UNL1        0.1700
@<TRIPOS>BOND
     1    17    16    1
     2    16    18    1
     3    16    15    2
     4    18    11    2
     5    15    13    1
     6     9     8    2
     7    11     8    1
     8    11    12    1
     9     8     7   am
    10    13    12    2
    11     2     3    1
    12     2     1    2
    13    12    14    1
    14     7    10    1
    15     7     1    1
    16     3     4    2
    17     1     6    1
    18     4     5    1
    19     6     5    2
    20     5    19    1
    21    27    26    1
    22    19    26    1
    23    19    20    2
    24    26    24   am
    25    20    21    1
    26    24    25    2
    27    24    23    1
    28    21    23    2
    29    21    22    1
