@<TRIPOS>MOLECULE
74365_out_ligand_01.pdbqt
 30 34 0 0 0
SMALL
GASTEIGER

@<TRIPOS>ATOM
      1  O         21.2090  -21.5900   -7.2060 O.2     1  UNL1       -0.2670
      2  C         20.3740  -22.2130   -7.8550 C.2     1  UNL1        0.2580
      3  N         20.6100  -22.8200   -9.0720 N.am    1  UNL1       -0.3230
      4  H         19.8050  -23.2960   -9.4790 H       1  UNL1        0.1690
      5  C         18.9770  -22.3310   -7.2970 C.2     1  UNL1        0.0620
      6  C         18.8720  -22.2420   -5.8970 C.2     1  UNL1        0.0310
      7  C         17.6430  -22.3360   -5.2480 C.2     1  UNL1       -0.0240
      8  C         17.5900  -22.2410   -3.8470 C.2     1  UNL1        0.0120
      9  C         16.4700  -22.5240   -6.0080 C.2     1  UNL1       -0.0130
     10  C         16.3800  -22.3300   -3.1670 C.2     1  UNL1        0.0010
     11  C         15.2090  -22.5140   -3.8830 C.2     1  UNL1        0.0010
     12  C         15.2540  -22.6100   -5.2780 C.2     1  UNL1        0.0130
     13  C         16.5750  -22.6150   -7.4430 C.2     1  UNL1        0.0050
     14  C         15.4510  -22.8030   -8.2820 C.2     1  UNL1        0.0160
     15  C         17.8370  -22.5180   -8.0910 C.2     1  UNL1        0.0830
     16  C         15.5720  -22.8880   -9.6630 C.2     1  UNL1        0.0200
     17  C         16.8300  -22.7830  -10.1950 C.2     1  UNL1        0.1170
     18  N         17.9390  -22.6040   -9.4470 N.2     1  UNL1       -0.2590
     19  C         21.8070  -22.8640   -9.8120 C.2     1  UNL1        0.0350
     20  C         23.0330  -23.2770   -9.2980 C.2     1  UNL1        0.0300
     21  C         24.1760  -23.2890  -10.1100 C.2     1  UNL1        0.0170
     22  C         24.1210  -22.8890  -11.4530 C.2     1  UNL1        0.0120
     23  C         22.8850  -22.4750  -11.9640 C.2     1  UNL1        0.0170
     24  C         21.7420  -22.4630  -11.1510 C.2     1  UNL1        0.0300
     25  C         25.3430  -22.9180  -12.2600 C.2     1  UNL1        0.1610
     26  N         25.9470  -21.8850  -12.8210 N.2     1  UNL1       -0.1300
     27  N         27.0620  -22.3350  -13.4910 N.2     1  UNL1       -0.1430
     28  C         27.1210  -23.6310  -13.3280 C.2     1  UNL1        0.2330
     29  N         26.0700  -24.0410  -12.5670 N.pl3   1  UNL1       -0.3320
     30  H         25.8700  -24.9860  -12.2850 H       1  UNL1        0.1680
@<TRIPOS>BOND
     1    27    28    2
     2    27    26    1
     3    28    29    1
     4    26    25    2
     5    29    30    1
     6    29    25    1
     7    25    22    1
     8    23    22    2
     9    23    24    1
    10    22    21    1
    11    24    19    2
    12    17    16    1
    13    17    18    2
    14    21    20    2
    15    19    20    1
    16    19     3    1
    17    16    14    2
    18     4     3    1
    19    18    15    1
    20     3     2   am
    21    14    13    1
    22    15    13    1
    23    15     5    2
    24     2     5    1
    25     2     1    2
    26    13     9    2
    27     5     6    1
    28     9    12    1
    29     9     7    1
    30     6     7    2
    31    12    11    2
    32     7     8    1
    33    11    10    1
    34     8    10    2
