@<TRIPOS>MOLECULE
74385_out_ligand_01.pdbqt
 30 33 0 0 0
SMALL
GASTEIGER

@<TRIPOS>ATOM
      1  C         18.2890  -22.5590  -10.1900 C.2     1  UNL1        0.1450
      2  N         17.9040  -21.5180  -10.9690 N.2     1  UNL1       -0.2230
      3  C         18.8280  -20.8250  -11.6550 C.2     1  UNL1        0.2370
      4  N         20.1520  -21.0260  -11.6810 N.2     1  UNL1       -0.2210
      5  C         20.5260  -22.0610  -10.9020 C.2     1  UNL1        0.1680
      6  C         19.6650  -22.8460  -10.1500 C.2     1  UNL1        0.0770
      7  C         20.5050  -23.7780   -9.5180 C.2     1  UNL1        0.1580
      8  N         21.7910  -23.6190   -9.8240 N.2     1  UNL1       -0.1770
      9  N         21.8120  -22.5550  -10.6830 N.pl3   1  UNL1       -0.2150
     10  N         17.3670  -23.3090   -9.4450 N.pl3   1  UNL1       -0.3400
     11  H         16.8570  -23.9890   -9.9920 H       1  UNL1        0.1670
     12  C         16.9950  -23.2860   -8.0890 C.2     1  UNL1        0.0330
     13  C         17.7140  -24.0860   -7.1850 C.2     1  UNL1        0.0300
     14  C         17.4080  -24.1010   -5.8190 C.2     1  UNL1        0.0190
     15  C         16.3770  -23.3010   -5.3210 C.2     1  UNL1        0.0320
     16  C         15.6450  -22.5070   -6.2060 C.2     1  UNL1        0.0190
     17  C         15.9590  -22.4990   -7.5740 C.2     1  UNL1        0.0300
     18  C         16.0870  -23.3470   -3.8630 C.2     1  UNL1        0.2490
     19  N         16.2220  -22.1860   -3.1530 N.am    1  UNL1       -0.3660
     20  H         16.1450  -22.2750   -2.1480 H       1  UNL1        0.1590
     21  H         16.7430  -21.3960   -3.5090 H       1  UNL1        0.1590
     22  O         15.7720  -24.3890   -3.3020 O.2     1  UNL1       -0.2680
     23  C         23.0620  -22.1100  -11.2160 C.2     1  UNL1        0.0630
     24  C         24.0610  -21.6560  -10.3300 C.2     1  UNL1        0.0350
     25  C         25.2960  -21.2120  -10.8140 C.2     1  UNL1        0.0480
     26  C         25.5390  -21.2200  -12.1810 C.2     1  UNL1        0.1540
     27  F         26.7220  -20.7950  -12.6430 F       1  UNL1       -0.2030
     28  C         24.5610  -21.6650  -13.0610 C.2     1  UNL1        0.1570
     29  F         24.7990  -21.6700  -14.3800 F       1  UNL1       -0.2030
     30  C         23.3250  -22.1100  -12.5930 C.2     1  UNL1        0.0770
@<TRIPOS>BOND
     1    29    28    1
     2    28    30    1
     3    28    26    2
     4    27    26    1
     5    30    23    2
     6    26    25    1
     7     4     3    2
     8     4     5    1
     9     3     2    1
    10    23     9    1
    11    23    24    1
    12     2     1    2
    13     5     9    1
    14     5     6    2
    15    25    24    2
    16     9     8    1
    17     1     6    1
    18     1    10    1
    19     6     7    1
    20    11    10    1
    21     8     7    2
    22    10    12    1
    23    12    17    2
    24    12    13    1
    25    17    16    1
    26    13    14    2
    27    16    15    2
    28    14    15    1
    29    15    18    1
    30    18    22    2
    31    18    19   am
    32    21    19    1
    33    19    20    1
