@<TRIPOS>MOLECULE
74397_out_ligand_01.pdbqt
 28 30 0 0 0
SMALL
GASTEIGER

@<TRIPOS>ATOM
      1  C         16.1260  -23.2820   -9.5190 C.3     1  UNL1        0.0990
      2  C         15.7750  -24.5860   -8.8160 C.3     1  UNL1        0.0410
      3  C         16.2060  -24.3320   -7.3730 C.3     1  UNL1        0.0980
      4  N         15.9630  -22.8860   -7.1500 N.pl3   1  UNL1       -0.2810
      5  C         15.7260  -22.2330   -8.4630 C.3     1  UNL1        0.1200
      6  N         17.5440  -23.2310   -9.8710 N.am    1  UNL1       -0.3510
      7  C         18.0090  -22.2300  -10.7000 C.2     1  UNL1        0.2520
      8  O         17.2720  -21.4140  -11.2390 O.2     1  UNL1       -0.2680
      9  H         18.2010  -23.6370   -9.2180 H       1  UNL1        0.1630
     10  C         19.4850  -22.1390  -10.8660 C.2     1  UNL1        0.0350
     11  C         19.9820  -21.5390  -12.0280 C.2     1  UNL1        0.0590
     12  C         21.3540  -21.4290  -12.2050 C.2     1  UNL1        0.1170
     13  C         22.2450  -21.9140  -11.2500 C.2     1  UNL1        0.0490
     14  F         21.8310  -20.8410  -13.3090 F       1  UNL1       -0.2060
     15  C         21.7630  -22.5390  -10.0940 C.2     1  UNL1       -0.0580
     16  C         22.7240  -23.0560   -9.0660 C.3     1  UNL1        0.0480
     17  C         20.3760  -22.6450   -9.9050 C.2     1  UNL1        0.0240
     18  C         16.8910  -22.3350   -6.2420 C.2     1  UNL1        0.0260
     19  C         18.1400  -21.8480   -6.6700 C.2     1  UNL1        0.0250
     20  C         19.1020  -21.3800   -5.7660 C.2     1  UNL1        0.0020
     21  C         18.8410  -21.3920   -4.4020 C.2     1  UNL1        0.0010
     22  C         17.6130  -21.8580   -3.9430 C.2     1  UNL1        0.0190
     23  C         16.6340  -22.3140   -4.8450 C.2     1  UNL1        0.0530
     24  C         15.3330  -22.7190   -4.2320 C.2     1  UNL1        0.2510
     25  N         15.1070  -24.0580   -4.0860 N.am    1  UNL1       -0.3660
     26  H         15.9000  -24.6890   -4.1760 H       1  UNL1        0.1590
     27  H         14.2940  -24.3480   -3.5650 H       1  UNL1        0.1590
     28  O         14.4900  -21.8960   -3.8960 O.2     1  UNL1       -0.2680
@<TRIPOS>BOND
     1    14    12    1
     2    12    11    1
     3    12    13    2
     4    11    10    2
     5    13    15    1
     6     8     7    2
     7    10     7    1
     8    10    17    1
     9     7     6   am
    10    15    17    2
    11    15    16    1
    12     6     1    1
    13     6     9    1
    14     1     2    1
    15     1     5    1
    16     2     3    1
    17     5     4    1
    18     3     4    1
    19     4    18    1
    20    19    18    2
    21    19    20    1
    22    18    23    1
    23    20    21    2
    24    23    24    1
    25    23    22    2
    26    21    22    1
    27    24    25   am
    28    24    28    2
    29    26    25    1
    30    25    27    1
