@<TRIPOS>MOLECULE
74414_out_ligand_01.pdbqt
 23 26 0 0 0
SMALL
GASTEIGER

@<TRIPOS>ATOM
      1  C         17.3750  -20.7890  -11.4030 C.2     1  UNL1        0.0030
      2  C         17.0560  -21.6610  -10.3610 C.2     1  UNL1        0.0290
      3  C         17.9870  -22.5830   -9.8670 C.2     1  UNL1        0.0290
      4  C         19.2770  -22.5520  -10.4110 C.2     1  UNL1        0.0440
      5  C         19.6260  -21.6800  -11.4610 C.2     1  UNL1        0.0140
      6  C         18.6550  -20.8040  -11.9570 C.2     1  UNL1        0.0150
      7  N         17.6160  -23.3810   -8.7840 N.pl3   1  UNL1       -0.3850
      8  H         16.9110  -24.0720   -9.0440 H       1  UNL1        0.1600
      9  C         18.6210  -23.9500   -7.8630 C.3     1  UNL1        0.0900
     10  C         19.6090  -22.8300   -7.4390 C.3     1  UNL1        0.0640
     11  C         18.9720  -22.3070   -6.1860 C.2     1  UNL1       -0.0500
     12  C         19.2370  -21.1190   -5.5260 C.2     1  UNL1        0.0070
     13  C         18.0420  -23.2220   -5.6810 C.2     1  UNL1       -0.0500
     14  C         18.5420  -20.8510   -4.3440 C.2     1  UNL1        0.0010
     15  C         17.6090  -21.7690   -3.8370 C.2     1  UNL1        0.0010
     16  C         17.3590  -22.9700   -4.5040 C.2     1  UNL1        0.0070
     17  C         17.9690  -24.4450   -6.5470 C.3     1  UNL1        0.0640
     18  C         20.9890  -21.7230  -11.9950 C.2     1  UNL1        0.1610
     19  N         22.0040  -22.4290  -11.5260 N.2     1  UNL1       -0.1300
     20  N         23.1100  -22.1840  -12.3050 N.2     1  UNL1       -0.1430
     21  C         22.7580  -21.3270  -13.2300 C.2     1  UNL1        0.2330
     22  N         21.4440  -21.0090  -13.0760 N.pl3   1  UNL1       -0.3320
     23  H         20.9130  -20.3600  -13.6360 H       1  UNL1        0.1680
@<TRIPOS>BOND
     1    23    22    1
     2    21    22    1
     3    21    20    2
     4    22    18    1
     5    20    19    1
     6    18    19    2
     7    18     5    1
     8     6     5    1
     9     6     1    2
    10     5     4    2
    11     1     2    1
    12     4     3    1
    13     2     3    2
    14     3     7    1
    15     8     7    1
    16     7     9    1
    17     9    10    1
    18     9    17    1
    19    10    11    1
    20    17    13    1
    21    11    13    2
    22    11    12    1
    23    13    16    1
    24    12    14    2
    25    16    15    2
    26    14    15    1
