@<TRIPOS>MOLECULE
74438_out_ligand_01.pdbqt
 34 36 0 0 0
SMALL
GASTEIGER

@<TRIPOS>ATOM
      1  N         22.8320  -23.4490   -9.4260 N.am    1  UNL1       -0.3270
      2  C         23.6130  -22.3410   -9.7070 C.2     1  UNL1        0.2220
      3  O         23.4060  -21.1860   -9.3440 O.2     1  UNL1       -0.2730
      4  H         23.1620  -24.3450   -9.7620 H       1  UNL1        0.1690
      5  C         21.6170  -23.4810   -8.7090 C.2     1  UNL1        0.0340
      6  C         21.1310  -22.4180   -7.9450 C.2     1  UNL1        0.0300
      7  C         19.9130  -22.5290   -7.2580 C.2     1  UNL1        0.0190
      8  C         19.1640  -23.7090   -7.3340 C.2     1  UNL1        0.0320
      9  C         19.6520  -24.7800   -8.0920 C.2     1  UNL1        0.0190
     10  C         20.8660  -24.6630   -8.7780 C.2     1  UNL1        0.0300
     11  C         17.8710  -23.8850   -6.6120 C.2     1  UNL1        0.2510
     12  N         16.7610  -23.2950   -7.1810 N.am    1  UNL1       -0.3560
     13  H         16.8140  -23.0500   -8.1670 H       1  UNL1        0.1620
     14  O         17.8290  -24.5480   -5.5800 O.2     1  UNL1       -0.2680
     15  C         15.4270  -23.5600   -6.6690 C.3     1  UNL1        0.1330
     16  C         14.9420  -22.4760   -5.7180 C.3     1  UNL1        0.1290
     17  C         15.1360  -22.8790   -4.2830 C.2     1  UNL1        0.1400
     18  O         15.1440  -22.1410   -3.3100 O.2     1  UNL1       -0.6500
     19  O         15.3630  -24.2000   -4.1490 O.3     1  UNL1       -0.7760
     20  H         15.6700  -24.4920   -5.0340 H       1  UNL1        0.1670
     21  C         24.8570  -22.6850  -10.5090 C.3     1  UNL1        0.1110
     22  C         24.5030  -22.9870  -11.9620 C.3     1  UNL1        0.0960
     23  C         23.3020  -22.2320  -12.4070 C.2     1  UNL1        0.1460
     24  N         23.1900  -21.3600  -13.3860 N.2     1  UNL1       -0.2380
     25  C         21.8700  -20.9840  -13.3400 C.2     1  UNL1        0.1570
     26  C         21.2160  -21.6480  -12.3250 C.2     1  UNL1        0.1050
     27  O         22.1420  -22.4610  -11.7180 O.2     1  UNL1       -0.2940
     28  C         19.8560  -21.6700  -11.7990 C.2     1  UNL1       -0.0010
     29  C         19.3290  -22.8220  -11.1910 C.2     1  UNL1        0.0170
     30  C         18.0220  -22.8350  -10.6900 C.2     1  UNL1        0.0430
     31  C         17.2360  -21.6960  -10.7960 C.2     1  UNL1        0.1160
     32  F         15.9850  -21.7070  -10.3160 F       1  UNL1       -0.2060
     33  C         17.7310  -20.5440  -11.3920 C.2     1  UNL1        0.0430
     34  C         19.0370  -20.5310  -11.8920 C.2     1  UNL1        0.0170
@<TRIPOS>BOND
     1    24    25    1
     2    24    23    2
     3    25    26    2
     4    23    22    1
     5    23    27    1
     6    26    28    1
     7    26    27    1
     8    22    21    1
     9    34    28    2
    10    34    33    1
    11    28    29    1
    12    33    31    2
    13    29    30    2
    14    31    30    1
    15    31    32    1
    16    21     2    1
    17     4     1    1
    18     2     1   am
    19     2     3    2
    20     1     5    1
    21    10     5    2
    22    10     9    1
    23     5     6    1
    24    13    12    1
    25     9     8    2
    26     6     7    2
    27     8     7    1
    28     8    11    1
    29    12    15    1
    30    12    11   am
    31    15    16    1
    32    11    14    2
    33    16    17    1
    34    20    19    1
    35    17    19    1
    36    17    18    2
