@<TRIPOS>MOLECULE
74445_out_ligand_01.pdbqt
 29 32 0 0 0
SMALL
GASTEIGER

@<TRIPOS>ATOM
      1  C         23.1610  -23.9290   -8.8490 C.3     1  UNL1        0.1630
      2  N         22.7970  -23.1560  -10.0200 N.ar    1  UNL1       -0.2860
      3  C         23.7510  -22.8130  -10.9730 C.ar    1  UNL1        0.3300
      4  O         24.9400  -23.1230  -10.9010 O.2     1  UNL1       -0.2460
      5  N         23.3180  -22.0760  -12.0620 N.ar    1  UNL1       -0.2730
      6  C         22.0400  -21.6310  -12.3150 C.ar    1  UNL1        0.2800
      7  O         21.7560  -20.9670  -13.3060 O.2     1  UNL1       -0.2650
      8  C         21.1230  -22.0250  -11.3070 C.ar    1  UNL1        0.1660
      9  C         21.4940  -22.7490  -10.2130 C.ar    1  UNL1        0.1850
     10  N         20.4440  -22.9900   -9.3840 N.ar    1  UNL1       -0.0430
     11  C         19.4040  -22.4050   -9.9530 C.ar    1  UNL1        0.7120
     12  N         19.7860  -21.8260  -11.1500 N.ar    1  UNL1       -0.1720
     13  C         18.8910  -21.1150  -12.0360 C.3     1  UNL1        0.1500
     14  C         17.4440  -21.4850  -11.7600 C.3     1  UNL1        0.0420
     15  C         17.1800  -21.4450  -10.2570 C.3     1  UNL1        0.1490
     16  N         18.0970  -22.3570   -9.5500 N.pl3   1  UNL1       -0.1810
     17  H         24.0250  -21.8330  -12.7370 H       1  UNL1        0.1730
     18  C         17.6880  -22.6840   -8.2310 C.2     1  UNL1        0.0510
     19  C         18.3330  -22.1590   -7.0970 C.2     1  UNL1        0.0320
     20  C         17.9180  -22.4840   -5.8020 C.2     1  UNL1        0.0270
     21  C         16.8510  -23.3640   -5.6230 C.2     1  UNL1        0.0740
     22  C         16.1890  -23.9030   -6.7250 C.2     1  UNL1        0.0270
     23  C         16.6130  -23.5670   -8.0160 C.2     1  UNL1        0.0320
     24  S         16.3040  -23.7560   -3.9890 S.O2    1  UNL1        0.2390
     25  O         17.4330  -24.1950   -3.2010 O.2     1  UNL1       -0.2060
     26  O         15.0760  -24.5150   -4.0670 O.2     1  UNL1       -0.2060
     27  N         15.8820  -22.2480   -3.3890 N.3     1  UNL1       -0.2250
     28  H         15.9650  -21.5450   -4.1240 H       1  UNL1        0.1360
     29  H         14.9590  -22.2900   -2.9570 H       1  UNL1        0.1360
@<TRIPOS>BOND
     1     7     6    2
     2    17     5    1
     3     6     5   ar
     4     6     8   ar
     5     5     3   ar
     6    13    14    1
     7    13    12    1
     8    14    15    1
     9     8    12   ar
    10     8     9   ar
    11    12    11   ar
    12     3     4    2
    13     3     2   ar
    14    15    16    1
    15     9     2   ar
    16     9    10   ar
    17     2     1    1
    18    11    16    1
    19    11    10   ar
    20    16    18    1
    21    18    23    2
    22    18    19    1
    23    23    22    1
    24    19    20    2
    25    22    21    2
    26    20    21    1
    27    21    24    1
    28    28    27    1
    29    26    24    2
    30    24    27    1
    31    24    25    2
    32    27    29    1
