@<TRIPOS>MOLECULE
74448_out_ligand_01.pdbqt
 34 37 0 0 0
SMALL
GASTEIGER

@<TRIPOS>ATOM
      1  C         17.0550  -22.9390   -9.5480 C.2     1  UNL1       -0.0400
      2  C         18.3160  -23.5480   -9.4950 C.2     1  UNL1        0.0100
      3  C         19.3940  -23.0040  -10.1980 C.2     1  UNL1        0.0170
      4  C         19.2240  -21.8450  -10.9640 C.2     1  UNL1        0.0320
      5  C         17.9600  -21.2500  -11.0460 C.2     1  UNL1        0.0170
      6  C         16.8830  -21.7940  -10.3400 C.2     1  UNL1        0.0100
      7  C         15.8820  -23.5500   -8.8190 C.3     1  UNL1        0.1700
      8  N         16.3050  -24.0860   -7.5350 N.3     1  UNL1       -0.3110
      9  H         16.5070  -25.0820   -7.4590 H       1  UNL1        0.1720
     10  S         15.6680  -23.4060   -6.1440 S.O2    1  UNL1        0.2590
     11  O         14.6280  -22.4970   -6.5630 O.2     1  UNL1       -0.2010
     12  O         15.4010  -24.5040   -5.2430 O.2     1  UNL1       -0.2010
     13  C         17.0740  -22.5190   -5.4940 C.2     1  UNL1        0.0860
     14  C         17.1490  -22.0380   -4.1760 C.2     1  UNL1       -0.0390
     15  C         18.3070  -21.3410   -3.7930 C.2     1  UNL1        0.0090
     16  C         16.0670  -22.2260   -3.1530 C.3     1  UNL1        0.0500
     17  C         19.3660  -21.1420   -4.6850 C.2     1  UNL1        0.0070
     18  C         19.2920  -21.6260   -5.9920 C.2     1  UNL1       -0.0600
     19  C         20.4390  -21.4570   -6.9450 C.3     1  UNL1        0.0480
     20  C         18.1450  -22.3220   -6.3860 C.2     1  UNL1        0.0320
     21  C         20.3970  -21.3060  -11.7130 C.2     1  UNL1        0.2560
     22  O         20.2770  -20.2250  -12.2770 O.2     1  UNL1       -0.2670
     23  N         21.5130  -22.1240  -11.7140 N.am    1  UNL1       -0.3230
     24  H         21.4050  -23.0490  -11.3230 H       1  UNL1        0.1690
     25  C         22.7820  -21.8390  -12.2640 C.2     1  UNL1        0.0370
     26  C         23.9640  -21.8000  -11.5200 C.2     1  UNL1        0.0320
     27  C         25.1890  -21.5360  -12.1440 C.2     1  UNL1        0.0420
     28  C         25.2380  -21.3130  -13.5160 C.2     1  UNL1        0.1020
     29  C         24.0610  -21.3260  -14.2620 C.2     1  UNL1        0.1040
     30  O         26.4740  -21.0860  -14.0630 O.2     1  UNL1       -0.3460
     31  C         22.8410  -21.6000  -13.6420 C.2     1  UNL1        0.0690
     32  O         24.0240  -21.0910  -15.6140 O.2     1  UNL1       -0.3460
     33  C         25.2490  -20.5090  -16.0770 C.3     1  UNL1        0.2020
     34  C         26.4480  -21.2290  -15.4870 C.3     1  UNL1        0.2020
@<TRIPOS>BOND
     1    33    32    1
     2    33    34    1
     3    32    29    1
     4    34    30    1
     5    29    31    1
     6    29    28    2
     7    30    28    1
     8    31    25    2
     9    28    27    1
    10    22    21    2
    11    25    23    1
    12    25    26    1
    13    27    26    2
    14    23    21   am
    15    23    24    1
    16    21     4    1
    17     5     4    2
    18     5     6    1
    19     4     3    1
    20     6     1    2
    21     3     2    2
    22     1     2    1
    23     1     7    1
    24     7     8    1
    25     8     9    1
    26     8    10    1
    27    19    18    1
    28    11    10    2
    29    20    18    1
    30    20    13    2
    31    10    13    1
    32    10    12    2
    33    18    17    2
    34    13    14    1
    35    17    15    1
    36    14    15    2
    37    14    16    1
