@<TRIPOS>MOLECULE
74443_out_ligand_01.pdbqt
 31 34 0 0 0
SMALL
GASTEIGER

@<TRIPOS>ATOM
      1  S         26.2230  -22.2280  -13.2010 S.3     1  UNL1       -0.0810
      2  C         25.9430  -22.9690  -11.5640 C.3     1  UNL1        0.1850
      3  C         25.2010  -21.9980  -10.6610 C.2     1  UNL1        0.2270
      4  O         25.4630  -20.7970  -10.6360 O.2     1  UNL1       -0.2730
      5  N         24.2140  -22.5760   -9.8930 N.am    1  UNL1       -0.3560
      6  H         23.8970  -23.5100  -10.1440 H       1  UNL1        0.1620
      7  C         23.3550  -21.8010   -9.0310 C.3     1  UNL1        0.1610
      8  C         22.1230  -22.5800   -8.6470 C.2     1  UNL1       -0.0380
      9  C         21.9470  -23.9020   -9.1220 C.2     1  UNL1        0.0120
     10  C         20.8110  -24.6440   -8.7860 C.2     1  UNL1        0.0400
     11  C         19.8680  -24.0420   -7.9850 C.2     1  UNL1        0.1050
     12  C         20.0210  -22.7520   -7.5300 C.2     1  UNL1        0.1050
     13  O         18.7090  -24.6100   -7.5550 O.2     1  UNL1       -0.3230
     14  C         21.1290  -21.9940   -7.8440 C.2     1  UNL1        0.0480
     15  O         18.9790  -22.3460   -6.7570 O.2     1  UNL1       -0.3230
     16  C         18.1580  -23.5340   -6.7660 C.3     1  UNL1        0.3520
     17  C         24.6630  -21.5950  -13.5330 C.ar    1  UNL1        0.1900
     18  N         24.3080  -20.7420  -14.4600 N.ar    1  UNL1       -0.1220
     19  N         22.9400  -20.6020  -14.3780 N.ar    1  UNL1       -0.1300
     20  C         22.4960  -21.3820  -13.4070 C.ar    1  UNL1        0.1510
     21  N         23.5750  -22.0020  -12.8290 N.ar    1  UNL1       -0.3170
     22  H         23.5830  -22.6540  -12.0620 H       1  UNL1        0.1690
     23  C         21.1700  -21.5890  -12.9560 C.2     1  UNL1        0.0530
     24  C         20.6570  -21.0700  -11.8280 C.2     1  UNL1        0.0150
     25  C         19.2810  -21.3510  -11.3900 C.2     1  UNL1       -0.0360
     26  C         18.2940  -20.3550  -11.3640 C.2     1  UNL1        0.0140
     27  C         17.0000  -20.6530  -10.9310 C.2     1  UNL1        0.0430
     28  C         16.6960  -21.9430  -10.5120 C.2     1  UNL1        0.1160
     29  F         15.4540  -22.2280  -10.0990 F       1  UNL1       -0.2060
     30  C         17.6630  -22.9410  -10.5150 C.2     1  UNL1        0.0430
     31  C         18.9570  -22.6460  -10.9520 C.2     1  UNL1        0.0140
@<TRIPOS>BOND
     1    18    19   ar
     2    18    17   ar
     3    19    20   ar
     4    17     1    1
     5    17    21   ar
     6    20    23    1
     7    20    21   ar
     8     1     2    1
     9    23    24    2
    10    21    22    1
    11    24    25    1
    12     2     3    1
    13    25    26    2
    14    25    31    1
    15    26    27    1
    16    31    30    2
    17    27    28    2
    18     3     4    2
    19     3     5   am
    20    30    28    1
    21    28    29    1
    22     6     5    1
    23     5     7    1
    24     9    10    1
    25     9     8    2
    26     7     8    1
    27    10    11    2
    28     8    14    1
    29    11    13    1
    30    11    12    1
    31    14    12    2
    32    13    16    1
    33    12    15    1
    34    16    15    1
