@<TRIPOS>MOLECULE
74447_out_ligand_01.pdbqt
 28 32 0 0 0
SMALL
GASTEIGER

@<TRIPOS>ATOM
      1  C         19.7800  -23.2210   -8.7480 C.2     1  UNL1        0.0510
      2  C         21.0540  -23.7520   -8.8690 C.2     1  UNL1        0.1360
      3  N         21.9090  -23.4330   -9.8760 N.2     1  UNL1       -0.2410
      4  C         21.4750  -22.5760  -10.8380 C.ar    1  UNL1        0.1490
      5  C         20.2000  -22.0260  -10.7870 C.ar    1  UNL1        0.0790
      6  C         19.3320  -22.3540   -9.7410 C.2     1  UNL1        0.0390
      7  C         19.7860  -21.0880  -11.8300 C.ar    1  UNL1        0.2630
      8  O         18.6870  -20.5470  -11.7990 O.2     1  UNL1       -0.2670
      9  N         20.7040  -20.8340  -12.8070 N.ar    1  UNL1       -0.2740
     10  C         21.9860  -21.3100  -12.8680 C.ar    1  UNL1        0.3310
     11  O         22.7310  -20.8880  -13.7510 O.2     1  UNL1       -0.2460
     12  N         22.3490  -22.2380  -11.9040 N.ar    1  UNL1       -0.2780
     13  H         20.4530  -20.1550  -13.5120 H       1  UNL1        0.1730
     14  C         18.9210  -23.6530   -7.6250 C.2     1  UNL1        0.2590
     15  O         18.6080  -24.8410   -7.6440 O.2     1  UNL1       -0.2670
     16  N         18.5530  -22.7080   -6.6530 N.am    1  UNL1       -0.3130
     17  C         19.3630  -21.5010   -6.4260 C.3     1  UNL1        0.1330
     18  C         17.4050  -22.8900   -5.7960 C.2     1  UNL1        0.0430
     19  C         19.5110  -21.1660   -4.9540 C.3     1  UNL1        0.0250
     20  C         18.1390  -20.9060   -4.3670 C.3     1  UNL1        0.0420
     21  C         17.1900  -22.0270   -4.6980 C.2     1  UNL1       -0.0310
     22  C         16.0470  -22.1740   -3.8900 C.2     1  UNL1        0.0090
     23  C         15.1200  -23.1780   -4.1460 C.2     1  UNL1        0.0010
     24  C         15.3210  -24.0350   -5.2190 C.2     1  UNL1        0.0020
     25  C         16.4470  -23.8880   -6.0360 C.2     1  UNL1        0.0300
     26  C         23.6870  -22.7970  -11.9020 C.3     1  UNL1        0.0960
     27  C         24.5560  -22.8030  -10.6650 C.3     1  UNL1        0.0280
     28  C         24.9170  -21.9230  -11.8190 C.3     1  UNL1        0.0280
@<TRIPOS>BOND
     1    11    10    2
     2    13     9    1
     3    10     9   ar
     4    10    12   ar
     5     9     7   ar
     6    12    26    1
     7    12     4   ar
     8    26    28    1
     9    26    27    1
    10     7     8    2
    11     7     5   ar
    12    28    27    1
    13     4     5   ar
    14     4     3    1
    15     5     6    1
    16     3     2    2
    17     6     1    2
    18     2     1    1
    19     1    14    1
    20    15    14    2
    21    14    16   am
    22    16    17    1
    23    16    18    1
    24    17    19    1
    25    25    18    2
    26    25    24    1
    27    18    21    1
    28    24    23    2
    29    19    20    1
    30    21    20    1
    31    21    22    2
    32    23    22    1
