@<TRIPOS>MOLECULE
74444_out_ligand_01.pdbqt
 26 28 0 0 0
SMALL
GASTEIGER

@<TRIPOS>ATOM
      1  C         21.1310  -24.7950   -8.8300 C.3     1  UNL1        0.0480
      2  C         20.6300  -23.3720   -9.1210 C.3     1  UNL1        0.2500
      3  N         19.1700  -23.4080   -9.2940 N.3     1  UNL1        0.1020
      4  H         18.8840  -24.3460   -9.5710 H       1  UNL1        0.3170
      5  C         18.3500  -22.9970   -8.1310 C.3     1  UNL1        0.1620
      6  C         17.0480  -22.3170   -8.6300 C.3     1  UNL1        0.0490
      7  C         18.0150  -24.1220   -7.1030 C.3     1  UNL1        0.0800
      8  C         17.9310  -23.3610   -5.8120 C.2     1  UNL1       -0.0490
      9  C         17.3540  -23.7620   -4.6200 C.2     1  UNL1        0.0070
     10  C         18.5910  -22.1330   -5.9180 C.2     1  UNL1       -0.0490
     11  C         17.4340  -22.9000   -3.5240 C.2     1  UNL1        0.0010
     12  C         18.0970  -21.6660   -3.6310 C.2     1  UNL1        0.0010
     13  C         18.6880  -21.2770   -4.8340 C.2     1  UNL1        0.0070
     14  C         19.1660  -21.9570   -7.2930 C.3     1  UNL1        0.0800
     15  C         21.3600  -22.8320  -10.3420 C.2     1  UNL1       -0.0260
     16  C         20.7120  -21.9980  -11.2700 C.2     1  UNL1        0.0110
     17  C         21.3900  -21.5120  -12.3890 C.2     1  UNL1        0.0250
     18  C         22.7230  -21.8740  -12.5930 C.2     1  UNL1        0.0740
     19  C         23.3880  -22.6970  -11.6830 C.2     1  UNL1        0.0250
     20  C         22.7040  -23.1770  -10.5640 C.2     1  UNL1        0.0110
     21  S         23.5800  -21.2540  -14.0150 S.O2    1  UNL1        0.2390
     22  O         24.8360  -20.6860  -13.5870 O.2     1  UNL1       -0.2060
     23  O         23.4880  -22.2340  -15.0730 O.2     1  UNL1       -0.2060
     24  N         22.5710  -19.9890  -14.4870 N.3     1  UNL1       -0.2250
     25  H         21.7580  -20.3790  -14.9660 H       1  UNL1        0.1360
     26  H         22.3050  -19.3790  -13.7150 H       1  UNL1        0.1360
@<TRIPOS>BOND
     1    23    21    2
     2    25    24    1
     3    24    21    1
     4    24    26    1
     5    21    22    2
     6    21    18    1
     7    18    17    2
     8    18    19    1
     9    17    16    1
    10    19    20    2
    11    16    15    2
    12    20    15    1
    13    15     2    1
    14     4     3    1
    15     3     2    1
    16     3     5    1
    17     2     1    1
    18     6     5    1
    19     5    14    1
    20     5     7    1
    21    14    10    1
    22     7     8    1
    23    10     8    2
    24    10    13    1
    25     8     9    1
    26    13    12    2
    27     9    11    2
    28    12    11    1
