@<TRIPOS>MOLECULE
74469_out_ligand_01.pdbqt
 35 37 0 0 0
SMALL
GASTEIGER

@<TRIPOS>ATOM
      1  N         24.0590  -22.5640  -10.5150 N.am    1  UNL1       -0.3510
      2  C         23.2390  -22.3450   -9.4300 C.2     1  UNL1        0.2420
      3  O         23.0910  -21.2560   -8.8890 O.2     1  UNL1       -0.2710
      4  H         23.7450  -23.3390  -11.1040 H       1  UNL1        0.1630
      5  C         22.4630  -23.5890   -8.9740 C.3     1  UNL1        0.2810
      6  O         21.3640  -23.2310   -8.1400 O.3     1  UNL1       -0.3110
      7  C         20.2140  -23.9110   -8.3960 C.2     1  UNL1        0.2720
      8  O         20.1950  -25.1070   -8.6900 O.2     1  UNL1       -0.2640
      9  C         18.9410  -23.0210   -8.2710 C.3     1  UNL1        0.0750
     10  C         19.0630  -21.8930   -7.1820 C.3     1  UNL1        0.0250
     11  C         18.1620  -22.1040   -5.9540 C.3     1  UNL1        0.0020
     12  C         18.2270  -23.5360   -5.4230 C.3     1  UNL1        0.0000
     13  C         17.9210  -24.5860   -6.4910 C.3     1  UNL1        0.0020
     14  C         17.7910  -23.9980   -7.9010 C.3     1  UNL1        0.0250
     15  C         18.7310  -22.3080   -9.6350 C.2     1  UNL1       -0.0380
     16  C         17.4740  -21.8810  -10.1040 C.2     1  UNL1        0.0080
     17  C         17.3480  -21.2160  -11.3280 C.2     1  UNL1        0.0020
     18  C         18.4710  -20.9700  -12.1130 C.2     1  UNL1        0.0240
     19  C         19.7220  -21.3830  -11.6710 C.2     1  UNL1        0.0340
     20 CL         21.1150  -21.0860  -12.6400 Cl      1  UNL1       -0.0840
     21  C         19.8570  -22.0390  -10.4460 C.2     1  UNL1        0.0320
     22  C         24.6770  -21.4780  -11.2660 C.3     1  UNL1        0.1130
     23  C         26.1090  -21.1520  -10.8420 C.3     1  UNL1        0.0370
     24  C         24.6480  -21.8240  -12.7500 C.2     1  UNL1       -0.0360
     25  C         24.9040  -23.1320  -13.1810 C.2     1  UNL1        0.0110
     26  C         24.8780  -23.4500  -14.5420 C.2     1  UNL1        0.0250
     27  C         24.5840  -22.4590  -15.4780 C.2     1  UNL1        0.0740
     28  C         24.3450  -21.1470  -15.0700 C.2     1  UNL1        0.0250
     29  C         24.3810  -20.8330  -13.7110 C.2     1  UNL1        0.0110
     30  S         24.5700  -22.8610  -17.2000 S.O2    1  UNL1        0.2390
     31  O         23.3700  -23.6020  -17.5040 O.2     1  UNL1       -0.2060
     32  O         25.8800  -23.3280  -17.5940 O.2     1  UNL1       -0.2060
     33  N         24.3910  -21.3530  -17.9080 N.3     1  UNL1       -0.2250
     34  H         24.6090  -20.6310  -17.2300 H       1  UNL1        0.1360
     35  H         24.9420  -21.3070  -18.7630 H       1  UNL1        0.1360
@<TRIPOS>BOND
     1    35    33    1
     2    33    34    1
     3    33    30    1
     4    32    30    2
     5    31    30    2
     6    30    27    1
     7    27    28    2
     8    27    26    1
     9    28    29    1
    10    26    25    2
    11    29    24    2
    12    25    24    1
    13    24    22    1
    14    20    19    1
    15    18    19    2
    16    18    17    1
    17    19    21    1
    18    17    16    2
    19    22    23    1
    20    22     1    1
    21     4     1    1
    22     1     2   am
    23    21    15    2
    24    16    15    1
    25    15     9    1
    26     2     5    1
    27     2     3    2
    28     5     6    1
    29     8     7    2
    30     7     9    1
    31     7     6    1
    32     9    14    1
    33     9    10    1
    34    14    13    1
    35    10    11    1
    36    13    12    1
    37    11    12    1
