@<TRIPOS>MOLECULE
74467_out_ligand_01.pdbqt
 36 40 0 0 0
SMALL
GASTEIGER

@<TRIPOS>ATOM
      1  C         22.0640  -23.0530  -10.4300 C.2     1  UNL1        0.0470
      2  C         22.0180  -24.0110   -9.4150 C.2     1  UNL1        0.0330
      3  C         20.8170  -24.3260   -8.7810 C.2     1  UNL1        0.0330
      4  C         19.6190  -23.7150   -9.1610 C.2     1  UNL1        0.0440
      5  C         19.6360  -22.7190  -10.1690 C.2     1  UNL1        0.0060
      6  C         18.4560  -22.0580  -10.5630 C.2     1  UNL1        0.0340
      7  C         18.5020  -21.0940  -11.5520 C.2     1  UNL1        0.1170
      8  N         19.6320  -20.7340  -12.1790 N.2     1  UNL1       -0.2720
      9  C         20.7600  -21.3840  -11.8010 C.2     1  UNL1        0.1300
     10  C         20.8560  -22.3870  -10.8140 C.2     1  UNL1        0.0210
     11  N         23.2830  -22.7380  -11.0920 N.am    1  UNL1       -0.3260
     12  C         24.1920  -21.7370  -10.7880 C.2     1  UNL1        0.2310
     13  O         24.0780  -20.9020   -9.8940 O.2     1  UNL1       -0.2720
     14  H         23.4900  -23.2730  -11.9210 H       1  UNL1        0.1690
     15  C         25.4470  -21.7280  -11.6710 C.3     1  UNL1        0.1220
     16  C         26.5980  -22.4580  -10.9870 C.3     1  UNL1        0.1220
     17  C         26.6200  -23.9420  -11.2600 C.2     1  UNL1        0.2230
     18  O         27.1070  -24.7450  -10.4700 O.2     1  UNL1       -0.2730
     19  N         26.1390  -24.3650  -12.4670 N.am    1  UNL1       -0.3270
     20  C         25.5270  -23.5430  -13.4140 C.2     1  UNL1        0.0440
     21  H         26.3020  -25.3450  -12.6740 H       1  UNL1        0.1690
     22  C         25.2240  -24.0520  -14.6740 C.2     1  UNL1        0.0720
     23  C         25.1850  -22.2300  -13.0720 C.2     1  UNL1       -0.0180
     24  C         24.5920  -23.2300  -15.6010 C.2     1  UNL1        0.1180
     25  C         24.2490  -21.9200  -15.2850 C.2     1  UNL1        0.0430
     26  F         24.3040  -23.7100  -16.8170 F       1  UNL1       -0.2060
     27  C         24.5390  -21.4190  -14.0170 C.2     1  UNL1        0.0130
     28  N         18.4200  -23.9750   -8.4340 N.pl3   1  UNL1       -0.3560
     29  H         17.6320  -23.8600   -9.0700 H       1  UNL1        0.1660
     30  C         18.0960  -23.5130   -7.1370 C.2     1  UNL1        0.0320
     31  C         18.6170  -22.2900   -6.6880 C.2     1  UNL1        0.0320
     32  C         18.2640  -21.7780   -5.4370 C.2     1  UNL1        0.0440
     33  C         17.3660  -22.4760   -4.6410 C.2     1  UNL1        0.1160
     34  F         17.0250  -21.9840   -3.4420 F       1  UNL1       -0.2060
     35  C         16.8070  -23.6700   -5.0760 C.2     1  UNL1        0.0440
     36  C         17.1620  -24.1790   -6.3280 C.2     1  UNL1        0.0320
@<TRIPOS>BOND
     1    26    24    1
     2    24    25    2
     3    24    22    1
     4    25    27    1
     5    22    20    2
     6    27    23    2
     7    20    23    1
     8    20    19    1
     9    23    15    1
    10    21    19    1
    11    19    17   am
    12     8     9    2
    13     8     7    1
    14    14    11    1
    15     9    10    1
    16    15    16    1
    17    15    12    1
    18     7     6    2
    19    17    16    1
    20    17    18    2
    21    11    12   am
    22    11     1    1
    23    10     1    2
    24    10     5    1
    25    12    13    2
    26     6     5    1
    27     1     2    1
    28     5     4    2
    29     2     3    2
    30     4     3    1
    31     4    28    1
    32    29    28    1
    33    28    30    1
    34    30    31    2
    35    30    36    1
    36    31    32    1
    37    36    35    2
    38    32    33    2
    39    35    33    1
    40    33    34    1
