@<TRIPOS>MOLECULE
74471_out_ligand_01.pdbqt
 34 36 0 0 0
SMALL
GASTEIGER

@<TRIPOS>ATOM
      1  C         21.8850  -22.3190   -8.2700 C.2     1  UNL1        0.0850
      2  C         21.8530  -21.2870   -7.3200 C.3     1  UNL1        0.1580
      3  N         20.7420  -21.3010   -6.5920 N.3     1  UNL1       -0.1770
      4  N         19.9470  -22.2520   -7.1710 N.pl3   1  UNL1       -0.2100
      5  C         20.6810  -22.9920   -8.0800 C.2     1  UNL1        0.1610
      6  C         22.9080  -22.6640   -9.2460 C.2     1  UNL1        0.2600
      7  N         23.1980  -21.6450  -10.1320 N.am    1  UNL1       -0.3230
      8  H         22.8040  -20.7360   -9.9280 H       1  UNL1        0.1690
      9  O         23.4370  -23.7660   -9.2110 O.2     1  UNL1       -0.2670
     10  C         24.1080  -21.6880  -11.2100 C.2     1  UNL1        0.0350
     11  C         25.4730  -21.6670  -10.8920 C.2     1  UNL1        0.0290
     12  C         26.4440  -21.7150  -11.8950 C.2     1  UNL1        0.0030
     13  C         26.0580  -21.7780  -13.2330 C.2     1  UNL1        0.0170
     14  C         24.6980  -21.7890  -13.5620 C.2     1  UNL1        0.0340
     15  C         23.7250  -21.7360  -12.5530 C.2     1  UNL1        0.0460
     16  C         24.2530  -21.8270  -14.9770 C.2     1  UNL1        0.2490
     17  N         23.7290  -20.6730  -15.4920 N.am    1  UNL1       -0.3660
     18  H         23.5650  -20.6790  -16.4930 H       1  UNL1        0.1590
     19  H         23.8910  -19.7770  -15.0550 H       1  UNL1        0.1590
     20  O         24.3690  -22.8310  -15.6680 O.2     1  UNL1       -0.2680
     21  C         20.2500  -24.2810   -8.6390 C.3     1  UNL1        0.4350
     22  F         21.2200  -25.2220   -8.5550 F       1  UNL1       -0.1650
     23  F         19.8900  -24.1790   -9.9390 F       1  UNL1       -0.1650
     24  F         19.1890  -24.8030   -7.9740 F       1  UNL1       -0.1650
     25  C         18.5590  -22.3120   -6.7890 C.2     1  UNL1        0.1500
     26  C         17.5390  -22.1780   -7.7250 C.2     1  UNL1        0.0530
     27  C         16.2110  -22.2280   -7.2920 C.2     1  UNL1        0.0210
     28  C         15.9200  -22.3880   -5.9360 C.2     1  UNL1        0.0650
     29  C         16.9910  -22.4850   -5.0690 C.2     1  UNL1        0.1350
     30  N         18.2840  -22.4430   -5.4620 N.2     1  UNL1       -0.2410
     31  C         14.5120  -22.4420   -5.4290 C.3     1  UNL1        0.4180
     32  F         14.4020  -21.9680   -4.1570 F       1  UNL1       -0.1660
     33  F         13.6320  -21.7190   -6.1740 F       1  UNL1       -0.1660
     34  F         14.0180  -23.7110   -5.3990 F       1  UNL1       -0.1660
@<TRIPOS>BOND
     1    18    17    1
     2    20    16    2
     3    17    19    1
     4    17    16   am
     5    16    14    1
     6    14    13    2
     7    14    15    1
     8    13    12    1
     9    15    10    2
    10    12    11    2
    11    10    11    1
    12    10     7    1
    13     7     8    1
    14     7     6   am
    15    23    21    1
    16     6     9    2
    17     6     1    1
    18    21    22    1
    19    21     5    1
    20    21    24    1
    21     1     5    2
    22     1     2    1
    23     5     4    1
    24    26    27    1
    25    26    25    2
    26     2     3    1
    27    27    28    2
    28     4    25    1
    29     4     3    1
    30    25    30    1
    31    33    31    1
    32    28    31    1
    33    28    29    1
    34    30    29    2
    35    31    34    1
    36    31    32    1
