@<TRIPOS>MOLECULE
74470_out_ligand_01.pdbqt
 36 39 0 0 0
SMALL
GASTEIGER

@<TRIPOS>ATOM
      1  C         18.8460  -21.9190  -11.0600 C.2     1  UNL1        0.0320
      2  C         17.6260  -21.2540  -10.8820 C.2     1  UNL1        0.0170
      3  C         16.6210  -21.8350  -10.1020 C.2     1  UNL1        0.0100
      4  C         16.8180  -23.0880   -9.5040 C.2     1  UNL1       -0.0400
      5  C         18.0400  -23.7490   -9.6940 C.2     1  UNL1        0.0100
      6  C         19.0450  -23.1730  -10.4740 C.2     1  UNL1        0.0170
      7  C         15.7450  -23.7190   -8.6510 C.3     1  UNL1        0.1700
      8  N         15.6920  -23.0900   -7.3410 N.3     1  UNL1       -0.3110
      9  H         14.8740  -22.5440   -7.0800 H       1  UNL1        0.1720
     10  S         16.5870  -23.7130   -6.0810 S.O2    1  UNL1        0.2590
     11  O         17.1030  -24.9870   -6.5260 O.2     1  UNL1       -0.2010
     12  O         15.8110  -23.5780   -4.8680 O.2     1  UNL1       -0.2010
     13  C         17.9590  -22.5860   -5.9890 C.2     1  UNL1        0.0800
     14  C         17.9670  -21.5730   -5.0270 C.2     1  UNL1        0.0250
     15  C         19.0550  -20.7040   -4.9560 C.2     1  UNL1        0.0020
     16  C         20.1280  -20.8510   -5.8390 C.2     1  UNL1        0.0160
     17  C         20.1300  -21.8710   -6.8060 C.2     1  UNL1        0.0490
     18  C         19.0370  -22.7490   -6.8670 C.2     1  UNL1        0.0410
     19  C         21.3070  -22.0460   -7.7370 C.3     1  UNL1        0.4170
     20  F         21.5770  -23.3510   -8.0150 F       1  UNL1       -0.1660
     21  F         22.4610  -21.5300   -7.2270 F       1  UNL1       -0.1660
     22  F         21.1170  -21.4340   -8.9360 F       1  UNL1       -0.1660
     23  C         19.9410  -21.3380  -11.8870 C.2     1  UNL1        0.2560
     24  O         19.7000  -20.3320  -12.5440 O.2     1  UNL1       -0.2670
     25  N         21.1320  -22.0410  -11.8460 N.am    1  UNL1       -0.3230
     26  H         21.1250  -22.9270  -11.3610 H       1  UNL1        0.1690
     27  C         22.3420  -21.7110  -12.4930 C.2     1  UNL1        0.0370
     28  C         22.4170  -21.1330  -13.7620 C.2     1  UNL1        0.0320
     29  C         23.6590  -20.8370  -14.3380 C.2     1  UNL1        0.0420
     30  C         24.8330  -21.1170  -13.6470 C.2     1  UNL1        0.1020
     31  C         24.7670  -21.6650  -12.3650 C.2     1  UNL1        0.1040
     32  O         26.0110  -20.8210  -14.2810 O.2     1  UNL1       -0.3460
     33  C         23.5300  -21.9730  -11.7970 C.2     1  UNL1        0.0690
     34  O         25.8770  -21.9360  -11.6050 O.2     1  UNL1       -0.3460
     35  C         27.0390  -21.2820  -12.1300 C.3     1  UNL1        0.2020
     36  C         27.1210  -21.4580  -13.6380 C.3     1  UNL1        0.2020
@<TRIPOS>BOND
     1    29    28    1
     2    29    30    2
     3    32    30    1
     4    32    36    1
     5    28    27    2
     6    30    31    1
     7    36    35    1
     8    24    23    2
     9    27    25    1
    10    27    33    1
    11    31    33    2
    12    31    34    1
    13    35    34    1
    14    23    25   am
    15    23     1    1
    16    25    26    1
    17     1     2    2
    18     1     6    1
    19     2     3    1
    20     6     5    2
    21     3     4    2
    22     5     4    1
    23     4     7    1
    24    22    19    1
    25     7     8    1
    26    20    19    1
    27    19    21    1
    28    19    17    1
    29     8     9    1
    30     8    10    1
    31    18    17    1
    32    18    13    2
    33    17    16    2
    34    11    10    2
    35    10    13    1
    36    10    12    2
    37    13    14    1
    38    16    15    1
    39    14    15    2
