@<TRIPOS>MOLECULE
74491_out_ligand_01.pdbqt
 34 37 0 0 0
SMALL
GASTEIGER

@<TRIPOS>ATOM
      1  C         20.3920  -22.4220   -7.3910 C.2     1  UNL1        0.0320
      2  C         21.4360  -21.4950   -7.2690 C.2     1  UNL1        0.0180
      3  C         22.5690  -21.5940   -8.0820 C.2     1  UNL1        0.0260
      4  C         22.6550  -22.6280   -9.0170 C.2     1  UNL1        0.0790
      5  C         21.6040  -23.5380   -9.1740 C.2     1  UNL1        0.0260
      6  C         20.4730  -23.4360   -8.3600 C.2     1  UNL1        0.0180
      7  C         19.2050  -22.2750   -6.4960 C.2     1  UNL1        0.2560
      8  O         18.9770  -21.1740   -6.0070 O.2     1  UNL1       -0.2670
      9  N         18.4930  -23.4360   -6.2740 N.am    1  UNL1       -0.3220
     10  H         18.8730  -24.3020   -6.6570 H       1  UNL1        0.1690
     11  C         17.2800  -23.6050   -5.5590 C.2     1  UNL1        0.0500
     12  C         17.2310  -23.5930   -4.1610 C.2     1  UNL1        0.0300
     13  C         16.0140  -23.7190   -3.4830 C.2     1  UNL1        0.0020
     14  C         14.8250  -23.8470   -4.1930 C.2     1  UNL1        0.0010
     15  C         14.8500  -23.8660   -5.5870 C.2     1  UNL1        0.0190
     16  C         16.0710  -23.7670   -6.2780 C.2     1  UNL1        0.0580
     17  C         16.0810  -23.8220   -7.7750 C.2     1  UNL1        0.2540
     18  O         15.7670  -24.8600   -8.3550 O.2     1  UNL1       -0.2680
     19  N         16.3980  -22.6490   -8.4340 N.am    1  UNL1       -0.3520
     20  H         16.4420  -21.7830   -7.9110 H       1  UNL1        0.1630
     21  C         16.3960  -22.5600   -9.8600 C.3     1  UNL1        0.0840
     22  C         17.0410  -21.3900  -10.5540 C.3     1  UNL1        0.0270
     23  C         17.6690  -22.7510  -10.6370 C.3     1  UNL1        0.0270
     24  S         24.0920  -22.7640  -10.0580 S.O2    1  UNL1        0.2630
     25  O         24.9440  -23.8020   -9.5210 O.2     1  UNL1       -0.2000
     26  O         24.5940  -21.4220  -10.2780 O.2     1  UNL1       -0.2000
     27  N         23.4450  -23.2680  -11.5340 N.pl3   1  UNL1       -0.2810
     28  H         23.3970  -24.2820  -11.6040 H       1  UNL1        0.1790
     29  C         23.7410  -22.5310  -12.7140 C.2     1  UNL1        0.0420
     30  C         22.8580  -21.5320  -13.1280 C.2     1  UNL1        0.0300
     31  C         23.1100  -20.8230  -14.3030 C.2     1  UNL1        0.0020
     32  C         24.2440  -21.1100  -15.0620 C.2     1  UNL1        0.0000
     33  C         25.1290  -22.1040  -14.6450 C.2     1  UNL1        0.0020
     34  C         24.8780  -22.8150  -13.4700 C.2     1  UNL1        0.0300
@<TRIPOS>BOND
     1    32    33    2
     2    32    31    1
     3    33    34    1
     4    31    30    2
     5    34    29    2
     6    30    29    1
     7    29    27    1
     8    28    27    1
     9    27    24    1
    10    23    22    1
    11    23    21    1
    12    22    21    1
    13    26    24    2
    14    24    25    2
    15    24     4    1
    16    21    19    1
    17     5     4    2
    18     5     6    1
    19     4     3    1
    20    19    20    1
    21    19    17   am
    22     6     1    2
    23    18    17    2
    24     3     2    2
    25    17    16    1
    26     1     2    1
    27     1     7    1
    28    10     9    1
    29     7     9   am
    30     7     8    2
    31    16    15    1
    32    16    11    2
    33     9    11    1
    34    15    14    2
    35    11    12    1
    36    14    13    1
    37    12    13    2
