@<TRIPOS>MOLECULE
74495_out_ligand_01.pdbqt
 32 35 0 0 0
SMALL
GASTEIGER

@<TRIPOS>ATOM
      1  C         20.0480  -22.6340   -7.5070 C.2     1  UNL1        0.0320
      2  C         19.3560  -23.8450   -7.3790 C.2     1  UNL1        0.0180
      3  C         18.4000  -23.9830   -6.3730 C.2     1  UNL1        0.0260
      4  C         18.1500  -22.9080   -5.5100 C.2     1  UNL1        0.0790
      5  C         18.8790  -21.7160   -5.6080 C.2     1  UNL1        0.0260
      6  C         19.8340  -21.5770   -6.6150 C.2     1  UNL1        0.0180
      7  C         21.0510  -22.4810   -8.5790 C.2     1  UNL1        0.2580
      8  N         20.5830  -22.1600   -9.8750 N.am    1  UNL1       -0.3130
      9  C         19.1900  -21.7200  -10.0560 C.3     1  UNL1        0.1330
     10  C         21.4820  -22.0130  -11.0010 C.2     1  UNL1        0.0440
     11  C         18.6990  -21.7490  -11.4910 C.3     1  UNL1        0.0250
     12  C         19.6230  -20.9110  -12.3440 C.3     1  UNL1        0.0420
     13  C         21.0350  -21.4130  -12.1980 C.2     1  UNL1       -0.0280
     14  C         21.9130  -21.2340  -13.2900 C.2     1  UNL1        0.0460
     15  C         23.2290  -21.6800  -13.2280 C.2     1  UNL1        0.0680
     16  C         23.6640  -22.3110  -12.0690 C.2     1  UNL1        0.0390
     17  C         22.8050  -22.4750  -10.9740 C.2     1  UNL1        0.0330
     18  O         22.2130  -22.6370   -8.2090 O.2     1  UNL1       -0.2670
     19  O         24.1660  -21.5760  -14.2160 O.2     1  UNL1       -0.3560
     20  C         24.7900  -20.3080  -14.3850 C.3     1  UNL1        0.2100
     21  S         16.8990  -23.0730   -4.2500 S.O2    1  UNL1        0.2630
     22  O         16.9540  -24.4340   -3.7600 O.2     1  UNL1       -0.2000
     23  O         17.0070  -21.9420   -3.3550 O.2     1  UNL1       -0.2000
     24  N         15.4610  -22.9550   -5.1360 N.pl3   1  UNL1       -0.2810
     25  H         14.6640  -23.3030   -4.6060 H       1  UNL1        0.1790
     26  C         15.4880  -23.1780   -6.5410 C.2     1  UNL1        0.0420
     27  C         15.6850  -22.1210   -7.4330 C.2     1  UNL1        0.0330
     28  C         15.7620  -22.3730   -8.8030 C.2     1  UNL1        0.0440
     29  C         15.6430  -23.6800   -9.2680 C.2     1  UNL1        0.1160
     30  F         15.7240  -23.9250  -10.5830 F       1  UNL1       -0.2060
     31  C         15.4430  -24.7390   -8.3890 C.2     1  UNL1        0.0440
     32  C         15.3630  -24.4880   -7.0180 C.2     1  UNL1        0.0330
@<TRIPOS>BOND
     1    20    19    1
     2    19    15    1
     3    14    15    2
     4    14    13    1
     5    15    16    1
     6    12    13    1
     7    12    11    1
     8    13    10    2
     9    16    17    2
    10    11     9    1
    11    10    17    1
    12    10     8    1
    13    30    29    1
    14     9     8    1
    15     8     7   am
    16    29    28    2
    17    29    31    1
    18    28    27    1
    19     7    18    2
    20     7     1    1
    21    31    32    2
    22     1     2    2
    23     1     6    1
    24    27    26    2
    25     2     3    1
    26    32    26    1
    27     6     5    2
    28    26    24    1
    29     3     4    2
    30     5     4    1
    31     4    21    1
    32    24    25    1
    33    24    21    1
    34    21    22    2
    35    21    23    2
