@<TRIPOS>MOLECULE
74509_out_ligand_01.pdbqt
 34 37 0 0 0
SMALL
GASTEIGER

@<TRIPOS>ATOM
      1  C         17.5050  -22.3200  -10.2450 C.2     1  UNL1        0.0540
      2  C         17.0270  -21.0960  -10.7350 C.2     1  UNL1        0.0190
      3  C         17.8400  -20.3010  -11.5440 C.2     1  UNL1        0.0010
      4  C         19.1330  -20.7190  -11.8610 C.2     1  UNL1        0.0020
      5  C         19.6200  -21.9300  -11.3680 C.2     1  UNL1        0.0250
      6  C         18.8160  -22.7290  -10.5510 C.2     1  UNL1        0.0380
      7  N         19.3220  -24.0050  -10.1260 N.pl3   1  UNL1       -0.1800
      8  H         19.7830  -24.5300  -10.8870 H       1  UNL1        0.1460
      9  S         20.3830  -23.9820   -8.8000 S.O2    1  UNL1        0.2460
     10  O         20.7660  -25.3380   -8.4640 O.2     1  UNL1       -0.2060
     11  O         19.8160  -23.0890   -7.8130 O.2     1  UNL1       -0.2060
     12  C         21.8020  -23.1480   -9.4780 C.2     1  UNL1        0.0770
     13  C         22.2950  -21.9800   -8.8460 C.2     1  UNL1        0.0270
     14  C         23.4090  -21.3090   -9.3630 C.2     1  UNL1        0.0330
     15  C         23.9760  -21.8390  -10.4980 C.ar    1  UNL1        0.0630
     16  N         25.0740  -21.4000  -11.2280 N.ar    1  UNL1       -0.3070
     17  C         23.4780  -22.9850  -11.1200 C.ar    1  UNL1        0.0640
     18  C         25.2700  -22.2660  -12.3140 C.ar    1  UNL1        0.3250
     19  H         25.6510  -20.5960  -11.0460 H       1  UNL1        0.1700
     20  O         26.1410  -22.1840  -13.1620 O.2     1  UNL1       -0.2470
     21  N         24.2700  -23.2460  -12.2310 N.ar    1  UNL1       -0.3060
     22  H         24.1680  -23.9980  -12.8950 H       1  UNL1        0.1700
     23  C         22.3870  -23.6660  -10.6420 C.2     1  UNL1        0.0560
     24  C         16.6580  -23.1630   -9.3630 C.2     1  UNL1        0.2530
     25  N         17.0080  -23.2020   -8.0300 N.am    1  UNL1       -0.3520
     26  H         17.7170  -22.5650   -7.6910 H       1  UNL1        0.1630
     27  O         15.6900  -23.7480   -9.8390 O.2     1  UNL1       -0.2680
     28  C         16.2300  -23.9600   -7.0550 C.3     1  UNL1        0.0840
     29  C         15.1820  -23.0460   -6.3950 C.3     1  UNL1        0.0250
     30  C         14.7660  -23.5640   -5.0230 C.3     1  UNL1        0.0060
     31  C         15.9520  -23.6190   -4.0430 C.3     1  UNL1       -0.0190
     32  C         16.0020  -22.3750   -3.1550 C.3     1  UNL1        0.0100
     33  C         17.3010  -23.8100   -4.7600 C.3     1  UNL1        0.0060
     34  C         17.1470  -24.6470   -6.0270 C.3     1  UNL1        0.0250
@<TRIPOS>BOND
     1    20    18    2
     2    22    21    1
     3    18    21   ar
     4    18    16   ar
     5    21    17   ar
     6     4     3    2
     7     4     5    1
     8     3     2    1
     9     5     6    2
    10    16    19    1
    11    16    15   ar
    12    17    23    1
    13    17    15   ar
    14     8     7    1
    15     2     1    2
    16    23    12    2
    17     6     1    1
    18     6     7    1
    19    15    14    1
    20     1    24    1
    21     7     9    1
    22    27    24    2
    23    12    13    1
    24    12     9    1
    25    14    13    2
    26    24    25   am
    27     9    10    2
    28     9    11    2
    29    25    26    1
    30    25    28    1
    31    28    29    1
    32    28    34    1
    33    29    30    1
    34    34    33    1
    35    30    31    1
    36    33    31    1
    37    31    32    1
