@<TRIPOS>MOLECULE
7450_out_ligand_01.pdbqt
 34 36 0 0 0
SMALL
GASTEIGER

@<TRIPOS>ATOM
      1  C         22.1270  -22.3290  -10.9090 C.2     1  UNL1        0.0860
      2  C         20.7490  -22.1940  -10.6730 C.2     1  UNL1        0.0420
      3  C         19.9250  -21.5870  -11.6260 C.2     1  UNL1        0.0330
      4  C         20.4790  -21.1240  -12.8220 C.2     1  UNL1        0.0170
      5  C         21.8500  -21.2530  -13.0550 C.2     1  UNL1        0.0090
      6  C         22.6970  -21.8590  -12.1090 C.2     1  UNL1       -0.0390
      7  C         24.1650  -21.9400  -12.4250 C.3     1  UNL1        0.0500
      8  C         18.4710  -21.4720  -11.3360 C.2     1  UNL1        0.2510
      9  O         17.7140  -20.9940  -12.1740 O.2     1  UNL1       -0.2680
     10  N         18.0570  -21.9610  -10.1150 N.am    1  UNL1       -0.3530
     11  H         18.6900  -22.5460   -9.5880 H       1  UNL1        0.1630
     12  C         16.6520  -22.0700   -9.7910 C.3     1  UNL1        0.1610
     13  C         16.4630  -22.8180   -8.4930 C.2     1  UNL1       -0.0400
     14  C         17.0810  -24.0620   -8.3010 C.2     1  UNL1        0.0090
     15  C         16.9300  -24.7530   -7.0990 C.2     1  UNL1        0.0010
     16  C         16.1670  -24.2030   -6.0700 C.2     1  UNL1        0.0160
     17  C         15.5520  -22.9520   -6.2290 C.2     1  UNL1        0.0480
     18  C         15.7010  -22.2700   -7.4500 C.2     1  UNL1        0.0250
     19  C         14.7120  -22.3660   -5.1190 C.3     1  UNL1        0.4170
     20  F         15.4510  -21.7270   -4.1680 F       1  UNL1       -0.1660
     21  F         13.9900  -23.3150   -4.4610 F       1  UNL1       -0.1660
     22  F         13.8070  -21.4470   -5.5640 F       1  UNL1       -0.1660
     23  S         23.1070  -23.0860   -9.6150 S.O2    1  UNL1        0.2630
     24  O         22.3730  -24.2270   -9.1050 O.2     1  UNL1       -0.2000
     25  O         24.4580  -23.2510  -10.1080 O.2     1  UNL1       -0.2000
     26  N         23.1010  -21.9260   -8.3910 N.pl3   1  UNL1       -0.2810
     27  H         24.0050  -21.8300   -7.9360 H       1  UNL1        0.1790
     28  C         21.9280  -21.7220   -7.6120 C.2     1  UNL1        0.0420
     29  C         21.9090  -20.6670   -6.6970 C.2     1  UNL1        0.0300
     30  C         20.7850  -20.4580   -5.8940 C.2     1  UNL1        0.0090
     31  C         19.6700  -21.3000   -6.0010 C.2     1  UNL1       -0.0620
     32  C         18.4740  -21.0760   -5.1250 C.3     1  UNL1        0.0480
     33  C         19.6940  -22.3450   -6.9290 C.2     1  UNL1        0.0090
     34  C         20.8170  -22.5510   -7.7350 C.2     1  UNL1        0.0300
@<TRIPOS>BOND
     1     5     4    2
     2     5     6    1
     3     4     3    1
     4     7     6    1
     5     9     8    2
     6     6     1    2
     7     3     8    1
     8     3     2    2
     9     8    10   am
    10     1     2    1
    11     1    23    1
    12    10    12    1
    13    10    11    1
    14    25    23    2
    15    12    13    1
    16    23    24    2
    17    23    26    1
    18    13    14    2
    19    13    18    1
    20    26    27    1
    21    26    28    1
    22    14    15    1
    23    34    28    2
    24    34    33    1
    25    28    29    1
    26    18    17    2
    27    15    16    2
    28    33    31    2
    29    29    30    2
    30    17    16    1
    31    17    19    1
    32    31    30    1
    33    31    32    1
    34    22    19    1
    35    19    21    1
    36    19    20    1
