@<TRIPOS>MOLECULE
74514_out_ligand_01.pdbqt
 31 34 0 0 0
SMALL
GASTEIGER

@<TRIPOS>ATOM
      1  C         20.3880  -22.6290   -7.8030 C.2     1  UNL1        0.0320
      2  C         20.1550  -21.5930   -6.8940 C.2     1  UNL1        0.0180
      3  C         19.1340  -21.7200   -5.9500 C.2     1  UNL1        0.0260
      4  C         18.3590  -22.8850   -5.9280 C.2     1  UNL1        0.0790
      5  C         18.6210  -23.9430   -6.8070 C.2     1  UNL1        0.0260
      6  C         19.6430  -23.8140   -7.7480 C.2     1  UNL1        0.0180
      7  C         21.4790  -22.4880   -8.7920 C.2     1  UNL1        0.2580
      8  N         21.1300  -22.1700  -10.1220 N.am    1  UNL1       -0.3130
      9  C         19.8560  -21.4820  -10.3870 C.3     1  UNL1        0.1330
     10  C         22.1050  -22.1920  -11.1910 C.2     1  UNL1        0.0440
     11  C         19.4320  -21.4900  -11.8420 C.3     1  UNL1        0.0250
     12  C         20.5260  -20.8630  -12.6780 C.3     1  UNL1        0.0420
     13  C         21.8270  -21.5770  -12.4310 C.2     1  UNL1       -0.0280
     14  C         22.7850  -21.5800  -13.4690 C.2     1  UNL1        0.0460
     15  C         24.0080  -22.2220  -13.3100 C.2     1  UNL1        0.0680
     16  C         24.2740  -22.8600  -12.1020 C.2     1  UNL1        0.0390
     17  C         23.3360  -22.8510  -11.0640 C.2     1  UNL1        0.0330
     18  O         22.6070  -22.6530   -8.3400 O.2     1  UNL1       -0.2670
     19  O         25.0080  -22.3000  -14.2350 O.2     1  UNL1       -0.3560
     20  C         25.5020  -23.5970  -14.5450 C.3     1  UNL1        0.2100
     21  S         17.0500  -23.0500   -4.7300 S.O2    1  UNL1        0.2630
     22  O         17.2060  -22.0050   -3.7410 O.2     1  UNL1       -0.2000
     23  O         16.9920  -24.4440   -4.3450 O.2     1  UNL1       -0.2000
     24  N         15.6630  -22.7650   -5.6460 N.pl3   1  UNL1       -0.2810
     25  H         14.8110  -22.9430   -5.1200 H       1  UNL1        0.1790
     26  C         15.6650  -23.0420   -7.0400 C.2     1  UNL1        0.0420
     27  C         15.9540  -22.0480   -7.9750 C.2     1  UNL1        0.0300
     28  C         15.9810  -22.3590   -9.3360 C.2     1  UNL1        0.0020
     29  C         15.7150  -23.6600   -9.7590 C.2     1  UNL1        0.0000
     30  C         15.4140  -24.6510   -8.8270 C.2     1  UNL1        0.0020
     31  C         15.3880  -24.3420   -7.4670 C.2     1  UNL1        0.0300
@<TRIPOS>BOND
     1    20    19    1
     2    19    15    1
     3    14    15    2
     4    14    13    1
     5    15    16    1
     6    12    13    1
     7    12    11    1
     8    13    10    2
     9    16    17    2
    10    11     9    1
    11    10    17    1
    12    10     8    1
    13     9     8    1
    14     8     7   am
    15    29    28    2
    16    29    30    1
    17    28    27    1
    18    30    31    2
    19     7    18    2
    20     7     1    1
    21    27    26    2
    22     1     6    2
    23     1     2    1
    24     6     5    1
    25    31    26    1
    26    26    24    1
    27     2     3    2
    28     5     4    2
    29     3     4    1
    30     4    21    1
    31    24    25    1
    32    24    21    1
    33    21    23    2
    34    21    22    2
