@<TRIPOS>MOLECULE
74518_out_ligand_01.pdbqt
 35 38 0 0 0
SMALL
GASTEIGER

@<TRIPOS>ATOM
      1  C         22.7040  -22.6220   -9.0330 C.2     1  UNL1        0.0790
      2  C         21.6990  -23.5870   -9.1480 C.2     1  UNL1        0.0260
      3  C         20.5560  -23.4940   -8.3490 C.2     1  UNL1        0.0180
      4  C         20.4170  -22.4380   -7.4350 C.2     1  UNL1        0.0320
      5  C         21.4490  -21.4930   -7.3090 C.2     1  UNL1        0.0180
      6  C         22.5930  -21.5820   -8.1060 C.2     1  UNL1        0.0260
      7  C         19.2170  -22.2880   -6.5560 C.2     1  UNL1        0.2560
      8  O         18.9590  -21.1750   -6.1120 O.2     1  UNL1       -0.2670
      9  N         18.4910  -23.4430   -6.3460 N.am    1  UNL1       -0.3220
     10  H         18.7690  -24.2750   -6.8690 H       1  UNL1        0.1690
     11  C         17.3040  -23.6200   -5.5910 C.2     1  UNL1        0.0500
     12  C         17.3010  -23.6200   -4.1900 C.2     1  UNL1        0.0300
     13  C         16.1080  -23.7550   -3.4730 C.2     1  UNL1        0.0020
     14  C         14.8970  -23.8850   -4.1440 C.2     1  UNL1        0.0010
     15  C         14.8760  -23.9040   -5.5370 C.2     1  UNL1        0.0190
     16  C         16.0730  -23.7970   -6.2690 C.2     1  UNL1        0.0580
     17  C         16.0360  -23.8700   -7.7640 C.2     1  UNL1        0.2540
     18  O         15.5880  -24.8700   -8.3220 O.2     1  UNL1       -0.2680
     19  N         16.4660  -22.7480   -8.4500 N.am    1  UNL1       -0.3520
     20  H         16.6170  -21.8860   -7.9430 H       1  UNL1        0.1630
     21  C         16.4300  -22.6770   -9.8770 C.3     1  UNL1        0.0840
     22  C         16.9600  -21.4650  -10.5940 C.3     1  UNL1        0.0270
     23  C         17.7020  -22.7670  -10.6750 C.3     1  UNL1        0.0270
     24  S         24.1580  -22.7540  -10.0450 S.O2    1  UNL1        0.2630
     25  O         24.9470  -23.8460   -9.5120 O.2     1  UNL1       -0.2000
     26  O         24.7310  -21.4370  -10.2140 O.2     1  UNL1       -0.2000
     27  N         23.5390  -23.3060  -11.5170 N.pl3   1  UNL1       -0.2800
     28  H         23.6920  -24.3070  -11.6240 H       1  UNL1        0.1790
     29  C         23.7030  -22.4860  -12.6690 C.2     1  UNL1        0.0480
     30  C         24.8800  -22.6150  -13.4130 C.2     1  UNL1        0.0300
     31  C         25.0630  -21.8640  -14.5730 C.2     1  UNL1        0.0020
     32  C         24.0680  -20.9870  -14.9960 C.2     1  UNL1        0.0010
     33  C         22.8910  -20.8580  -14.2560 C.2     1  UNL1        0.0090
     34  C         22.6950  -21.6000  -13.0800 C.2     1  UNL1       -0.0350
     35  C         21.4030  -21.4520  -12.3270 C.3     1  UNL1        0.0500
@<TRIPOS>BOND
     1    32    31    2
     2    32    33    1
     3    31    30    1
     4    33    34    2
     5    30    29    2
     6    34    29    1
     7    34    35    1
     8    29    27    1
     9    28    27    1
    10    27    24    1
    11    23    22    1
    12    23    21    1
    13    22    21    1
    14    26    24    2
    15    24    25    2
    16    24     1    1
    17    21    19    1
    18     2     1    2
    19     2     3    1
    20     1     6    1
    21    19    20    1
    22    19    17   am
    23     3     4    2
    24    18    17    2
    25     6     5    2
    26    17    16    1
    27     4     5    1
    28     4     7    1
    29    10     9    1
    30     7     9   am
    31     7     8    2
    32     9    11    1
    33    16    11    2
    34    16    15    1
    35    11    12    1
    36    15    14    2
    37    12    13    2
    38    14    13    1
