@<TRIPOS>MOLECULE
74511_out_ligand_01.pdbqt
 39 43 0 0 0
SMALL
GASTEIGER

@<TRIPOS>ATOM
      1  C         19.1140  -21.4250  -11.1200 C.2     1  UNL1        0.0540
      2  C         18.0310  -20.5650  -11.3520 C.2     1  UNL1        0.0190
      3  C         16.7580  -20.9150  -10.8990 C.2     1  UNL1        0.0010
      4  C         16.5650  -22.1150  -10.2120 C.2     1  UNL1        0.0020
      5  C         17.6440  -22.9680   -9.9690 C.2     1  UNL1        0.0250
      6  C         18.9230  -22.6220  -10.4090 C.2     1  UNL1        0.0380
      7  N         19.9920  -23.5600  -10.2190 N.pl3   1  UNL1       -0.1800
      8  H         19.6840  -24.5450  -10.2370 H       1  UNL1        0.1460
      9  S         20.9410  -23.3310   -8.8280 S.O2    1  UNL1        0.2460
     10  O         21.6380  -24.5610   -8.5180 O.2     1  UNL1       -0.2060
     11  O         21.6470  -22.0800   -8.9950 O.2     1  UNL1       -0.2060
     12  C         19.7020  -23.0530   -7.5820 C.2     1  UNL1        0.0770
     13  C         19.6820  -21.8230   -6.8780 C.2     1  UNL1        0.0270
     14  C         18.7140  -21.5820   -5.8960 C.2     1  UNL1        0.0330
     15  C         17.8020  -22.5870   -5.6680 C.ar    1  UNL1        0.0630
     16  N         16.7430  -22.6360   -4.7700 N.ar    1  UNL1       -0.3070
     17  C         17.8230  -23.7910   -6.3730 C.ar    1  UNL1        0.0640
     18  C         16.0900  -23.8710   -4.9090 C.ar    1  UNL1        0.3250
     19  H         16.4530  -21.9230   -4.1220 H       1  UNL1        0.1700
     20  O         15.1190  -24.2530   -4.2820 O.2     1  UNL1       -0.2470
     21  N         16.7760  -24.5780   -5.9070 N.ar    1  UNL1       -0.3060
     22  H         16.5150  -25.4990   -6.2190 H       1  UNL1        0.1700
     23  C         18.7570  -24.0600   -7.3430 C.2     1  UNL1        0.0560
     24  C         20.4770  -21.0530  -11.5830 C.2     1  UNL1        0.2580
     25  N         21.2260  -22.1000  -12.0850 N.am    1  UNL1       -0.3230
     26  H         20.8480  -23.0310  -11.9520 H       1  UNL1        0.1690
     27  O         20.8260  -19.8860  -11.4440 O.2     1  UNL1       -0.2670
     28  C         22.5280  -22.0350  -12.6240 C.2     1  UNL1        0.0370
     29  C         23.6500  -22.5970  -12.0120 C.2     1  UNL1        0.0320
     30  C         24.9140  -22.4840  -12.6040 C.2     1  UNL1        0.0410
     31  C         25.0690  -21.8010  -13.8070 C.2     1  UNL1        0.0960
     32  O         26.3320  -21.7610  -14.3200 O.2     1  UNL1       -0.3400
     33  C         23.9530  -21.2380  -14.4230 C.2     1  UNL1        0.0700
     34  C         26.5040  -20.9140  -15.4450 C.3     1  UNL1        0.2780
     35  C         25.3020  -20.3990  -16.2350 C.2     1  UNL1        0.2460
     36  O         25.4050  -19.8260  -17.3180 O.2     1  UNL1       -0.2710
     37  N         24.0860  -20.5700  -15.6390 N.am    1  UNL1       -0.3230
     38  H         23.2830  -20.2040  -16.1310 H       1  UNL1        0.1690
     39  C         22.6880  -21.3520  -13.8370 C.2     1  UNL1        0.0620
@<TRIPOS>BOND
     1    36    35    2
     2    35    37   am
     3    35    34    1
     4    38    37    1
     5    37    33    1
     6    34    32    1
     7    33    39    1
     8    33    31    2
     9    32    31    1
    10    39    28    2
    11    31    30    1
    12    28    25    1
    13    28    29    1
    14    30    29    2
    15    25    26    1
    16    25    24   am
    17    24    27    2
    18    24     1    1
    19     2     1    2
    20     2     3    1
    21     1     6    1
    22     3     4    2
    23     6     7    1
    24     6     5    2
    25     8     7    1
    26     7     9    1
    27     4     5    1
    28    11     9    2
    29     9    10    2
    30     9    12    1
    31    12    23    2
    32    12    13    1
    33    23    17    1
    34    13    14    2
    35    17    21   ar
    36    17    15   ar
    37    22    21    1
    38    21    18   ar
    39    14    15    1
    40    15    16   ar
    41    18    16   ar
    42    18    20    2
    43    16    19    1
