@<TRIPOS>MOLECULE
74510_out_ligand_01.pdbqt
 32 34 0 0 0
SMALL
GASTEIGER

@<TRIPOS>ATOM
      1  C         20.3460  -23.3430   -7.9500 C.2     1  UNL1        0.0320
      2  C         20.8100  -24.2910   -8.8800 C.2     1  UNL1        0.0180
      3  C         22.0150  -24.0890   -9.5560 C.2     1  UNL1        0.0260
      4  C         22.7580  -22.9330   -9.2990 C.2     1  UNL1        0.0790
      5  C         22.3320  -22.0050   -8.3400 C.2     1  UNL1        0.0260
      6  C         21.1260  -22.2110   -7.6640 C.2     1  UNL1        0.0180
      7  C         19.0360  -23.5960   -7.2770 C.2     1  UNL1        0.2560
      8  O         18.5810  -24.7320   -7.3080 O.2     1  UNL1       -0.2670
      9  N         18.4420  -22.4870   -6.7100 N.am    1  UNL1       -0.3210
     10  H         18.8820  -21.5850   -6.8470 H       1  UNL1        0.1690
     11  C         17.2200  -22.4190   -6.0000 C.2     1  UNL1        0.0690
     12  C         17.1210  -22.5870   -4.6160 C.2     1  UNL1        0.0320
     13  C         15.8780  -22.5120   -3.9860 C.2     1  UNL1        0.0020
     14  C         14.7270  -22.2710   -4.7320 C.2     1  UNL1        0.0030
     15  C         14.8110  -22.0950   -6.1160 C.2     1  UNL1        0.0390
     16  C         16.0540  -22.1540   -6.7540 C.2     1  UNL1        0.1050
     17  O         16.2480  -21.9910   -8.1050 O.2     1  UNL1       -0.2530
     18  C         15.8910  -23.0880   -8.9400 C.3     1  UNL1        0.5300
     19  F         14.8430  -22.7920   -9.7380 F       1  UNL1       -0.1440
     20  F         16.9440  -23.3720   -9.7380 F       1  UNL1       -0.1440
     21  F         15.6090  -24.1860   -8.2050 F       1  UNL1       -0.1440
     22  S         24.2770  -22.6560  -10.1890 S.O2    1  UNL1        0.2630
     23  O         24.4990  -21.2260  -10.2620 O.2     1  UNL1       -0.2000
     24  O         25.2750  -23.5470   -9.6310 O.2     1  UNL1       -0.2000
     25  N         23.9200  -23.2520  -11.7300 N.pl3   1  UNL1       -0.2810
     26  H         23.0980  -23.8560  -11.7250 H       1  UNL1        0.1790
     27  C         24.1410  -22.4320  -12.8720 C.2     1  UNL1        0.0420
     28  C         25.3640  -22.4400  -13.5450 C.2     1  UNL1        0.0300
     29  C         25.5630  -21.6020  -14.6460 C.2     1  UNL1        0.0020
     30  C         24.5370  -20.7590  -15.0720 C.2     1  UNL1        0.0000
     31  C         23.3130  -20.7530  -14.4030 C.2     1  UNL1        0.0020
     32  C         23.1130  -21.5920  -13.3030 C.2     1  UNL1        0.0300
@<TRIPOS>BOND
     1    30    29    2
     2    30    31    1
     3    29    28    1
     4    31    32    2
     5    28    27    2
     6    32    27    1
     7    27    25    1
     8    25    26    1
     9    25    22    1
    10    23    22    2
    11    22    24    2
    12    22     4    1
    13    20    18    1
    14    19    18    1
    15     3     4    2
    16     3     2    1
    17     4     5    1
    18    18    21    1
    19    18    17    1
    20     2     1    2
    21     5     6    2
    22    17    16    1
    23     1     6    1
    24     1     7    1
    25     8     7    2
    26     7     9   am
    27    10     9    1
    28    16    15    1
    29    16    11    2
    30     9    11    1
    31    15    14    2
    32    11    12    1
    33    14    13    1
    34    12    13    2
