@<TRIPOS>MOLECULE
74524_out_ligand_01.pdbqt
 31 34 0 0 0
SMALL
GASTEIGER

@<TRIPOS>ATOM
      1  C         18.4000  -21.5190  -11.1560 C.ar    1  UNL1        0.1890
      2  N         17.3570  -20.7140  -11.0860 N.ar    1  UNL1       -0.1360
      3  N         16.3430  -21.2520  -10.3200 N.ar    1  UNL1       -0.1450
      4  C         16.6540  -22.4420   -9.8420 C.ar    1  UNL1        0.1090
      5  S         18.2270  -22.9850  -10.2900 S.2     1  UNL1       -0.0450
      6  C         15.7660  -23.2750   -8.9780 C.3     1  UNL1        0.1510
      7  S         15.1800  -22.3140   -7.5450 S.3     1  UNL1       -0.0830
      8  C         15.7730  -23.2900   -6.2430 C.ar    1  UNL1        0.2030
      9  N         14.9880  -23.8830   -5.3700 N.ar    1  UNL1       -0.1350
     10  N         15.8040  -24.4260   -4.4250 N.ar    1  UNL1        0.0190
     11  N         17.0740  -24.1760   -4.6940 N.ar    1  UNL1        0.0030
     12  N         17.1020  -23.4940   -5.8770 N.ar    1  UNL1       -0.2170
     13  C         18.3550  -23.1520   -6.4640 C.2     1  UNL1        0.0570
     14  C         18.9310  -21.9110   -6.1440 C.2     1  UNL1        0.0320
     15  C         20.1540  -21.5270   -6.6980 C.2     1  UNL1        0.0090
     16  C         20.8390  -22.3690   -7.5790 C.2     1  UNL1       -0.0560
     17  C         22.1570  -21.9220   -8.1500 C.3     1  UNL1        0.0490
     18  C         20.2930  -23.6300   -7.8820 C.2     1  UNL1       -0.0540
     19  C         21.0020  -24.5860   -8.8050 C.3     1  UNL1        0.0490
     20  C         19.0540  -24.0060   -7.3260 C.2     1  UNL1        0.0380
     21  C         19.6070  -21.1920  -11.9070 C.2     1  UNL1        0.2830
     22  N         20.6490  -22.0660  -11.6230 N.am    1  UNL1       -0.3210
     23  H         20.4250  -22.7920  -10.9480 H       1  UNL1        0.1690
     24  O         19.6740  -20.2500  -12.6910 O.2     1  UNL1       -0.2650
     25  C         21.9550  -22.0720  -12.1470 C.2     1  UNL1        0.0350
     26  C         22.3490  -21.3630  -13.2810 C.2     1  UNL1        0.0300
     27  C         23.6720  -21.4260  -13.7340 C.2     1  UNL1        0.0090
     28  C         24.6250  -22.1900  -13.0520 C.2     1  UNL1       -0.0620
     29  C         26.0330  -22.2760  -13.5630 C.3     1  UNL1        0.0480
     30  C         24.2290  -22.9110  -11.9240 C.2     1  UNL1        0.0090
     31  C         22.9060  -22.8470  -11.4730 C.2     1  UNL1        0.0300
@<TRIPOS>BOND
     1    27    26    1
     2    27    28    2
     3    29    28    1
     4    26    25    2
     5    28    30    1
     6    24    21    2
     7    25    22    1
     8    25    31    1
     9    30    31    2
    10    21    22   am
    11    21     1    1
    12    22    23    1
    13     1     2   ar
    14     1     5   ar
    15     2     3   ar
    16     3     4   ar
    17     5     4   ar
    18     4     6    1
    19     6     7    1
    20    19    18    1
    21    17    16    1
    22    18    16    2
    23    18    20    1
    24    16    15    1
    25     7     8    1
    26    20    13    2
    27    15    14    2
    28    13    14    1
    29    13    12    1
    30     8    12   ar
    31     8     9   ar
    32    12    11   ar
    33     9    10   ar
    34    11    10   ar
