@<TRIPOS>MOLECULE
74527_out_ligand_01.pdbqt
 32 35 0 0 0
SMALL
GASTEIGER

@<TRIPOS>ATOM
      1  C         20.5460  -23.2650   -8.2270 C.2     1  UNL1        0.0320
      2  C         20.4520  -22.1450   -7.3920 C.2     1  UNL1        0.0180
      3  C         19.4310  -22.0790   -6.4450 C.2     1  UNL1        0.0260
      4  C         18.5180  -23.1380   -6.3430 C.2     1  UNL1        0.0790
      5  C         18.6450  -24.2820   -7.1420 C.2     1  UNL1        0.0260
      6  C         19.6670  -24.3450   -8.0890 C.2     1  UNL1        0.0180
      7  C         21.6120  -23.3250   -9.2470 C.2     1  UNL1        0.2580
      8  N         21.5040  -22.4560  -10.3570 N.am    1  UNL1       -0.3130
      9  C         20.2080  -21.8300  -10.6650 C.3     1  UNL1        0.1330
     10  C         22.5380  -22.3740  -11.3640 C.2     1  UNL1        0.0440
     11  C         20.2790  -20.6820  -11.6540 C.3     1  UNL1        0.0250
     12  C         20.9360  -21.1650  -12.9260 C.3     1  UNL1        0.0420
     13  C         22.2810  -21.7550  -12.6040 C.2     1  UNL1       -0.0280
     14  C         23.2800  -21.7030  -13.5970 C.2     1  UNL1        0.0460
     15  C         24.5520  -22.2200  -13.3710 C.2     1  UNL1        0.0680
     16  C         24.8280  -22.7950  -12.1390 C.2     1  UNL1        0.0390
     17  C         23.8340  -22.8650  -11.1510 C.2     1  UNL1        0.0330
     18  O         22.4880  -24.1520   -9.0230 O.2     1  UNL1       -0.2670
     19  O         25.4200  -22.0950  -14.4190 O.2     1  UNL1       -0.3560
     20  C         24.8940  -22.3400  -15.7190 C.3     1  UNL1        0.2100
     21  S         17.1790  -23.0380   -5.1740 S.O2    1  UNL1        0.2630
     22  O         16.8540  -24.3890   -4.7690 O.2     1  UNL1       -0.2000
     23  O         17.5070  -22.0170   -4.2020 O.2     1  UNL1       -0.2000
     24  N         15.8890  -22.4990   -6.1260 N.pl3   1  UNL1       -0.2780
     25  H         14.9940  -22.7440   -5.6990 H       1  UNL1        0.1790
     26  C         15.9700  -22.6790   -7.5420 C.2     1  UNL1        0.0810
     27  C         16.4740  -21.6770   -8.3690 C.2     1  UNL1        0.0330
     28  C         16.5830  -21.9030   -9.7440 C.2     1  UNL1        0.0020
     29  C         16.1920  -23.1270  -10.2920 C.2     1  UNL1        0.0030
     30  C         15.6850  -24.1300   -9.4680 C.2     1  UNL1        0.0440
     31  C         15.5780  -23.8990   -8.1010 C.2     1  UNL1        0.1430
     32  F         15.1060  -24.8730   -7.3070 F       1  UNL1       -0.2040
@<TRIPOS>BOND
     1    20    19    1
     2    19    15    1
     3    14    15    2
     4    14    13    1
     5    15    16    1
     6    12    13    1
     7    12    11    1
     8    13    10    2
     9    16    17    2
    10    11     9    1
    11    10    17    1
    12    10     8    1
    13     9     8    1
    14     8     7   am
    15    29    28    2
    16    29    30    1
    17    28    27    1
    18    30    31    2
    19     7    18    2
    20     7     1    1
    21    27    26    2
    22     1     6    2
    23     1     2    1
    24    31    26    1
    25    31    32    1
    26     6     5    1
    27    26    24    1
    28     2     3    2
    29     5     4    2
    30     3     4    1
    31     4    21    1
    32    24    25    1
    33    24    21    1
    34    21    22    2
    35    21    23    2
