@<TRIPOS>MOLECULE
74529_out_ligand_01.pdbqt
 35 38 0 0 0
SMALL
GASTEIGER

@<TRIPOS>ATOM
      1  C         19.7700  -22.8370   -7.2500 C.2     1  UNL1        0.0800
      2  C         19.4080  -24.1460   -7.5760 C.2     1  UNL1        0.0250
      3  C         20.1450  -24.8430   -8.5330 C.2     1  UNL1        0.0030
      4  C         21.2340  -24.2330   -9.1630 C.2     1  UNL1        0.0170
      5  C         21.5820  -22.9100   -8.8490 C.2     1  UNL1        0.0330
      6  C         20.8450  -22.2090   -7.8870 C.2     1  UNL1        0.0420
      7  C         22.7510  -22.2260   -9.4730 C.2     1  UNL1        0.2560
      8  O         23.0940  -21.1430   -9.0120 O.2     1  UNL1       -0.2670
      9  N         23.3160  -22.8860  -10.5440 N.am    1  UNL1       -0.3220
     10  H         22.8610  -23.7430  -10.8610 H       1  UNL1        0.1690
     11  C         24.4680  -22.5330  -11.2900 C.2     1  UNL1        0.0500
     12  C         25.7640  -22.8140  -10.8420 C.2     1  UNL1        0.0300
     13  C         26.8800  -22.4870  -11.6180 C.2     1  UNL1        0.0020
     14  C         26.7200  -21.8830  -12.8600 C.2     1  UNL1        0.0010
     15  C         25.4400  -21.5890  -13.3260 C.2     1  UNL1        0.0190
     16  C         24.3120  -21.8910  -12.5420 C.2     1  UNL1        0.0580
     17  C         22.9470  -21.5450  -13.0490 C.2     1  UNL1        0.2540
     18  O         22.7500  -21.4360  -14.2580 O.2     1  UNL1       -0.2680
     19  N         21.9480  -21.4210  -12.1000 N.am    1  UNL1       -0.3520
     20  H         22.1260  -21.7320  -11.1530 H       1  UNL1        0.1630
     21  C         20.5930  -21.1520  -12.4620 C.3     1  UNL1        0.0840
     22  C         19.4600  -21.8310  -11.7420 C.3     1  UNL1        0.0270
     23  C         19.7020  -20.3640  -11.5410 C.3     1  UNL1        0.0270
     24  S         18.8600  -21.9390   -6.0150 S.O2    1  UNL1        0.2630
     25  O         18.4560  -22.8940   -5.0040 O.2     1  UNL1       -0.2000
     26  O         19.6180  -20.7570   -5.6650 O.2     1  UNL1       -0.2000
     27  N         17.4550  -21.4840   -6.8320 N.pl3   1  UNL1       -0.2810
     28  H         16.8770  -20.8570   -6.2740 H       1  UNL1        0.1790
     29  C         16.7870  -22.4420   -7.6470 C.2     1  UNL1        0.0420
     30  C         16.1470  -23.5430   -7.0800 C.2     1  UNL1        0.0300
     31  C         15.4640  -24.4480   -7.8950 C.2     1  UNL1        0.0090
     32  C         15.4230  -24.2640   -9.2830 C.2     1  UNL1       -0.0620
     33  C         14.6580  -25.2170  -10.1530 C.3     1  UNL1        0.0480
     34  C         16.0600  -23.1490   -9.8410 C.2     1  UNL1        0.0090
     35  C         16.7450  -22.2440   -9.0270 C.2     1  UNL1        0.0300
@<TRIPOS>BOND
     1    18    17    2
     2    15    14    2
     3    15    16    1
     4    17    16    1
     5    17    19   am
     6    14    13    1
     7    16    11    2
     8    21    19    1
     9    21    22    1
    10    21    23    1
    11    19    20    1
    12    22    23    1
    13    13    12    2
    14    11    12    1
    15    11     9    1
    16    10     9    1
    17     9     7   am
    18    33    32    1
    19    34    32    2
    20    34    35    1
    21     7     8    2
    22     7     5    1
    23    32    31    1
    24     4     5    2
    25     4     3    1
    26    35    29    2
    27     5     6    1
    28     3     2    2
    29    31    30    2
    30     6     1    2
    31    29    30    1
    32    29    27    1
    33     2     1    1
    34     1    24    1
    35    27    28    1
    36    27    24    1
    37    24    26    2
    38    24    25    2
