@<TRIPOS>MOLECULE
74537_out_ligand_01.pdbqt
 32 35 0 0 0
SMALL
GASTEIGER

@<TRIPOS>ATOM
      1  C         21.8670  -23.3260  -10.3480 C.2     1  UNL1        0.0130
      2  C         23.1990  -23.1450  -10.6370 C.2     1  UNL1        0.1320
      3  N         23.2980  -22.0260  -11.4290 N.pl3   1  UNL1       -0.2440
      4  N         22.0730  -21.5170  -11.7140 N.2     1  UNL1       -0.1660
      5  C         21.2050  -22.2850  -11.0430 C.2     1  UNL1        0.1060
      6  C         21.3370  -24.3860   -9.5610 C.2     1  UNL1        0.0190
      7  C         20.6860  -24.3020   -8.3910 C.2     1  UNL1        0.0560
      8  C         20.4120  -23.0350   -7.6660 C.2     1  UNL1        0.1820
      9  O         21.2310  -22.1240   -7.6240 O.2     1  UNL1       -0.2880
     10  C         19.1320  -22.9410   -6.9110 C.2     1  UNL1        0.0140
     11  C         18.8670  -21.8950   -6.0120 C.2     1  UNL1        0.0170
     12  C         17.6540  -21.8570   -5.3160 C.2     1  UNL1        0.0260
     13  C         16.7120  -22.8700   -5.5130 C.2     1  UNL1        0.0740
     14  C         16.9620  -23.9150   -6.4080 C.2     1  UNL1        0.0260
     15  C         18.1770  -23.9520   -7.0970 C.2     1  UNL1        0.0170
     16  S         15.1650  -22.8250   -4.6430 S.O2    1  UNL1        0.2390
     17  O         14.7210  -24.1840   -4.4410 O.2     1  UNL1       -0.2060
     18  O         14.3310  -21.8130   -5.2490 O.2     1  UNL1       -0.2060
     19  N         15.6310  -22.1970   -3.1530 N.3     1  UNL1       -0.2250
     20  H         15.9410  -21.2270   -3.1980 H       1  UNL1        0.1360
     21  H         14.8740  -22.3270   -2.4800 H       1  UNL1        0.1360
     22  C         19.6600  -21.9490  -11.0900 C.2     1  UNL1        0.0360
     23  C         18.6950  -22.8050  -10.5940 C.2     1  UNL1        0.0220
     24  C         17.3770  -22.2870  -10.7510 C.2     1  UNL1        0.0080
     25  C         17.3790  -21.0570  -11.3720 C.2     1  UNL1        0.0500
     26  S         18.9650  -20.5370  -11.7500 S.3     1  UNL1       -0.1000
     27  C         24.4790  -21.4110  -11.9330 C.2     1  UNL1        0.0580
     28  C         24.5970  -21.1740  -13.3120 C.2     1  UNL1        0.0310
     29  C         25.7400  -20.5590  -13.8270 C.2     1  UNL1        0.0020
     30  C         26.7740  -20.1790  -12.9720 C.2     1  UNL1        0.0000
     31  C         26.6650  -20.4130  -11.6030 C.2     1  UNL1        0.0020
     32  C         25.5220  -21.0260  -11.0790 C.2     1  UNL1        0.0310
@<TRIPOS>BOND
     1    29    28    1
     2    29    30    2
     3    28    27    2
     4    30    31    1
     5    27     3    1
     6    27    32    1
     7    26    25    1
     8    26    22    1
     9     4     3    1
    10     4     5    2
    11    31    32    2
    12     3     2    1
    13    25    24    2
    14    22     5    1
    15    22    23    2
    16     5     1    1
    17    24    23    1
    18     2     1    2
    19     1     6    1
    20     6     7    2
    21     7     8    1
    22     8     9    2
    23     8    10    1
    24    15    10    2
    25    15    14    1
    26    10    11    1
    27    14    13    2
    28    11    12    2
    29    13    12    1
    30    13    16    1
    31    18    16    2
    32    16    17    2
    33    16    19    1
    34    20    19    1
    35    19    21    1
