@<TRIPOS>MOLECULE
74542_out_ligand_01.pdbqt
 31 34 0 0 0
SMALL
GASTEIGER

@<TRIPOS>ATOM
      1  C         22.5450  -21.8240  -10.4760 C.2     1  UNL1        0.0350
      2  C         22.9990  -21.6870   -9.1640 C.2     1  UNL1        0.0290
      3  C         22.1930  -22.0760   -8.0910 C.2     1  UNL1        0.0030
      4  C         20.9270  -22.6090   -8.3200 C.2     1  UNL1        0.0090
      5  C         20.4500  -22.7550   -9.6270 C.2     1  UNL1       -0.0380
      6  C         21.2700  -22.3640  -10.7000 C.2     1  UNL1        0.0380
      7  C         19.0910  -23.3580   -9.8700 C.3     1  UNL1        0.1610
      8  N         18.3880  -23.5300   -8.6200 N.am    1  UNL1       -0.3530
      9  C         17.2110  -22.8720   -8.3480 C.2     1  UNL1        0.2520
     10  O         16.5970  -22.1870   -9.1560 O.2     1  UNL1       -0.2680
     11  H         18.8460  -24.0540   -7.8870 H       1  UNL1        0.1630
     12  C         16.7170  -23.0390   -6.9580 C.2     1  UNL1        0.0430
     13  C         15.6010  -23.8690   -6.7700 C.2     1  UNL1        0.0180
     14  C         15.0880  -24.0640   -5.4930 C.2     1  UNL1        0.0020
     15  C         15.6880  -23.4330   -4.4050 C.2     1  UNL1        0.0120
     16  C         16.8110  -22.6040   -4.5710 C.2     1  UNL1       -0.0250
     17  C         17.4000  -21.9800   -3.4590 C.2     1  UNL1        0.0120
     18  C         17.3520  -22.3950   -5.8640 C.2     1  UNL1       -0.0100
     19  C         18.5120  -21.1510   -3.6040 C.2     1  UNL1        0.0010
     20  C         19.0530  -20.9370   -4.8640 C.2     1  UNL1        0.0010
     21  C         18.4800  -21.5490   -5.9820 C.2     1  UNL1        0.0130
     22  N         23.2970  -21.4590  -11.6140 N.am    1  UNL1       -0.3230
     23  C         24.0300  -22.2960  -12.4370 C.2     1  UNL1        0.2560
     24  O         24.2090  -23.4990  -12.2970 O.2     1  UNL1       -0.2670
     25  H         23.3640  -20.4660  -11.7910 H       1  UNL1        0.1690
     26  C         24.6910  -21.6220  -13.5860 C.2     1  UNL1        0.0350
     27  C         24.2050  -21.8710  -14.8700 C.2     1  UNL1        0.0360
     28  C         24.8240  -21.2380  -15.9300 C.2     1  UNL1        0.1170
     29  N         25.8650  -20.3890  -15.7890 N.2     1  UNL1       -0.2730
     30  C         26.2960  -20.1450  -14.5340 C.2     1  UNL1        0.1170
     31  C         25.7490  -20.7300  -13.4070 C.2     1  UNL1        0.0360
@<TRIPOS>BOND
     1    28    29    2
     2    28    27    1
     3    29    30    1
     4    27    26    2
     5    30    31    2
     6    26    31    1
     7    26    23    1
     8    23    24    2
     9    23    22   am
    10    25    22    1
    11    22     1    1
    12     6     1    2
    13     6     5    1
    14     1     2    1
    15     7     5    1
    16     7     8    1
    17     5     4    2
    18     2     3    2
    19    10     9    2
    20     8     9   am
    21     8    11    1
    22     9    12    1
    23     4     3    1
    24    12    13    2
    25    12    18    1
    26    13    14    1
    27    21    18    1
    28    21    20    2
    29    18    16    2
    30    14    15    2
    31    20    19    1
    32    16    15    1
    33    16    17    1
    34    19    17    2
