@<TRIPOS>MOLECULE
74549_out_ligand_01.pdbqt
 34 38 0 0 0
SMALL
GASTEIGER

@<TRIPOS>ATOM
      1  C         20.4700  -21.9990  -10.4300 C.2     1  UNL1        0.0350
      2  C         20.2100  -21.2270  -11.5620 C.2     1  UNL1        0.0290
      3  C         21.1410  -21.1560  -12.6020 C.2     1  UNL1        0.0030
      4  C         22.3460  -21.8500  -12.5160 C.2     1  UNL1        0.0110
      5  C         22.6330  -22.6110  -11.3800 C.2     1  UNL1       -0.0340
      6  C         21.6890  -22.6890  -10.3460 C.2     1  UNL1        0.0410
      7  C         23.8920  -23.3500  -11.2620 C.2     1  UNL1        0.0150
      8  C         25.0660  -23.0600  -11.8460 C.2     1  UNL1        0.0510
      9  C         25.4030  -21.9070  -12.7190 C.ar    1  UNL1        0.1310
     10  N         25.2300  -21.9960  -14.0030 N.ar    1  UNL1       -0.2230
     11  C         25.5920  -20.8880  -14.7030 C.ar    1  UNL1        0.1160
     12  S         25.4180  -20.8060  -16.3990 S.2     1  UNL1       -0.0730
     13  C         26.1290  -19.7250  -14.1870 C.ar    1  UNL1        0.0750
     14  C         26.0580  -19.2290  -16.4490 C.ar    1  UNL1       -0.0080
     15  C         26.3950  -18.7480  -15.1970 C.ar    1  UNL1       -0.0260
     16  C         26.1930  -18.4680  -17.7310 C.3     1  UNL1        0.0470
     17  C         26.9860  -17.3830  -15.0020 C.3     1  UNL1        0.0410
     18  C         26.8030  -16.4970  -16.2460 C.3     1  UNL1        0.0050
     19  C         27.1210  -17.2580  -17.5400 C.3     1  UNL1        0.0050
     20  C         26.3440  -19.6710  -12.7560 C.ar    1  UNL1        0.2600
     21  O         26.8420  -18.7170  -12.1670 O.2     1  UNL1       -0.2670
     22  N         25.9450  -20.8080  -12.0930 N.ar    1  UNL1       -0.3070
     23  H         26.0820  -20.7900  -11.0940 H       1  UNL1        0.1700
     24  N         19.5840  -22.1210   -9.3390 N.am    1  UNL1       -0.3230
     25  C         18.2730  -22.5670   -9.3700 C.2     1  UNL1        0.2560
     26  O         17.6700  -23.0090  -10.3400 O.2     1  UNL1       -0.2670
     27  H         19.9760  -21.9320   -8.4270 H       1  UNL1        0.1690
     28  C         17.5720  -22.5340   -8.0560 C.2     1  UNL1        0.0320
     29  C         16.1860  -22.7190   -8.0330 C.2     1  UNL1        0.0170
     30  C         15.4960  -22.6980   -6.8190 C.2     1  UNL1        0.0070
     31  C         16.1800  -22.4690   -5.6180 C.2     1  UNL1       -0.0620
     32  C         15.4400  -22.4750   -4.3120 C.3     1  UNL1        0.0480
     33  C         17.5680  -22.2790   -5.6470 C.2     1  UNL1        0.0070
     34  C         18.2620  -22.3010   -6.8600 C.2     1  UNL1        0.0170
@<TRIPOS>BOND
     1    16    19    1
     2    16    14    1
     3    19    18    1
     4    14    12   ar
     5    14    15   ar
     6    12    11   ar
     7    18    17    1
     8    15    17    1
     9    15    13   ar
    10    11    13   ar
    11    11    10   ar
    12    13    20   ar
    13    10     9   ar
    14    20    21    2
    15    20    22   ar
    16     9    22   ar
    17     9     8    1
    18     3     4    2
    19     3     2    1
    20     4     5    1
    21    22    23    1
    22     8     7    2
    23     2     1    2
    24     5     7    1
    25     5     6    2
    26     1     6    1
    27     1    24    1
    28    26    25    2
    29    25    24   am
    30    25    28    1
    31    24    27    1
    32    28    29    2
    33    28    34    1
    34    29    30    1
    35    34    33    2
    36    30    31    2
    37    33    31    1
    38    31    32    1
