@<TRIPOS>MOLECULE
74554_out_ligand_01.pdbqt
 35 38 0 0 0
SMALL
GASTEIGER

@<TRIPOS>ATOM
      1  C         18.0250  -23.1710   -9.0130 C.2     1  UNL1        0.0790
      2  C         18.0880  -22.2420  -10.0560 C.2     1  UNL1        0.0260
      3  C         19.3340  -21.8560  -10.5590 C.2     1  UNL1        0.0180
      4  C         20.5110  -22.3970  -10.0220 C.2     1  UNL1        0.0320
      5  C         20.4360  -23.3540   -8.9980 C.2     1  UNL1        0.0180
      6  C         19.1910  -23.7410   -8.4930 C.2     1  UNL1        0.0260
      7  C         21.8180  -21.9570  -10.5930 C.2     1  UNL1        0.2560
      8  O         22.5400  -21.2480   -9.9050 O.2     1  UNL1       -0.2670
      9  N         22.0970  -22.4470  -11.8570 N.am    1  UNL1       -0.3230
     10  H         21.4590  -23.1350  -12.2340 H       1  UNL1        0.1690
     11  C         23.2310  -22.1680  -12.6540 C.2     1  UNL1        0.0370
     12  C         24.5260  -22.6670  -12.3690 C.2     1  UNL1        0.0320
     13  C         25.6280  -22.3620  -13.1830 C.2     1  UNL1        0.0340
     14  C         25.3920  -21.5550  -14.2660 C.ar    1  UNL1        0.0630
     15  N         26.2700  -21.0870  -15.2370 N.ar    1  UNL1       -0.3070
     16  C         24.1260  -21.0560  -14.5530 C.ar    1  UNL1        0.0650
     17  C         25.5550  -20.2890  -16.1420 C.ar    1  UNL1        0.3250
     18  H         27.2570  -21.2700  -15.3090 H       1  UNL1        0.1700
     19  O         25.9990  -19.7150  -17.1190 O.2     1  UNL1       -0.2470
     20  N         24.2220  -20.2800  -15.7030 N.ar    1  UNL1       -0.3060
     21  H         23.4850  -19.7800  -16.1710 H       1  UNL1        0.1700
     22  C         23.0290  -21.3410  -13.7710 C.2     1  UNL1        0.0610
     23  S         16.4430  -23.6870   -8.3890 S.O2    1  UNL1        0.2630
     24  O         16.6860  -24.7710   -7.4600 O.2     1  UNL1       -0.2000
     25  O         15.5360  -23.8520   -9.5030 O.2     1  UNL1       -0.2000
     26  N         15.9730  -22.3670   -7.4450 N.pl3   1  UNL1       -0.2800
     27  H         16.2380  -21.4850   -7.8810 H       1  UNL1        0.1790
     28  C         16.0990  -22.4680   -6.0300 C.2     1  UNL1        0.0490
     29  C         15.0410  -23.0620   -5.3370 C.2     1  UNL1        0.0310
     30  C         15.1110  -23.2270   -3.9580 C.2     1  UNL1        0.0030
     31  C         16.2450  -22.8060   -3.2690 C.2     1  UNL1        0.0070
     32  C         17.3230  -22.2140   -3.9490 C.2     1  UNL1       -0.0540
     33  C         18.5300  -21.7870   -3.1560 C.3     1  UNL1        0.0490
     34  C         17.2480  -22.0210   -5.3490 C.2     1  UNL1       -0.0290
     35  C         18.4110  -21.4040   -6.0840 C.3     1  UNL1        0.0510
@<TRIPOS>BOND
     1    19    17    2
     2    21    20    1
     3    17    20   ar
     4    17    15   ar
     5    20    16   ar
     6    18    15    1
     7    15    14   ar
     8    16    14   ar
     9    16    22    1
    10    14    13    1
    11    22    11    2
    12    13    12    2
    13    11    12    1
    14    11     9    1
    15    10     9    1
    16     9     7   am
    17     7     4    1
    18     7     8    2
    19     3     2    1
    20     3     4    2
    21     2     1    2
    22     4     5    1
    23    25    23    2
    24     1     6    1
    25     1    23    1
    26     5     6    2
    27    23    24    2
    28    23    26    1
    29    27    26    1
    30    26    28    1
    31    35    34    1
    32    28    34    2
    33    28    29    1
    34    34    32    1
    35    29    30    2
    36    30    31    1
    37    32    31    2
    38    32    33    1
