@<TRIPOS>MOLECULE
74553_out_ligand_01.pdbqt
 33 36 0 0 0
SMALL
GASTEIGER

@<TRIPOS>ATOM
      1  C         17.4690  -22.6510   -9.5170 C.2     1  UNL1        0.0800
      2  C         16.6670  -21.8140  -10.2990 C.2     1  UNL1        0.0250
      3  C         17.2570  -21.0030  -11.2680 C.2     1  UNL1        0.0030
      4  C         18.6410  -21.0310  -11.4570 C.2     1  UNL1        0.0170
      5  C         19.4430  -21.8750  -10.6720 C.2     1  UNL1        0.0330
      6  C         18.8570  -22.6690   -9.6800 C.2     1  UNL1        0.0420
      7  C         20.9210  -21.9340  -10.8450 C.2     1  UNL1        0.2560
      8  O         21.6170  -21.9730   -9.8390 O.2     1  UNL1       -0.2670
      9  N         21.3520  -21.9850  -12.1590 N.am    1  UNL1       -0.3230
     10  H         20.6410  -22.0820  -12.8720 H       1  UNL1        0.1690
     11  C         22.6860  -22.0140  -12.6240 C.2     1  UNL1        0.0350
     12  C         23.7010  -22.7640  -12.0240 C.2     1  UNL1        0.0320
     13  C         25.0140  -22.7590  -12.5170 C.2     1  UNL1        0.0340
     14  C         25.2710  -21.9660  -13.6360 C.2     1  UNL1        0.0620
     15  N         26.4170  -21.7400  -14.3530 N.pl3   1  UNL1       -0.2780
     16  C         24.2920  -21.2030  -14.2570 C.2     1  UNL1        0.0130
     17  N         26.2590  -20.8920  -15.3860 N.2     1  UNL1       -0.1860
     18  H         27.3360  -22.1330  -14.1880 H       1  UNL1        0.1890
     19  C         24.9640  -20.5680  -15.3240 C.2     1  UNL1        0.1520
     20  C         22.9800  -21.2210  -13.7480 C.2     1  UNL1        0.0440
     21  S         16.7240  -23.6800   -8.2730 S.O2    1  UNL1        0.2630
     22  O         15.5650  -24.3120   -8.8640 O.2     1  UNL1       -0.2000
     23  O         17.7740  -24.4670   -7.6590 O.2     1  UNL1       -0.2000
     24  N         16.1340  -22.5600   -7.1520 N.pl3   1  UNL1       -0.2790
     25  H         15.6510  -21.7900   -7.6170 H       1  UNL1        0.1790
     26  C         16.9430  -22.2120   -6.0230 C.2     1  UNL1        0.0600
     27  C         16.5880  -22.6190   -4.7310 C.2     1  UNL1        0.0380
     28  C         17.3640  -22.2390   -3.6340 C.2     1  UNL1        0.0220
     29 BR         15.0510  -23.6870   -4.4130 Br      1  UNL1       -0.0490
     30  C         18.5030  -21.4540   -3.8250 C.2     1  UNL1        0.0080
     31  C         18.8830  -21.0590   -5.1130 C.2     1  UNL1       -0.0600
     32  C         20.0940  -20.1970   -5.3190 C.3     1  UNL1        0.0480
     33  C         18.0900  -21.4350   -6.2060 C.2     1  UNL1        0.0380
@<TRIPOS>BOND
     1    17    19    2
     2    17    15    1
     3    19    16    1
     4    15    18    1
     5    15    14    1
     6    16    20    1
     7    16    14    2
     8    20    11    2
     9    14    13    1
    10    10     9    1
    11    11     9    1
    12    11    12    1
    13    13    12    2
    14     9     7   am
    15     4     3    2
    16     4     5    1
    17     3     2    1
    18     7     5    1
    19     7     8    2
    20     5     6    2
    21     2     1    2
    22     6     1    1
    23     1    21    1
    24    22    21    2
    25    21    23    2
    26    21    24    1
    27    25    24    1
    28    24    26    1
    29    33    26    2
    30    33    31    1
    31    26    27    1
    32    32    31    1
    33    31    30    2
    34    27    29    1
    35    27    28    2
    36    30    28    1
