@<TRIPOS>MOLECULE
74569_out_ligand_01.pdbqt
 34 38 0 0 0
SMALL
GASTEIGER

@<TRIPOS>ATOM
      1  C         21.1590  -22.0460  -10.2600 C.2     1  UNL1        0.0320
      2  C         20.1610  -21.7070  -11.1820 C.2     1  UNL1        0.0180
      3  C         18.8160  -21.8580  -10.8430 C.2     1  UNL1        0.0190
      4  C         18.4610  -22.3230   -9.5700 C.2     1  UNL1        0.0450
      5  C         19.4570  -22.6300   -8.6310 C.2     1  UNL1       -0.0380
      6  C         20.8080  -22.5010   -8.9810 C.2     1  UNL1        0.0250
      7  C         19.0420  -23.1240   -7.2740 C.3     1  UNL1        0.0770
      8  C         17.6990  -22.4860   -6.9110 C.3     1  UNL1        0.1690
      9  O         16.7340  -22.7930   -7.9440 O.3     1  UNL1       -0.3070
     10  C         17.0240  -22.5210   -9.2400 C.2     1  UNL1        0.2940
     11  O         16.1620  -22.4740  -10.1060 O.2     1  UNL1       -0.2590
     12  C         22.5830  -21.8830  -10.6610 C.2     1  UNL1        0.2560
     13  O         23.3750  -21.4730   -9.8240 O.2     1  UNL1       -0.2670
     14  N         22.8430  -22.1830  -11.9870 N.am    1  UNL1       -0.3230
     15  H         22.0420  -22.3650  -12.5770 H       1  UNL1        0.1690
     16  C         24.1000  -22.1590  -12.6330 C.2     1  UNL1        0.0350
     17  C         25.0230  -23.2040  -12.5720 C.2     1  UNL1        0.0290
     18  C         26.2410  -23.1180  -13.2500 C.2     1  UNL1        0.0030
     19  C         26.5500  -21.9810  -13.9940 C.2     1  UNL1        0.0150
     20  C         25.6400  -20.9210  -14.0620 C.2     1  UNL1        0.0140
     21  C         24.4130  -21.0170  -13.3880 C.2     1  UNL1        0.0440
     22  C         26.0060  -19.7360  -14.8590 C.ar    1  UNL1        0.1700
     23  N         26.0160  -19.6820  -16.1500 N.ar    1  UNL1       -0.1040
     24  O         26.4480  -18.3550  -16.4680 O.2     1  UNL1       -0.1530
     25  C         26.6780  -17.7320  -15.2680 C.ar    1  UNL1        0.3900
     26  O         27.0940  -16.5940  -15.1200 O.2     1  UNL1       -0.2360
     27  N         26.3820  -18.5870  -14.2760 N.ar    1  UNL1       -0.2830
     28  H         26.5330  -18.3620  -13.3110 H       1  UNL1        0.1720
     29  C         17.0970  -22.9090   -5.5810 C.2     1  UNL1       -0.0290
     30  C         17.7680  -22.7930   -4.3530 C.2     1  UNL1        0.0100
     31  C         17.1510  -23.1830   -3.1590 C.2     1  UNL1        0.0010
     32  C         15.8540  -23.6900   -3.1710 C.2     1  UNL1        0.0000
     33  C         15.1700  -23.8090   -4.3780 C.2     1  UNL1        0.0010
     34  C         15.7860  -23.4200   -5.5690 C.2     1  UNL1        0.0100
@<TRIPOS>BOND
     1    24    23   ar
     2    24    25   ar
     3    23    22   ar
     4    25    26    2
     5    25    27   ar
     6    22    27   ar
     7    22    20    1
     8    27    28    1
     9    20    19    2
    10    20    21    1
    11    19    18    1
    12    21    16    2
    13    18    17    2
    14    16    17    1
    15    16    14    1
    16    15    14    1
    17    14    12   am
    18     2     3    1
    19     2     1    2
    20     3     4    2
    21    12     1    1
    22    12    13    2
    23     1     6    1
    24    11    10    2
    25     4    10    1
    26     4     5    1
    27    10     9    1
    28     6     5    2
    29     5     7    1
    30     9     8    1
    31     7     8    1
    32     8    29    1
    33    29    34    2
    34    29    30    1
    35    34    33    1
    36    33    32    2
    37    30    31    2
    38    32    31    1
