@<TRIPOS>MOLECULE
74581_out_ligand_01.pdbqt
 29 31 0 0 0
SMALL
GASTEIGER

@<TRIPOS>ATOM
      1  C         24.7870  -22.8880  -11.0730 C.2     1  UNL1        0.0350
      2  C         23.7270  -22.8900  -10.1540 C.2     1  UNL1        0.0460
      3  C         22.4700  -22.3800  -10.5000 C.2     1  UNL1        0.0360
      4  C         22.2740  -21.8840  -11.7900 C.2     1  UNL1        0.0460
      5  C         23.3290  -21.8790  -12.7140 C.2     1  UNL1        0.0350
      6  C         24.5850  -22.3870  -12.3610 C.2     1  UNL1        0.0340
      7  N         21.4650  -22.4250   -9.5110 N.am    1  UNL1       -0.3230
      8  C         20.8420  -23.5510   -9.0020 C.2     1  UNL1        0.2560
      9  O         20.9820  -24.7010   -9.3990 O.2     1  UNL1       -0.2670
     10  H         21.1030  -21.5280   -9.2070 H       1  UNL1        0.1690
     11  C         19.8700  -23.2870   -7.9030 C.2     1  UNL1        0.0320
     12  C         18.8350  -24.2190   -7.6910 C.2     1  UNL1        0.0170
     13  C         17.8890  -24.0200   -6.6820 C.2     1  UNL1        0.0090
     14  C         18.0090  -22.8960   -5.8840 C.2     1  UNL1       -0.0520
     15  C         19.0450  -21.9760   -6.0770 C.2     1  UNL1       -0.0510
     16  C         17.1110  -22.4600   -4.7690 C.3     1  UNL1        0.0390
     17  C         19.9840  -22.1540   -7.0810 C.2     1  UNL1        0.0240
     18  C         18.9380  -20.8430   -5.1050 C.3     1  UNL1        0.0390
     19  C         18.0070  -21.4460   -4.0440 C.3     1  UNL1        0.0090
     20  C         26.0860  -23.4620  -10.6350 C.2     1  UNL1        0.2490
     21  N         26.0900  -24.2770   -9.5370 N.am    1  UNL1       -0.3660
     22  H         25.2560  -24.6880   -9.1470 H       1  UNL1        0.1590
     23  H         26.9700  -24.7320   -9.3290 H       1  UNL1        0.1590
     24  O         27.1210  -23.2440  -11.2520 O.2     1  UNL1       -0.2680
     25  C         23.0730  -21.3690  -14.0830 C.2     1  UNL1        0.2490
     26  N         22.2880  -20.2530  -14.1870 N.am    1  UNL1       -0.3660
     27  H         22.0070  -20.0200  -15.1320 H       1  UNL1        0.1590
     28  H         21.6510  -19.9920  -13.4480 H       1  UNL1        0.1590
     29  O         23.5140  -21.9260  -15.0770 O.2     1  UNL1       -0.2680
@<TRIPOS>BOND
     1    27    26    1
     2    29    25    2
     3    26    25   am
     4    26    28    1
     5    25     5    1
     6     5     6    1
     7     5     4    2
     8     6     1    2
     9     4     3    1
    10    24    20    2
    11     1    20    1
    12     1     2    1
    13    20    21   am
    14     3     2    2
    15     3     7    1
    16    21    23    1
    17    21    22    1
    18     7    10    1
    19     7     8   am
    20     9     8    2
    21     8    11    1
    22    11    12    2
    23    11    17    1
    24    12    13    1
    25    17    15    2
    26    13    14    2
    27    15    14    1
    28    15    18    1
    29    14    16    1
    30    18    19    1
    31    16    19    1
