@<TRIPOS>MOLECULE
7459_out_ligand_01.pdbqt
 38 41 0 0 0
SMALL
GASTEIGER

@<TRIPOS>ATOM
      1  S         16.2700  -22.8520   -8.9370 S.O2    1  UNL1        0.2720
      2  O         16.9580  -24.0560   -8.5110 O.2     1  UNL1       -0.2030
      3  O         14.9320  -22.9180   -9.4870 O.2     1  UNL1       -0.2030
      4  C         17.2920  -22.1320  -10.1890 C.ar    1  UNL1        0.2330
      5  N         17.0910  -20.9720  -10.7830 N.ar    1  UNL1       -0.1270
      6  N         18.1200  -20.6700  -11.6600 N.ar    1  UNL1       -0.1220
      7  C         19.0290  -21.6140  -11.6860 C.ar    1  UNL1        0.1970
      8  S         18.7390  -22.9280  -10.6360 S.2     1  UNL1       -0.0150
      9  N         20.1870  -21.7190  -12.4070 N.am    1  UNL1       -0.3000
     10  C         21.4070  -21.3620  -11.8800 C.2     1  UNL1        0.2570
     11  O         21.6170  -20.9110  -10.7620 O.2     1  UNL1       -0.2670
     12  H         20.0960  -21.9950  -13.3720 H       1  UNL1        0.1710
     13  C         22.5610  -21.5220  -12.8110 C.2     1  UNL1        0.0320
     14  C         22.6520  -20.8040  -14.0100 C.2     1  UNL1        0.0170
     15  C         23.7570  -20.9810  -14.8470 C.2     1  UNL1        0.0070
     16  C         24.7710  -21.8860  -14.5070 C.2     1  UNL1       -0.0620
     17  C         25.9730  -22.0510  -15.3900 C.3     1  UNL1        0.0480
     18  C         24.6710  -22.6040  -13.3090 C.2     1  UNL1        0.0070
     19  C         23.5670  -22.4310  -12.4700 C.2     1  UNL1        0.0170
     20  N         16.2690  -21.7990   -7.5790 N.pl3   1  UNL1       -0.1790
     21  H         17.2220  -21.3930   -7.5750 H       1  UNL1        0.1460
     22  C         15.9950  -22.4460   -6.3150 C.2     1  UNL1        0.0380
     23  C         14.7500  -23.0640   -6.1510 C.2     1  UNL1        0.0250
     24  C         14.4730  -23.7970   -4.9980 C.2     1  UNL1        0.0020
     25  C         15.4390  -23.9230   -4.0050 C.2     1  UNL1        0.0010
     26  C         16.6790  -23.2960   -4.1480 C.2     1  UNL1        0.0190
     27  C         16.9680  -22.5310   -5.2910 C.2     1  UNL1        0.0540
     28  C         18.2690  -21.8000   -5.4370 C.2     1  UNL1        0.2530
     29  O         18.6830  -21.1040   -4.5120 O.2     1  UNL1       -0.2680
     30  N         18.9910  -21.9860   -6.5970 N.am    1  UNL1       -0.3530
     31  H         18.7640  -22.7480   -7.2160 H       1  UNL1        0.1630
     32  C         20.3130  -21.4170   -6.7640 C.3     1  UNL1        0.1610
     33  C         21.1620  -22.2920   -7.6500 C.2     1  UNL1       -0.0410
     34  C         20.6830  -23.5250   -8.1120 C.2     1  UNL1        0.0090
     35  C         21.4860  -24.3410   -8.9130 C.2     1  UNL1        0.0010
     36  C         22.7740  -23.9330   -9.2550 C.2     1  UNL1        0.0000
     37  C         23.2640  -22.7130   -8.7930 C.2     1  UNL1        0.0010
     38  C         22.4630  -21.8970   -7.9920 C.2     1  UNL1        0.0090
@<TRIPOS>BOND
     1    17    16    1
     2    15    16    2
     3    15    14    1
     4    16    18    1
     5    14    13    2
     6    12     9    1
     7    18    19    2
     8    13    19    1
     9    13    10    1
    10     9    10   am
    11     9     7    1
    12    10    11    2
    13     7     6   ar
    14     7     8   ar
    15     6     5   ar
    16     5     4   ar
    17     8     4   ar
    18     4     1    1
    19     3     1    2
    20    36    35    2
    21    36    37    1
    22     1     2    2
    23     1    20    1
    24    35    34    1
    25    37    38    2
    26    34    33    2
    27    38    33    1
    28    33    32    1
    29    20    21    1
    30    20    22    1
    31    31    30    1
    32    32    30    1
    33    30    28   am
    34    22    23    2
    35    22    27    1
    36    23    24    1
    37    28    27    1
    38    28    29    2
    39    27    26    2
    40    24    25    2
    41    26    25    1
