@<TRIPOS>MOLECULE
74595_out_ligand_01.pdbqt
 31 34 0 0 0
SMALL
GASTEIGER

@<TRIPOS>ATOM
      1  C         22.5410  -22.3120   -8.5010 C.2     1  UNL1        0.1440
      2  N         23.4560  -22.7510   -9.3150 N.2     1  UNL1       -0.2080
      3  C         21.0730  -22.5040   -8.5280 C.2     1  UNL1       -0.0170
      4  C         20.3840  -22.3360   -7.3230 C.2     1  UNL1        0.0270
      5  C         18.9880  -22.5530   -7.2790 C.ar    1  UNL1        0.0040
      6  C         18.0090  -22.4590   -6.2390 C.ar    1  UNL1        0.0030
      7  C         18.3310  -22.9500   -8.4440 C.ar    1  UNL1        0.0460
      8  C         18.0730  -22.1140   -4.8720 C.2     1  UNL1        0.0140
      9  C         16.7730  -22.8010   -6.7900 C.ar    1  UNL1        0.0460
     10  C         16.9040  -22.1130   -4.1020 C.2     1  UNL1        0.0010
     11  C         15.6830  -22.4520   -4.6730 C.2     1  UNL1        0.0020
     12  C         15.5940  -22.8030   -6.0240 C.2     1  UNL1        0.0300
     13  N         16.9950  -23.1040   -8.1220 N.ar    1  UNL1       -0.3460
     14  C         19.0190  -23.1410   -9.6560 C.2     1  UNL1        0.0310
     15  C         20.3990  -22.9210   -9.6730 C.2     1  UNL1        0.0150
     16  C         15.9630  -23.5410   -9.0490 C.3     1  UNL1        0.1250
     17  C         15.4220  -22.3970   -9.8860 C.3     1  UNL1        0.0270
     18  N         23.0440  -23.3900  -10.4380 N.pl3   1  UNL1       -0.1830
     19  H         22.0500  -23.6400  -10.4590 H       1  UNL1        0.1550
     20  C         23.4800  -22.8690  -11.6830 C.2     1  UNL1        0.0290
     21  C         24.7830  -23.1430  -12.1240 C.2     1  UNL1        0.0270
     22  C         25.2860  -22.5580  -13.2920 C.2     1  UNL1        0.0260
     23  C         24.4910  -21.6600  -14.0080 C.2     1  UNL1        0.0740
     24  C         23.1970  -21.3660  -13.5820 C.2     1  UNL1        0.0260
     25  C         22.7060  -21.9570  -12.4150 C.2     1  UNL1        0.0270
     26  S         25.1150  -20.9330  -15.4960 S.O2    1  UNL1        0.2390
     27  O         26.4630  -21.4040  -15.7360 O.2     1  UNL1       -0.2060
     28  O         24.0930  -20.9840  -16.5160 O.2     1  UNL1       -0.2060
     29  N         25.2560  -19.3170  -15.0650 N.3     1  UNL1       -0.2250
     30  H         24.8280  -19.1700  -14.1480 H       1  UNL1        0.1360
     31  H         24.8790  -18.7130  -15.7990 H       1  UNL1        0.1360
@<TRIPOS>BOND
     1    28    26    2
     2    31    29    1
     3    27    26    2
     4    26    29    1
     5    26    23    1
     6    29    30    1
     7    23    24    2
     8    23    22    1
     9    24    25    1
    10    22    21    2
    11    25    20    2
    12    21    20    1
    13    20    18    1
    14    19    18    1
    15    18     2    1
    16    17    16    1
    17    15    14    1
    18    15     3    2
    19    14     7    2
    20     2     1    2
    21    16    13    1
    22     3     1    1
    23     3     4    1
    24     7    13   ar
    25     7     5   ar
    26    13     9   ar
    27     4     5    2
    28     5     6   ar
    29     9     6   ar
    30     9    12    1
    31     6     8    1
    32    12    11    2
    33     8    10    2
    34    11    10    1
