@<TRIPOS>MOLECULE
74591_out_ligand_01.pdbqt
 38 40 0 0 0
SMALL
GASTEIGER

@<TRIPOS>ATOM
      1  C         21.4760  -22.6630   -9.6110 C.2     1  UNL1        0.0770
      2  C         20.9730  -23.2380   -8.4450 C.2     1  UNL1        0.0270
      3  C         19.5990  -23.1830   -8.1910 C.2     1  UNL1        0.0290
      4  C         18.7000  -22.5690   -9.0890 C.2     1  UNL1        0.0620
      5  C         19.2410  -22.0060  -10.2660 C.2     1  UNL1        0.1270
      6  C         20.6200  -22.0650  -10.5360 C.2     1  UNL1        0.0620
      7  S         23.2230  -22.6930   -9.9380 S.O2    1  UNL1        0.2460
      8  O         23.7010  -21.3250   -9.9490 O.2     1  UNL1       -0.2060
      9  O         23.8090  -23.7110   -9.0920 O.2     1  UNL1       -0.2060
     10  N         23.2340  -23.1900  -11.5730 N.pl3   1  UNL1       -0.1800
     11  H         22.3830  -22.8140  -11.9950 H       1  UNL1        0.1460
     12  C         24.4080  -22.7710  -12.2980 C.2     1  UNL1        0.0390
     13  C         25.6310  -23.3610  -11.9520 C.2     1  UNL1        0.0250
     14  C         26.7860  -23.0800  -12.6880 C.2     1  UNL1        0.0020
     15  C         26.7270  -22.2080  -13.7750 C.2     1  UNL1        0.0010
     16  C         25.5130  -21.6160  -14.1290 C.2     1  UNL1        0.0200
     17  C         24.3400  -21.8990  -13.4020 C.2     1  UNL1        0.0590
     18  C         23.0680  -21.2340  -13.7840 C.2     1  UNL1        0.1780
     19  O         21.9700  -21.3920  -13.2790 O.2     1  UNL1       -0.6460
     20  O         23.2330  -20.3790  -14.8150 O.3     1  UNL1       -0.7730
     21  H         23.2600  -20.9670  -15.6020 H       1  UNL1        0.1670
     22  N         18.3790  -21.3720  -11.2730 N.pl3   1  UNL1       -0.1140
     23  O         17.2660  -21.8800  -11.4870 O.2     1  UNL1       -0.5320
     24  O         18.8190  -20.3710  -11.8650 O.2     1  UNL1       -0.5320
     25  N         17.3280  -22.4570   -8.7140 N.pl3   1  UNL1       -0.1810
     26  H         16.8720  -21.7220   -9.2750 H       1  UNL1        0.1550
     27  N         16.6250  -23.6220   -8.7170 N.2     1  UNL1       -0.2080
     28  C         16.0710  -24.0160   -7.6050 C.2     1  UNL1        0.1440
     29  C         16.0660  -23.4150   -6.2470 C.2     1  UNL1       -0.0170
     30  C         15.0320  -23.5770   -5.3200 C.2     1  UNL1        0.0130
     31  C         15.1200  -22.9810   -4.0580 C.2     1  UNL1        0.0020
     32  C         16.2460  -22.2300   -3.7110 C.2     1  UNL1        0.0160
     33  C         17.3060  -22.0760   -4.6190 C.2     1  UNL1        0.0480
     34  C         17.2030  -22.6730   -5.8890 C.2     1  UNL1        0.0290
     35  C         18.5220  -21.2550   -4.2550 C.3     1  UNL1        0.4170
     36  F         19.1810  -21.7230   -3.1530 F       1  UNL1       -0.1660
     37  F         19.4480  -21.2140   -5.2550 F       1  UNL1       -0.1660
     38  F         18.2100  -19.9560   -3.9840 F       1  UNL1       -0.1660
@<TRIPOS>BOND
     1    21    20    1
     2    20    18    1
     3    16    15    2
     4    16    17    1
     5    18    17    1
     6    18    19    2
     7    15    14    1
     8    17    12    2
     9    14    13    2
    10    12    13    1
    11    12    10    1
    12    11    10    1
    13    24    22    2
    14    10     7    1
    15    23    22    2
    16    22     5    1
    17     6     5    1
    18     6     1    2
    19     5     4    2
    20     8     7    2
    21     7     1    1
    22     7     9    2
    23     1     2    1
    24    26    25    1
    25     4    25    1
    26     4     3    1
    27    27    25    1
    28    27    28    2
    29     2     3    2
    30    28    29    1
    31    29    34    2
    32    29    30    1
    33    34    33    1
    34    30    31    2
    35    37    35    1
    36    33    35    1
    37    33    32    2
    38    35    38    1
    39    35    36    1
    40    31    32    1
