@<TRIPOS>MOLECULE
7460_out_ligand_01.pdbqt
 34 37 0 0 0
SMALL
GASTEIGER

@<TRIPOS>ATOM
      1  C         23.8450  -22.9200  -12.1350 C.2     1  UNL1        0.0380
      2  C         24.9910  -23.7150  -12.0460 C.2     1  UNL1        0.0250
      3  C         25.9930  -23.6100  -13.0130 C.2     1  UNL1        0.0020
      4  C         25.8540  -22.7180  -14.0750 C.2     1  UNL1        0.0010
      5  C         24.7090  -21.9250  -14.1770 C.2     1  UNL1        0.0190
      6  C         23.6940  -22.0300  -13.2140 C.2     1  UNL1        0.0540
      7  N         22.7970  -23.1200  -11.1750 N.pl3   1  UNL1       -0.1800
      8  H         22.4390  -24.0870  -11.1550 H       1  UNL1        0.1460
      9  S         23.1620  -22.6750   -9.5740 S.O2    1  UNL1        0.2450
     10  O         24.1790  -23.5900   -9.1010 O.2     1  UNL1       -0.2060
     11  O         23.3560  -21.2410   -9.5110 O.2     1  UNL1       -0.2060
     12  C         21.6610  -23.0880   -8.7200 C.2     1  UNL1        0.0750
     13  C         21.0680  -22.1560   -7.8640 C.2     1  UNL1        0.0370
     14  C         19.8780  -22.4770   -7.1950 C.2     1  UNL1       -0.0240
     15  C         19.2540  -21.5590   -6.3350 C.2     1  UNL1        0.0150
     16  C         19.2910  -23.7490   -7.3880 C.2     1  UNL1       -0.0230
     17  C         18.0680  -21.8870   -5.6730 C.2     1  UNL1        0.0370
     18  C         17.4860  -23.1400   -5.8590 C.2     1  UNL1        0.0690
     19  C         18.0980  -24.0600   -6.7150 C.2     1  UNL1        0.0490
     20  C         19.9120  -24.6740   -8.2440 C.2     1  UNL1        0.0140
     21  C         21.0960  -24.3500   -8.9070 C.2     1  UNL1        0.0260
     22  O         16.3320  -23.5840   -5.2730 O.2     1  UNL1       -0.3560
     23  C         15.5580  -22.6230   -4.5660 C.3     1  UNL1        0.2100
     24  C         22.4820  -21.1760  -13.3040 C.2     1  UNL1        0.2530
     25  O         22.3830  -20.3480  -14.2050 O.2     1  UNL1       -0.2680
     26  N         21.5370  -21.3540  -12.3180 N.am    1  UNL1       -0.3530
     27  H         21.8410  -21.7910  -11.4580 H       1  UNL1        0.1630
     28  C         20.4080  -20.4570  -12.2270 C.3     1  UNL1        0.1620
     29  C         19.2400  -21.1430  -11.5880 C.2     1  UNL1       -0.0230
     30  C         19.2840  -22.4910  -11.2170 C.2     1  UNL1        0.0120
     31  C         18.1620  -23.0850  -10.6470 C.2     1  UNL1        0.0200
     32  C         17.0250  -22.3130  -10.4730 C.2     1  UNL1        0.1160
     33  N         16.9390  -21.0130  -10.8300 N.2     1  UNL1       -0.2730
     34  C         18.0450  -20.4600  -11.3760 C.2     1  UNL1        0.1240
@<TRIPOS>BOND
     1    25    24    2
     2     5     4    2
     3     5     6    1
     4     4     3    1
     5    24     6    1
     6    24    26   am
     7     6     1    2
     8     3     2    2
     9    26    28    1
    10    26    27    1
    11    28    29    1
    12     1     2    1
    13     1     7    1
    14    29    34    2
    15    29    30    1
    16    34    33    1
    17    30    31    2
    18     7     8    1
    19     7     9    1
    20    33    32    2
    21    31    32    1
    22     9    11    2
    23     9    10    2
    24     9    12    1
    25    21    12    2
    26    21    20    1
    27    12    13    1
    28    20    16    2
    29    13    14    2
    30    16    14    1
    31    16    19    1
    32    14    15    1
    33    19    18    2
    34    15    17    2
    35    18    17    1
    36    18    22    1
    37    22    23    1
