@<TRIPOS>MOLECULE
74619_out_ligand_01.pdbqt
 41 44 0 0 0
SMALL
GASTEIGER

@<TRIPOS>ATOM
      1  C         24.2040  -22.6810  -12.5610 C.2     1  UNL1        0.0770
      2  C         23.3780  -21.8370  -13.2940 C.2     1  UNL1        0.0270
      3  C         22.1960  -21.3670  -12.7180 C.2     1  UNL1        0.0290
      4  C         21.8110  -21.7170  -11.4060 C.2     1  UNL1        0.0620
      5  C         22.6760  -22.5640  -10.6790 C.2     1  UNL1        0.1270
      6  C         23.8830  -23.0220  -11.2430 C.2     1  UNL1        0.0620
      7  N         20.5360  -21.2930  -10.9380 N.pl3   1  UNL1       -0.1810
      8  H         20.6030  -20.4620  -10.3260 H       1  UNL1        0.1550
      9  N         19.5610  -21.2080  -11.8840 N.2     1  UNL1       -0.2080
     10  C         18.3530  -21.5770  -11.5700 C.2     1  UNL1        0.1440
     11  C         17.8310  -22.2460  -10.3570 C.2     1  UNL1       -0.0170
     12  C         16.4450  -22.1850  -10.1420 C.2     1  UNL1        0.0150
     13  C         15.8650  -22.8820   -9.0780 C.2     1  UNL1        0.0380
     14  C         16.6680  -23.6540   -8.2440 C.2     1  UNL1        0.0760
     15  C         18.0490  -23.6920   -8.4270 C.2     1  UNL1        0.0380
     16  C         18.6300  -23.0030   -9.4940 C.2     1  UNL1        0.0150
     17  O         16.1290  -24.3650   -7.2020 O.2     1  UNL1       -0.3110
     18  C         16.1690  -23.7600   -5.9630 C.2     1  UNL1        0.0760
     19  C         15.0710  -22.9770   -5.6150 C.2     1  UNL1        0.0370
     20  C         15.0490  -22.3110   -4.3860 C.2     1  UNL1        0.0030
     21  C         16.1310  -22.4140   -3.5120 C.2     1  UNL1        0.0000
     22  C         17.2400  -23.1760   -3.8670 C.2     1  UNL1        0.0030
     23  C         17.2640  -23.8430   -5.0970 C.2     1  UNL1        0.0370
     24  N         22.3560  -22.9940   -9.3080 N.pl3   1  UNL1       -0.1140
     25  O         22.1330  -24.1990   -9.1060 O.2     1  UNL1       -0.5320
     26  O         22.3310  -22.1260   -8.4210 O.2     1  UNL1       -0.5320
     27  S         25.6780  -23.3440  -13.3180 S.O2    1  UNL1        0.2460
     28  O         25.4500  -23.3900  -14.7470 O.2     1  UNL1       -0.2060
     29  O         26.0450  -24.5330  -12.5810 O.2     1  UNL1       -0.2060
     30  N         26.8480  -22.1610  -12.9580 N.pl3   1  UNL1       -0.1800
     31  H         26.8500  -21.9800  -11.9450 H       1  UNL1        0.1460
     32  C         26.8860  -20.9800  -13.7720 C.2     1  UNL1        0.0390
     33  C         27.0950  -21.1330  -15.1460 C.2     1  UNL1        0.0250
     34  C         27.0530  -20.0240  -15.9910 C.2     1  UNL1        0.0020
     35  C         26.8000  -18.7570  -15.4670 C.2     1  UNL1        0.0010
     36  C         26.5980  -18.5940  -14.0970 C.2     1  UNL1        0.0200
     37  C         26.6410  -19.6990  -13.2410 C.2     1  UNL1        0.0590
     38  C         26.4200  -19.5290  -11.7860 C.2     1  UNL1        0.1780
     39  O         25.9300  -20.3630  -11.0510 O.2     1  UNL1       -0.6460
     40  O         26.7640  -18.3110  -11.3320 O.3     1  UNL1       -0.7730
     41  H         26.7470  -18.3870  -10.3550 H       1  UNL1        0.1670
@<TRIPOS>BOND
     1    34    35    2
     2    34    33    1
     3    35    36    1
     4    33    32    2
     5    28    27    2
     6    36    37    2
     7    32    37    1
     8    32    30    1
     9    27    30    1
    10    27    29    2
    11    27     1    1
    12     2     3    1
    13     2     1    2
    14    37    38    1
    15    30    31    1
    16     3     4    2
    17     1     6    1
    18     9    10    2
    19     9     7    1
    20    38    40    1
    21    38    39    2
    22    10    11    1
    23     4     7    1
    24     4     5    1
    25    40    41    1
    26     6     5    2
    27     7     8    1
    28     5    24    1
    29    11    12    2
    30    11    16    1
    31    12    13    1
    32    16    15    2
    33    24    25    2
    34    24    26    2
    35    13    14    2
    36    15    14    1
    37    14    17    1
    38    17    18    1
    39    18    19    2
    40    18    23    1
    41    19    20    1
    42    23    22    2
    43    20    21    2
    44    22    21    1
