@<TRIPOS>MOLECULE
74631_out_ligand_01.pdbqt
 35 38 0 0 0
SMALL
GASTEIGER

@<TRIPOS>ATOM
      1  C         20.4590  -23.4710   -9.5940 C.2     1  UNL1        0.1270
      2  C         19.1710  -23.5180   -9.0430 C.2     1  UNL1        0.0630
      3  C         18.1700  -22.7360   -9.6180 C.2     1  UNL1        0.0820
      4  C         18.4560  -21.8970  -10.6980 C.2     1  UNL1        0.0270
      5  C         19.7540  -21.8530  -11.2210 C.2     1  UNL1        0.0290
      6  C         20.7930  -22.6230  -10.6660 C.2     1  UNL1        0.0620
      7  N         22.0750  -22.5530  -11.2660 N.pl3   1  UNL1       -0.1800
      8  H         22.4520  -23.4830  -11.4650 H       1  UNL1        0.1550
      9  N         22.1820  -21.6900  -12.3070 N.2     1  UNL1       -0.2000
     10  C         23.2650  -21.7060  -13.0360 C.2     1  UNL1        0.0610
     11  C         23.1910  -20.8370  -14.2900 C.3     1  UNL1        0.0720
     12  C         24.5090  -22.4940  -12.7740 C.2     1  UNL1        0.0090
     13  C         24.3920  -20.8820  -15.2120 C.3     1  UNL1        0.0850
     14  S         24.8660  -22.6010  -15.5370 S.3     1  UNL1       -0.1290
     15  C         25.2540  -23.0100  -13.8470 C.2     1  UNL1        0.0130
     16  C         26.3730  -23.8170  -13.6000 C.2     1  UNL1        0.0220
     17  C         26.7740  -24.0750  -12.2900 C.2     1  UNL1        0.0430
     18  C         26.0680  -23.5120  -11.2350 C.2     1  UNL1        0.1170
     19  F         26.4680  -23.7410   -9.9790 F       1  UNL1       -0.2060
     20  C         24.9490  -22.7190  -11.4630 C.2     1  UNL1        0.0570
     21  N         21.4250  -24.4170   -9.0660 N.pl3   1  UNL1       -0.1140
     22  O         22.5940  -24.0230   -8.9500 O.2     1  UNL1       -0.5320
     23  O         20.9900  -25.5140   -8.6780 O.2     1  UNL1       -0.5320
     24  S         16.5140  -22.8000   -8.9670 S.O2    1  UNL1        0.2630
     25  O         16.2750  -24.1590   -8.5310 O.2     1  UNL1       -0.2000
     26  O         15.6410  -22.1450   -9.9160 O.2     1  UNL1       -0.2000
     27  N         16.6280  -21.8680   -7.5620 N.pl3   1  UNL1       -0.2810
     28  H         16.4080  -20.8870   -7.7280 H       1  UNL1        0.1790
     29  C         16.2690  -22.4400   -6.3110 C.2     1  UNL1        0.0440
     30  C         14.9160  -22.5400   -5.9790 C.2     1  UNL1        0.0300
     31  C         14.5350  -23.1520   -4.7830 C.2     1  UNL1        0.0040
     32  C         15.5070  -23.6570   -3.9200 C.2     1  UNL1        0.0240
     33  C         16.8560  -23.5460   -4.2540 C.2     1  UNL1        0.0360
     34 CL         18.0510  -24.1710   -3.1860 Cl      1  UNL1       -0.0840
     35  C         17.2430  -22.9410   -5.4480 C.2     1  UNL1        0.0540
@<TRIPOS>BOND
     1    14    13    1
     2    14    15    1
     3    13    11    1
     4    11    10    1
     5    15    16    1
     6    15    12    2
     7    16    17    2
     8    10    12    1
     9    10     9    2
    10    12    20    1
    11     9     7    1
    12    17    18    1
    13     8     7    1
    14    20    18    2
    15     7     6    1
    16    18    19    1
    17     5     4    2
    18     5     6    1
    19     4     3    1
    20     6     1    2
    21    26    24    2
    22     3     2    2
    23     3    24    1
    24     1    21    1
    25     1     2    1
    26    21    22    2
    27    21    23    2
    28    24    25    2
    29    24    27    1
    30    28    27    1
    31    27    29    1
    32    29    30    2
    33    29    35    1
    34    30    31    1
    35    35    33    2
    36    31    32    2
    37    33    32    1
    38    33    34    1
