@<TRIPOS>MOLECULE
7464_out_ligand_01.pdbqt
 38 41 0 0 0
SMALL
GASTEIGER

@<TRIPOS>ATOM
      1  S         16.0330  -22.6710   -9.0030 S.O2    1  UNL1        0.2720
      2  O         14.7470  -22.3180   -9.5700 O.2     1  UNL1       -0.2030
      3  O         16.3580  -24.0570   -8.7220 O.2     1  UNL1       -0.2030
      4  C         17.2490  -22.1060  -10.1510 C.ar    1  UNL1        0.2330
      5  N         17.1380  -21.0660  -10.9550 N.ar    1  UNL1       -0.1270
      6  N         18.2580  -20.9330  -11.7540 N.ar    1  UNL1       -0.1220
      7  C         19.1480  -21.8740  -11.5220 C.ar    1  UNL1        0.1970
      8  S         18.6900  -23.0020  -10.3290 S.2     1  UNL1       -0.0150
      9  N         20.3300  -21.9390  -12.2180 N.am    1  UNL1       -0.3000
     10  C         21.5340  -21.3910  -11.8430 C.2     1  UNL1        0.2570
     11  O         21.7590  -20.7090  -10.8510 O.2     1  UNL1       -0.2670
     12  H         20.2350  -22.3770  -13.1250 H       1  UNL1        0.1710
     13  C         22.6540  -21.6420  -12.7950 C.2     1  UNL1        0.0320
     14  C         22.7030  -20.8910  -13.9760 C.2     1  UNL1        0.0170
     15  C         23.7260  -21.1060  -14.8980 C.2     1  UNL1        0.0020
     16  C         24.7130  -22.0580  -14.6360 C.2     1  UNL1        0.0070
     17  C         24.6970  -22.7920  -13.4430 C.2     1  UNL1       -0.0610
     18  C         25.7560  -23.8220  -13.1710 C.3     1  UNL1        0.0480
     19  C         23.6560  -22.5850  -12.5270 C.2     1  UNL1        0.0230
     20  N         16.1940  -21.7750   -7.5470 N.pl3   1  UNL1       -0.1790
     21  H         15.4690  -21.0390   -7.5870 H       1  UNL1        0.1460
     22  C         16.0510  -22.5590   -6.3440 C.2     1  UNL1        0.0380
     23  C         14.8900  -23.3180   -6.1860 C.2     1  UNL1        0.0250
     24  C         14.6700  -24.0220   -4.9980 C.2     1  UNL1        0.0020
     25  C         15.6040  -23.9660   -3.9640 C.2     1  UNL1        0.0010
     26  C         16.7650  -23.2050   -4.1110 C.2     1  UNL1        0.0190
     27  C         16.9880  -22.4940   -5.2970 C.2     1  UNL1        0.0540
     28  C         18.2200  -21.6860   -5.4650 C.2     1  UNL1        0.2530
     29  O         18.5530  -20.9030   -4.5800 O.2     1  UNL1       -0.2680
     30  N         18.9600  -21.9480   -6.5950 N.am    1  UNL1       -0.3530
     31  H         18.7720  -22.8110   -7.0880 H       1  UNL1        0.1630
     32  C         20.3020  -21.4230   -6.7120 C.3     1  UNL1        0.1610
     33  C         21.1280  -22.2910   -7.6240 C.2     1  UNL1       -0.0410
     34  C         20.6420  -23.5190   -8.0910 C.2     1  UNL1        0.0090
     35  C         21.4360  -24.3280   -8.9050 C.2     1  UNL1        0.0010
     36  C         22.7230  -23.9210   -9.2540 C.2     1  UNL1        0.0000
     37  C         23.2210  -22.7060   -8.7890 C.2     1  UNL1        0.0010
     38  C         22.4290  -21.8950   -7.9750 C.2     1  UNL1        0.0090
@<TRIPOS>BOND
     1    15    16    2
     2    15    14    1
     3    16    17    1
     4    14    13    2
     5    17    18    1
     6    17    19    2
     7    12     9    1
     8    13    19    1
     9    13    10    1
    10     9    10   am
    11     9     7    1
    12    10    11    2
    13     6     7   ar
    14     6     5   ar
    15     7     8   ar
    16     5     4   ar
    17     8     4   ar
    18     4     1    1
    19     2     1    2
    20    36    35    2
    21    36    37    1
    22     1     3    2
    23     1    20    1
    24    35    34    1
    25    37    38    2
    26    34    33    2
    27    38    33    1
    28    33    32    1
    29    21    20    1
    30    20    22    1
    31    31    30    1
    32    32    30    1
    33    30    28   am
    34    22    23    2
    35    22    27    1
    36    23    24    1
    37    28    27    1
    38    28    29    2
    39    27    26    2
    40    24    25    2
    41    26    25    1
