@<TRIPOS>MOLECULE
74655_out_ligand_01.pdbqt
 40 43 0 0 0
SMALL
GASTEIGER

@<TRIPOS>ATOM
      1  C         19.4490  -23.1540   -9.1120 C.2     1  UNL1        0.0770
      2  C         20.5910  -23.8260   -8.6660 C.2     1  UNL1        0.0270
      3  C         21.8350  -23.5380   -9.2410 C.2     1  UNL1        0.0290
      4  C         21.9720  -22.5620  -10.2460 C.2     1  UNL1        0.0620
      5  C         20.7930  -21.9230  -10.6800 C.2     1  UNL1        0.1270
      6  C         19.5370  -22.1920  -10.1160 C.2     1  UNL1        0.0620
      7  N         23.2580  -22.3620  -10.8140 N.pl3   1  UNL1       -0.1800
      8  H         23.3340  -21.4230  -11.2180 H       1  UNL1        0.1550
      9  N         23.6750  -23.3340  -11.6610 N.2     1  UNL1       -0.2000
     10  C         24.5700  -23.0500  -12.5660 C.2     1  UNL1        0.0620
     11  C         24.8170  -24.1820  -13.5630 C.3     1  UNL1        0.0770
     12  C         25.3260  -21.7610  -12.7110 C.2     1  UNL1        0.0140
     13  C         25.7920  -23.8940  -14.6780 C.3     1  UNL1        0.1520
     14  S         25.4670  -22.2990  -15.3790 S.O2    1  UNL1        0.1760
     15  O         24.0720  -22.1980  -15.7480 O.2     1  UNL1       -0.2230
     16  O         26.5300  -22.0040  -16.3180 O.2     1  UNL1       -0.2230
     17  C         25.7040  -21.2760  -13.9680 C.2     1  UNL1        0.0710
     18  C         26.3780  -20.0550  -14.1170 C.2     1  UNL1        0.0270
     19  C         26.6890  -19.3070  -12.9860 C.2     1  UNL1        0.0440
     20  C         26.3530  -19.7970  -11.7310 C.2     1  UNL1        0.1170
     21  F         26.6810  -19.0930  -10.6400 F       1  UNL1       -0.2060
     22  C         25.6890  -21.0130  -11.5830 C.2     1  UNL1        0.0570
     23  N         20.8130  -20.9970  -11.7960 N.pl3   1  UNL1       -0.1140
     24  O         21.5070  -21.3030  -12.7800 O.2     1  UNL1       -0.5320
     25  O         20.0650  -20.0100  -11.7240 O.2     1  UNL1       -0.5320
     26  S         17.8680  -23.5370   -8.3950 S.O2    1  UNL1        0.2460
     27  O         16.9260  -23.7470   -9.4740 O.2     1  UNL1       -0.2060
     28  O         18.0870  -24.5360   -7.3710 O.2     1  UNL1       -0.2060
     29  N         17.5160  -22.0540   -7.6370 N.pl3   1  UNL1       -0.1800
     30  H         18.3480  -21.4450   -7.7040 H       1  UNL1        0.1460
     31  C         17.0890  -22.1890   -6.2640 C.2     1  UNL1        0.0390
     32  C         15.8830  -22.8480   -6.0070 C.2     1  UNL1        0.0250
     33  C         15.4550  -23.0390   -4.6910 C.2     1  UNL1        0.0020
     34  C         16.2390  -22.5910   -3.6290 C.2     1  UNL1        0.0010
     35  C         17.4530  -21.9470   -3.8750 C.2     1  UNL1        0.0200
     36  C         17.8850  -21.7400   -5.1930 C.2     1  UNL1        0.0590
     37  C         19.1590  -21.0300   -5.4730 C.2     1  UNL1        0.1780
     38  O         20.0060  -21.4080   -6.2670 O.2     1  UNL1       -0.6460
     39  O         19.3080  -19.8940   -4.7740 O.3     1  UNL1       -0.7730
     40  H         20.1000  -20.0500   -4.2160 H       1  UNL1        0.1670
@<TRIPOS>BOND
     1    16    14    2
     2    15    14    2
     3    14    13    1
     4    14    17    1
     5    13    11    1
     6    18    17    1
     7    18    19    2
     8    17    12    2
     9    11    10    1
    10    19    20    1
    11    24    23    2
    12    12    10    1
    13    12    22    1
    14    10     9    2
    15    23    25    2
    16    23     5    1
    17    20    22    2
    18    20    21    1
    19     9     7    1
    20     8     7    1
    21     7     4    1
    22     5     4    2
    23     5     6    1
    24     4     3    1
    25     6     1    2
    26    27    26    2
    27     3     2    2
    28     1     2    1
    29     1    26    1
    30    26    29    1
    31    26    28    2
    32    30    29    1
    33    29    31    1
    34    38    37    2
    35    31    32    2
    36    31    36    1
    37    32    33    1
    38    37    36    1
    39    37    39    1
    40    36    35    2
    41    39    40    1
    42    33    34    2
    43    35    34    1
