@<TRIPOS>MOLECULE
74658_out_ligand_01.pdbqt
 40 42 0 0 0
SMALL
GASTEIGER

@<TRIPOS>ATOM
      1  C         21.6750  -22.0420  -10.0350 C.2     1  UNL1        0.0620
      2  C         21.6140  -22.6450   -8.7660 C.2     1  UNL1        0.0290
      3  C         20.3950  -23.0640   -8.2180 C.2     1  UNL1        0.0270
      4  C         19.2110  -22.8690   -8.9310 C.2     1  UNL1        0.0770
      5  C         19.2260  -22.2550  -10.1830 C.2     1  UNL1        0.0620
      6  C         20.4560  -21.8340  -10.7080 C.2     1  UNL1        0.1270
      7  N         22.9370  -21.6530  -10.5400 N.pl3   1  UNL1       -0.1800
      8  H         23.1370  -20.6610  -10.3930 H       1  UNL1        0.1550
      9  N         23.9670  -22.4860  -10.2290 N.2     1  UNL1       -0.2010
     10  C         24.9730  -22.5360  -11.0540 C.2     1  UNL1        0.0550
     11  C         26.1550  -23.3910  -10.6640 C.3     1  UNL1        0.0720
     12  C         25.0570  -21.8360  -12.3590 C.2     1  UNL1       -0.0090
     13  C         25.6940  -20.5960  -12.4350 C.2     1  UNL1        0.0130
     14  C         25.7560  -19.9330  -13.6560 C.2     1  UNL1        0.0030
     15  C         25.1780  -20.5080  -14.7920 C.2     1  UNL1        0.0290
     16  C         24.5320  -21.7520  -14.7210 C.2     1  UNL1        0.0350
     17  C         24.4750  -22.4150  -13.4940 C.2     1  UNL1        0.0430
     18  N         23.9730  -22.2540  -15.9150 N.am    1  UNL1       -0.3270
     19  C         24.4470  -23.2960  -16.6920 C.2     1  UNL1        0.2180
     20  C         23.5720  -23.5570  -17.8920 C.3     1  UNL1        0.1170
     21  O         25.4410  -23.9810  -16.4760 O.2     1  UNL1       -0.2740
     22  H         23.1190  -21.8080  -16.2280 H       1  UNL1        0.1690
     23  N         20.4140  -21.0800  -11.9480 N.pl3   1  UNL1       -0.1140
     24  O         19.4340  -20.3390  -12.1260 O.2     1  UNL1       -0.5320
     25  O         21.2980  -21.3200  -12.7840 O.2     1  UNL1       -0.5320
     26  S         17.6600  -23.3970   -8.2460 S.O2    1  UNL1        0.2460
     27  O         17.8810  -24.6130   -7.4910 O.2     1  UNL1       -0.2060
     28  O         16.6970  -23.3360   -9.3220 O.2     1  UNL1       -0.2060
     29  N         17.2880  -22.1310   -7.1710 N.pl3   1  UNL1       -0.1800
     30  H         16.7030  -21.4620   -7.6910 H       1  UNL1        0.1460
     31  C         16.7460  -22.5210   -5.8980 C.2     1  UNL1        0.0390
     32  C         15.5890  -23.3090   -5.8880 C.2     1  UNL1        0.0250
     33  C         14.9750  -23.6440   -4.6800 C.2     1  UNL1        0.0020
     34  C         15.5060  -23.1860   -3.4760 C.2     1  UNL1        0.0010
     35  C         16.6580  -22.3990   -3.4750 C.2     1  UNL1        0.0200
     36  C         17.2850  -22.0590   -4.6830 C.2     1  UNL1        0.0590
     37  C         18.5300  -21.2550   -4.6870 C.2     1  UNL1        0.1780
     38  O         19.3760  -21.2740   -5.5650 O.2     1  UNL1       -0.6460
     39  O         18.6640  -20.4750   -3.6000 O.3     1  UNL1       -0.7730
     40  H         18.1740  -19.6560   -3.8270 H       1  UNL1        0.1670
@<TRIPOS>BOND
     1    20    19    1
     2    19    21    2
     3    19    18   am
     4    22    18    1
     5    18    16    1
     6    15    16    2
     7    15    14    1
     8    16    17    1
     9    14    13    2
    10    17    12    2
    11    25    23    2
    12    13    12    1
    13    12    10    1
    14    24    23    2
    15    23     6    1
    16    10    11    1
    17    10     9    2
    18     6     5    1
    19     6     1    2
    20     7     8    1
    21     7     9    1
    22     7     1    1
    23     5     4    2
    24     1     2    1
    25    28    26    2
    26     4    26    1
    27     4     3    1
    28     2     3    2
    29    26    27    2
    30    26    29    1
    31    30    29    1
    32    29    31    1
    33    31    32    2
    34    31    36    1
    35    32    33    1
    36    38    37    2
    37    37    36    1
    38    37    39    1
    39    36    35    2
    40    33    34    2
    41    40    39    1
    42    34    35    1
