@<TRIPOS>MOLECULE
74663_out_ligand_01.pdbqt
 40 43 0 0 0
SMALL
GASTEIGER

@<TRIPOS>ATOM
      1  C         20.4410  -22.7850  -10.1940 C.2     1  UNL1        0.0830
      2  C         20.5750  -23.7380   -9.1610 C.2     1  UNL1        0.0350
      3  C         19.5010  -24.1020   -8.3430 C.2     1  UNL1        0.0270
      4  C         18.2610  -23.5050   -8.5420 C.2     1  UNL1        0.0770
      5  C         18.0860  -22.5370   -9.5330 C.2     1  UNL1        0.0630
      6  C         19.1710  -22.1880  -10.3590 C.2     1  UNL1        0.1320
      7  N         21.5360  -22.5350  -11.0510 N.pl3   1  UNL1       -0.2760
      8  H         21.2910  -22.1460  -11.9700 H       1  UNL1        0.1890
      9  N         22.7160  -22.1570  -10.4950 N.2     1  UNL1       -0.1860
     10  C         23.6850  -21.7760  -11.2760 C.2     1  UNL1        0.1520
     11  C         23.7270  -21.8270  -12.7280 C.2     1  UNL1        0.0110
     12  C         24.5070  -22.7350  -13.5210 C.2     1  UNL1        0.0040
     13  C         25.4410  -23.7450  -13.2100 C.2     1  UNL1        0.0140
     14  C         24.2110  -22.4940  -14.8650 C.2     1  UNL1        0.0490
     15  C         26.0460  -24.4660  -14.2440 C.2     1  UNL1        0.0020
     16  C         25.7270  -24.2020  -15.5740 C.2     1  UNL1        0.0090
     17  C         24.7900  -23.2130  -15.9290 C.2     1  UNL1       -0.0310
     18  N         23.2900  -21.4700  -14.8890 N.pl3   1  UNL1       -0.3640
     19  C         22.9820  -21.0740  -13.6170 C.2     1  UNL1        0.1020
     20  H         22.8860  -21.0840  -15.7310 H       1  UNL1        0.1650
     21  C         24.4630  -22.9670  -17.3810 C.3     1  UNL1        0.0360
     22  C         23.2480  -23.7660  -17.8290 C.3     1  UNL1        0.0100
     23  N         18.9350  -21.1740  -11.3930 N.pl3   1  UNL1       -0.1130
     24  O         17.8360  -21.1870  -11.9690 O.2     1  UNL1       -0.5320
     25  O         19.8420  -20.3650  -11.6470 O.2     1  UNL1       -0.5320
     26  S         16.8580  -24.0010   -7.5730 S.O2    1  UNL1        0.2460
     27  O         15.8130  -24.4320   -8.4760 O.2     1  UNL1       -0.2060
     28  O         17.3540  -24.8480   -6.5140 O.2     1  UNL1       -0.2060
     29  N         16.3920  -22.4970   -6.9290 N.pl3   1  UNL1       -0.1800
     30  H         15.3940  -22.5460   -6.6760 H       1  UNL1        0.1460
     31  C         17.1820  -22.0520   -5.8030 C.2     1  UNL1        0.0390
     32  C         18.4260  -21.4630   -6.0470 C.2     1  UNL1        0.0250
     33  C         19.2260  -21.0370   -4.9850 C.2     1  UNL1        0.0020
     34  C         18.7880  -21.1980   -3.6720 C.2     1  UNL1        0.0010
     35  C         17.5470  -21.7830   -3.4150 C.2     1  UNL1        0.0200
     36  C         16.7350  -22.2120   -4.4760 C.2     1  UNL1        0.0590
     37  C         15.4010  -22.8070   -4.2140 C.2     1  UNL1        0.1780
     38  O         14.3980  -22.1670   -3.9470 O.2     1  UNL1       -0.6460
     39  O         15.3820  -24.1470   -4.2850 O.3     1  UNL1       -0.7730
     40  H         15.0750  -24.3440   -5.1930 H       1  UNL1        0.1670
@<TRIPOS>BOND
     1    22    21    1
     2    21    17    1
     3    17    16    2
     4    17    14    1
     5    20    18    1
     6    16    15    1
     7    18    14    1
     8    18    19    1
     9    14    12    2
    10    15    13    2
    11    19    11    2
    12    12    13    1
    13    12    11    1
    14    11    10    1
    15     8     7    1
    16    24    23    2
    17    25    23    2
    18    23     6    1
    19    10     9    2
    20     7     9    1
    21     7     1    1
    22     6     1    2
    23     6     5    1
    24     1     2    1
    25     5     4    2
    26     2     3    2
    27     4     3    1
    28     4    26    1
    29    27    26    2
    30    26    29    1
    31    26    28    2
    32    29    30    1
    33    29    31    1
    34    32    31    2
    35    32    33    1
    36    31    36    1
    37    40    39    1
    38    33    34    2
    39    36    37    1
    40    36    35    2
    41    39    37    1
    42    37    38    2
    43    34    35    1
