@<TRIPOS>MOLECULE
74661_out_ligand_01.pdbqt
 38 41 0 0 0
SMALL
GASTEIGER

@<TRIPOS>ATOM
      1  C         18.2880  -22.5570   -9.6410 C.2     1  UNL1        0.0770
      2  C         17.8190  -21.9120  -10.7830 C.2     1  UNL1        0.0270
      3  C         18.7340  -21.3830  -11.6960 C.2     1  UNL1        0.0350
      4  C         20.1270  -21.4820  -11.4970 C.2     1  UNL1        0.0830
      5  C         20.5690  -22.0830  -10.2960 C.2     1  UNL1        0.1320
      6  C         19.6570  -22.6260   -9.3720 C.2     1  UNL1        0.0630
      7  S         17.1200  -23.2960   -8.5180 S.O2    1  UNL1        0.2460
      8  O         15.9410  -23.6470   -9.2800 O.2     1  UNL1       -0.2060
      9  O         17.8360  -24.2830   -7.7400 O.2     1  UNL1       -0.2060
     10  N         16.7490  -22.0190   -7.4680 N.pl3   1  UNL1       -0.1800
     11  H         16.0080  -21.4340   -7.8770 H       1  UNL1        0.1460
     12  C         16.5710  -22.3050   -6.0730 C.2     1  UNL1        0.0390
     13  C         15.3910  -22.9380   -5.6680 C.2     1  UNL1        0.0250
     14  C         15.1390  -23.1740   -4.3160 C.2     1  UNL1        0.0020
     15  C         16.0700  -22.7870   -3.3560 C.2     1  UNL1        0.0010
     16  C         17.2600  -22.1730   -3.7490 C.2     1  UNL1        0.0200
     17  C         17.5270  -21.9320   -5.1080 C.2     1  UNL1        0.0590
     18  C         18.8290  -21.2820   -5.4150 C.2     1  UNL1        0.1780
     19  O         19.5960  -21.6120   -6.3020 O.2     1  UNL1       -0.6460
     20  O         19.1190  -20.2320   -4.6210 O.3     1  UNL1       -0.7730
     21  H         18.4830  -19.5440   -4.9240 H       1  UNL1        0.1670
     22  N         22.0010  -22.1930   -9.9870 N.pl3   1  UNL1       -0.1130
     23  O         22.5010  -23.3270   -9.9270 O.2     1  UNL1       -0.5320
     24  O         22.6290  -21.1440   -9.7910 O.2     1  UNL1       -0.5320
     25  N         21.0090  -20.9000  -12.4460 N.pl3   1  UNL1       -0.2760
     26  H         21.3670  -19.9830  -12.1480 H       1  UNL1        0.1890
     27  N         21.8840  -21.7450  -13.0550 N.2     1  UNL1       -0.1860
     28  C         23.0310  -21.2250  -13.3520 C.2     1  UNL1        0.1500
     29  C         24.1180  -21.9920  -14.0040 C.2     1  UNL1       -0.0060
     30  C         24.1250  -21.9210  -15.4060 C.2     1  UNL1        0.0140
     31  C         25.0790  -22.6200  -16.1360 C.2     1  UNL1        0.0020
     32  C         26.0320  -23.3860  -15.4720 C.2     1  UNL1        0.0120
     33  C         26.0590  -23.4570  -14.0700 C.2     1  UNL1       -0.0250
     34  C         27.0480  -24.2260  -13.4330 C.2     1  UNL1        0.0120
     35  C         25.0990  -22.7490  -13.3010 C.2     1  UNL1       -0.0140
     36  C         27.1210  -24.3000  -12.0440 C.2     1  UNL1        0.0010
     37  C         26.2070  -23.5990  -11.2720 C.2     1  UNL1        0.0010
     38  C         25.2140  -22.8350  -11.8900 C.2     1  UNL1        0.0130
@<TRIPOS>BOND
     1    31    32    2
     2    31    30    1
     3    32    33    1
     4    30    29    2
     5    33    34    2
     6    33    35    1
     7    29    28    1
     8    29    35    1
     9    34    36    1
    10    28    27    2
    11    35    38    2
    12    27    25    1
    13    25    26    1
    14    25     4    1
    15    36    37    2
    16    38    37    1
    17     3     4    2
    18     3     2    1
    19     4     5    1
    20     2     1    2
    21     5    22    1
    22     5     6    2
    23    22    23    2
    24    22    24    2
    25     1     6    1
    26     1     7    1
    27     8     7    2
    28     7     9    2
    29     7    10    1
    30    11    10    1
    31    10    12    1
    32    19    18    2
    33    12    13    2
    34    12    17    1
    35    13    14    1
    36    18    17    1
    37    18    20    1
    38    17    16    2
    39    21    20    1
    40    14    15    2
    41    16    15    1
