@<TRIPOS>MOLECULE
74678_out_ligand_01.pdbqt
 36 39 0 0 0
SMALL
GASTEIGER

@<TRIPOS>ATOM
      1  C         20.4860  -22.4810   -9.4000 C.2     1  UNL1        0.0190
      2  C         21.4650  -22.3580   -8.4040 C.2     1  UNL1        0.0170
      3  C         22.8190  -22.2460   -8.7380 C.2     1  UNL1        0.0180
      4  C         23.2180  -22.2490  -10.0800 C.2     1  UNL1        0.0320
      5  C         22.2510  -22.3900  -11.0810 C.2     1  UNL1        0.0180
      6  C         20.8970  -22.5000  -10.7430 C.2     1  UNL1        0.0170
      7  C         24.6710  -22.1190  -10.3850 C.2     1  UNL1        0.2510
      8  O         25.1370  -21.0340  -10.7150 O.2     1  UNL1       -0.2680
      9  N         25.4190  -23.2770  -10.3260 N.am    1  UNL1       -0.3570
     10  H         24.9390  -24.1660  -10.3110 H       1  UNL1        0.1620
     11  C         26.8050  -23.2940  -10.7600 C.3     1  UNL1        0.1270
     12  C         27.0430  -24.2080  -11.9690 C.3     1  UNL1        0.0580
     13  C         26.5050  -23.6230  -13.2560 C.2     1  UNL1       -0.0570
     14  C         25.6640  -24.3850  -14.0800 C.2     1  UNL1        0.0090
     15  C         25.1960  -23.8670  -15.2880 C.2     1  UNL1        0.0250
     16  C         25.5650  -22.5740  -15.6680 C.2     1  UNL1        0.0740
     17  C         26.4070  -21.8050  -14.8640 C.2     1  UNL1        0.0250
     18  C         26.8740  -22.3310  -13.6580 C.2     1  UNL1        0.0090
     19  S         24.9780  -21.9290  -17.2100 S.O2    1  UNL1        0.2390
     20  O         23.8760  -22.7490  -17.6540 O.2     1  UNL1       -0.2060
     21  O         26.1180  -21.6370  -18.0510 O.2     1  UNL1       -0.2060
     22  N         24.3660  -20.4320  -16.7420 N.3     1  UNL1       -0.2250
     23  H         25.0480  -19.9720  -16.1360 H       1  UNL1        0.1360
     24  H         23.4480  -20.4910  -16.3030 H       1  UNL1        0.1360
     25  C         19.0820  -22.5910   -9.0220 C.ar    1  UNL1        0.2030
     26  N         18.0010  -22.6010   -9.7730 N.ar    1  UNL1       -0.1210
     27  N         16.9290  -22.7280   -8.9140 N.ar    1  UNL1       -0.1210
     28  C         17.4290  -22.8090   -7.6950 C.ar    1  UNL1        0.2030
     29  O         18.7960  -22.7120   -7.6880 O.2     1  UNL1       -0.2680
     30  C         16.7370  -22.9120   -6.4100 C.2     1  UNL1        0.0250
     31  C         15.5570  -23.6820   -6.3760 C.2     1  UNL1        0.0160
     32  C         14.8160  -23.8290   -5.2040 C.2     1  UNL1        0.0010
     33  C         15.2420  -23.2100   -4.0360 C.2     1  UNL1        0.0010
     34  C         16.4140  -22.4540   -4.0410 C.2     1  UNL1        0.0070
     35  C         17.1800  -22.3040   -5.2130 C.2     1  UNL1       -0.0470
     36  C         18.4450  -21.4910   -5.1240 C.3     1  UNL1        0.0490
@<TRIPOS>BOND
     1    21    19    2
     2    20    19    2
     3    19    22    1
     4    19    16    1
     5    22    24    1
     6    22    23    1
     7    16    15    2
     8    16    17    1
     9    15    14    1
    10    17    18    2
    11    14    13    2
    12    18    13    1
    13    13    12    1
    14    12    11    1
    15     5     6    1
    16     5     4    2
    17    11     9    1
    18     6     1    2
    19     8     7    2
    20     7     9   am
    21     7     4    1
    22     9    10    1
    23     4     3    1
    24    26    25   ar
    25    26    27   ar
    26     1    25    1
    27     1     2    1
    28    25    29   ar
    29    27    28   ar
    30     3     2    2
    31    28    29   ar
    32    28    30    1
    33    30    31    2
    34    30    35    1
    35    31    32    1
    36    35    36    1
    37    35    34    2
    38    32    33    2
    39    34    33    1
