@<TRIPOS>MOLECULE
74724_out_ligand_01.pdbqt
 37 40 0 0 0
SMALL
GASTEIGER

@<TRIPOS>ATOM
      1  C         21.7940  -20.5910   -6.7760 C.3     1  UNL1        0.0490
      2  C         20.4800  -21.2720   -6.5060 C.2     1  UNL1       -0.0460
      3  C         19.6390  -20.7740   -5.4970 C.2     1  UNL1        0.0090
      4  C         18.4230  -21.3970   -5.2140 C.2     1  UNL1        0.0260
      5  C         18.0440  -22.5350   -5.9330 C.2     1  UNL1        0.0800
      6  C         18.8590  -23.0490   -6.9420 C.2     1  UNL1        0.0420
      7  C         20.0760  -22.4150   -7.2240 C.2     1  UNL1        0.0390
      8  C         20.9430  -22.9880   -8.2840 C.2     1  UNL1        0.2560
      9  O         20.9550  -24.2030   -8.4260 O.2     1  UNL1       -0.2670
     10  N         21.6640  -22.0390   -8.9820 N.am    1  UNL1       -0.3230
     11  H         21.5550  -21.0750   -8.6910 H       1  UNL1        0.1690
     12  C         22.6010  -22.2680  -10.0090 C.2     1  UNL1        0.0350
     13  C         23.8680  -22.8060   -9.8030 C.2     1  UNL1        0.0320
     14  C         24.7520  -22.9850  -10.8790 C.2     1  UNL1        0.0320
     15  C         24.3970  -22.6310  -12.1880 C.2     1  UNL1        0.0370
     16  C         23.1170  -22.1020  -12.3830 C.2     1  UNL1        0.0320
     17  C         22.2300  -21.9250  -11.3110 C.2     1  UNL1        0.0320
     18  N         25.3110  -22.8090  -13.2630 N.am    1  UNL1       -0.3180
     19  C         26.0220  -21.7090  -13.8720 C.3     1  UNL1        0.1330
     20  C         27.1190  -22.3730  -14.6780 C.3     1  UNL1        0.0290
     21  C         26.4920  -23.6860  -15.1040 C.3     1  UNL1        0.1050
     22  C         25.5510  -24.0040  -13.9640 C.2     1  UNL1        0.2240
     23  O         25.0840  -25.1180  -13.7860 O.2     1  UNL1       -0.2730
     24  S         16.5070  -23.3270   -5.5430 S.O2    1  UNL1        0.2580
     25  O         16.8150  -24.4600   -4.7010 O.2     1  UNL1       -0.2010
     26  O         15.5500  -22.3170   -5.1530 O.2     1  UNL1       -0.2010
     27  N         16.0430  -23.9420   -7.0330 N.3     1  UNL1       -0.3150
     28  H         15.5890  -24.8540   -6.9530 H       1  UNL1        0.1720
     29  C         15.5170  -23.0130   -8.0440 C.3     1  UNL1        0.1370
     30  C         15.8370  -23.5210   -9.4550 C.3     1  UNL1        0.0580
     31  C         16.8250  -22.6500  -10.1980 C.2     1  UNL1       -0.0560
     32  C         18.0790  -23.1570  -10.5740 C.2     1  UNL1        0.0100
     33  C         18.9840  -22.3560  -11.2710 C.2     1  UNL1        0.0430
     34  C         18.6350  -21.0500  -11.5940 C.2     1  UNL1        0.1160
     35  F         19.5070  -20.2810  -12.2590 F       1  UNL1       -0.2060
     36  C         17.3980  -20.5300  -11.2350 C.2     1  UNL1        0.0430
     37  C         16.4910  -21.3300  -10.5360 C.2     1  UNL1        0.0100
@<TRIPOS>BOND
     1    21    20    1
     2    21    22    1
     3    20    19    1
     4    22    23    2
     5    22    18   am
     6    19    18    1
     7    18    15    1
     8    16    15    2
     9    16    17    1
    10    35    34    1
    11    15    14    1
    12    34    33    2
    13    34    36    1
    14    17    12    2
    15    33    32    1
    16    36    37    2
    17    14    13    2
    18    32    31    2
    19    37    31    1
    20    31    30    1
    21    12    13    1
    22    12    10    1
    23    30    29    1
    24    10    11    1
    25    10     8   am
    26     9     8    2
    27     8     7    1
    28    29    27    1
    29     7     6    1
    30     7     2    2
    31    27    28    1
    32    27    24    1
    33     6     5    2
    34     1     2    1
    35     2     3    1
    36     5    24    1
    37     5     4    1
    38    24    26    2
    39    24    25    2
    40     3     4    2
