@<TRIPOS>MOLECULE
74735_out_ligand_01.pdbqt
 34 37 0 0 0
SMALL
GASTEIGER

@<TRIPOS>ATOM
      1  C         18.6180  -22.7430   -9.6570 C.2     1  UNL1        0.0790
      2  C         19.2800  -21.9840  -10.6250 C.2     1  UNL1        0.0260
      3  C         20.6570  -22.1380  -10.7920 C.2     1  UNL1        0.0180
      4  C         21.3690  -23.0380   -9.9870 C.2     1  UNL1        0.0320
      5  C         20.6920  -23.8120   -9.0320 C.2     1  UNL1        0.0180
      6  C         19.3130  -23.6670   -8.8680 C.2     1  UNL1        0.0260
      7  C         22.8360  -23.1620  -10.1890 C.2     1  UNL1        0.2520
      8  O         23.5230  -23.7540   -9.3650 O.2     1  UNL1       -0.2680
      9  N         23.3300  -22.6100  -11.3500 N.am    1  UNL1       -0.3490
     10  H         22.6860  -22.2880  -12.0600 H       1  UNL1        0.1630
     11  C         24.7310  -22.7250  -11.7190 C.3     1  UNL1        0.1140
     12  C         25.5190  -21.4820  -11.2930 C.3     1  UNL1        0.0370
     13  C         24.8240  -23.0160  -13.2070 C.2     1  UNL1       -0.0330
     14  C         25.2960  -24.2430  -13.7040 C.2     1  UNL1        0.0120
     15  C         25.4080  -24.4620  -15.0810 C.2     1  UNL1        0.0400
     16  C         25.0600  -23.4550  -15.9750 C.2     1  UNL1        0.1020
     17  C         24.6300  -22.2150  -15.4960 C.2     1  UNL1        0.1020
     18  O         25.1830  -23.7440  -17.3110 O.2     1  UNL1       -0.3460
     19  C         24.5020  -22.0000  -14.1240 C.2     1  UNL1        0.0490
     20  O         24.3170  -21.1600  -16.3160 O.2     1  UNL1       -0.3460
     21  C         24.8230  -21.3660  -17.6400 C.3     1  UNL1        0.2020
     22  C         24.5070  -22.7740  -18.1190 C.3     1  UNL1        0.2020
     23  S         16.8660  -22.5620   -9.4370 S.O2    1  UNL1        0.2630
     24  O         16.3210  -21.8180  -10.5510 O.2     1  UNL1       -0.2000
     25  O         16.3450  -23.8680   -9.0860 O.2     1  UNL1       -0.2000
     26  N         16.7630  -21.6250   -8.0320 N.pl3   1  UNL1       -0.2810
     27  H         17.5110  -20.9330   -8.0110 H       1  UNL1        0.1790
     28  C         16.4690  -22.2910   -6.8100 C.2     1  UNL1        0.0420
     29  C         15.1400  -22.4720   -6.4320 C.2     1  UNL1        0.0300
     30  C         14.8390  -23.1440   -5.2460 C.2     1  UNL1        0.0090
     31  C         15.8650  -23.6560   -4.4420 C.2     1  UNL1       -0.0620
     32  C         15.5450  -24.3520   -3.1530 C.3     1  UNL1        0.0480
     33  C         17.1970  -23.4630   -4.8300 C.2     1  UNL1        0.0090
     34  C         17.4990  -22.7890   -6.0160 C.2     1  UNL1        0.0300
@<TRIPOS>BOND
     1    22    21    1
     2    22    18    1
     3    21    20    1
     4    18    16    1
     5    20    17    1
     6    16    17    2
     7    16    15    1
     8    17    19    1
     9    15    14    2
    10    19    13    2
    11    14    13    1
    12    13    11    1
    13    10     9    1
    14    11     9    1
    15    11    12    1
    16     9     7   am
    17     3     2    1
    18     3     4    2
    19     2     1    2
    20    24    23    2
    21     7     4    1
    22     7     8    2
    23     4     5    1
    24     1    23    1
    25     1     6    1
    26    23    25    2
    27    23    26    1
    28     5     6    2
    29    26    27    1
    30    26    28    1
    31    28    29    2
    32    28    34    1
    33    29    30    1
    34    34    33    2
    35    30    31    2
    36    33    31    1
    37    31    32    1
