@<TRIPOS>MOLECULE
74734_out_ligand_01.pdbqt
 25 27 0 0 0
SMALL
GASTEIGER

@<TRIPOS>ATOM
      1  S         16.9820  -24.2060   -7.2870 S.3     1  UNL1        0.2990
      2  O         17.6360  -24.9460   -6.2240 O.3     1  UNL1       -0.1930
      3  O         15.8800  -24.7850   -8.0350 O.3     1  UNL1       -0.1930
      4  O         16.5630  -22.7240   -6.7090 O.2     1  UNL1       -0.2280
      5  C         17.1660  -22.2700   -5.5620 C.2     1  UNL1        0.1050
      6  C         18.3290  -21.5020   -5.6960 C.2     1  UNL1        0.0390
      7  C         18.9880  -21.0290   -4.5620 C.2     1  UNL1        0.0030
      8  C         18.4960  -21.3300   -3.2930 C.2     1  UNL1        0.0010
      9  C         17.3550  -22.1240   -3.1570 C.2     1  UNL1        0.0200
     10  C         16.6920  -22.6200   -4.2910 C.2     1  UNL1        0.0660
     11  C         15.5020  -23.4990   -4.1320 C.2     1  UNL1        0.2520
     12  N         14.3730  -23.1520   -4.8260 N.am    1  UNL1       -0.3660
     13  H         13.5440  -23.6900   -4.6030 H       1  UNL1        0.1590
     14  H         14.2370  -22.2270   -5.2070 H       1  UNL1        0.1590
     15  O         15.4950  -24.4730   -3.3930 O.2     1  UNL1       -0.2680
     16  C         18.2330  -23.6970   -8.3990 C.2     1  UNL1        0.0650
     17  C         17.9830  -22.7010   -9.2680 C.2     1  UNL1        0.0330
     18  C         19.0270  -22.2700  -10.2020 C.2     1  UNL1       -0.0290
     19  C         18.7100  -21.4340  -11.2780 C.2     1  UNL1        0.0120
     20  C         20.3590  -22.6800  -10.0070 C.2     1  UNL1       -0.0480
     21  C         19.7080  -21.0120  -12.1590 C.2     1  UNL1        0.0010
     22  C         21.0280  -21.4140  -11.9630 C.2     1  UNL1        0.0010
     23  C         21.3550  -22.2400  -10.8880 C.2     1  UNL1        0.0080
     24  C         20.7160  -23.5230   -8.8090 C.3     1  UNL1        0.0450
     25  C         19.5550  -24.4040   -8.3340 C.3     1  UNL1        0.0580
@<TRIPOS>BOND
     1    21    22    2
     2    21    19    1
     3    22    23    1
     4    19    18    2
     5    23    20    2
     6    18    20    1
     7    18    17    1
     8    20    24    1
     9    17    16    2
    10    24    25    1
    11    16    25    1
    12    16     1    1
    13     3     1    1
    14     1     4    1
    15     1     2    1
    16     4     5    1
    17     6     5    2
    18     6     7    1
    19     5    10    1
    20    14    12    1
    21    12    13    1
    22    12    11   am
    23     7     8    2
    24    10    11    1
    25    10     9    2
    26    11    15    2
    27     8     9    1
