@<TRIPOS>MOLECULE
74736_out_ligand_01.pdbqt
 35 38 0 0 0
SMALL
GASTEIGER

@<TRIPOS>ATOM
      1  C         18.1750  -22.4160   -9.9290 C.2     1  UNL1        0.0800
      2  C         16.8680  -22.6690   -9.5500 C.2     1  UNL1        0.1320
      3  N         16.9250  -23.4290   -8.4230 N.pl3   1  UNL1       -0.2750
      4  N         18.1830  -23.7250   -8.0480 N.2     1  UNL1       -0.1710
      5  C         18.9600  -23.0550   -8.9160 C.2     1  UNL1        0.1040
      6  C         18.5360  -21.6490  -11.1120 C.2     1  UNL1        0.2550
      7  N         19.8760  -21.3730  -11.2560 N.am    1  UNL1       -0.3530
      8  H         20.5370  -21.8220  -10.6380 H       1  UNL1        0.1630
      9  O         17.7010  -21.3200  -11.9500 O.2     1  UNL1       -0.2680
     10  C         20.4020  -20.7580  -12.4500 C.3     1  UNL1        0.1610
     11  C         21.7830  -21.2830  -12.7570 C.2     1  UNL1       -0.0400
     12  C         22.4130  -22.1880  -11.8870 C.2     1  UNL1        0.0100
     13  C         23.6800  -22.6910  -12.1900 C.2     1  UNL1        0.0250
     14  C         24.3120  -22.3000  -13.3740 C.2     1  UNL1        0.0740
     15  C         23.7010  -21.3970  -14.2480 C.2     1  UNL1        0.0250
     16  C         22.4350  -20.8990  -13.9390 C.2     1  UNL1        0.0100
     17  S         25.9190  -22.9460  -13.7580 S.O2    1  UNL1        0.2390
     18  O         26.9140  -22.1050  -13.1360 O.2     1  UNL1       -0.2060
     19  O         25.9540  -23.2860  -15.1630 O.2     1  UNL1       -0.2060
     20  N         25.8930  -24.4170  -12.9360 N.3     1  UNL1       -0.2250
     21  H         25.1780  -24.3690  -12.2060 H       1  UNL1        0.1360
     22  H         26.8030  -24.6780  -12.5570 H       1  UNL1        0.1360
     23  C         20.4100  -23.0600   -8.7370 C.2     1  UNL1       -0.0050
     24  C         21.1590  -24.1880   -9.1000 C.2     1  UNL1        0.0140
     25  C         22.5460  -24.1920   -8.9510 C.2     1  UNL1        0.0010
     26  C         23.1950  -23.0720   -8.4310 C.2     1  UNL1        0.0000
     27  C         22.4570  -21.9520   -8.0500 C.2     1  UNL1        0.0010
     28  C         21.0680  -21.9460   -8.1970 C.2     1  UNL1        0.0140
     29  C         15.7940  -23.9650   -7.6750 C.3     1  UNL1        0.1890
     30  C         15.7810  -23.4750   -6.2480 C.2     1  UNL1       -0.0380
     31  C         14.8020  -22.5660   -5.8140 C.2     1  UNL1        0.0090
     32  C         14.7870  -22.1220   -4.4900 C.2     1  UNL1        0.0010
     33  C         15.7450  -22.5810   -3.5870 C.2     1  UNL1        0.0000
     34  C         16.7210  -23.4840   -4.0060 C.2     1  UNL1        0.0010
     35  C         16.7370  -23.9320   -5.3280 C.2     1  UNL1        0.0090
@<TRIPOS>BOND
     1    19    17    2
     2    15    16    1
     3    15    14    2
     4    16    11    2
     5    17    14    1
     6    17    18    2
     7    17    20    1
     8    14    13    1
     9    20    22    1
    10    20    21    1
    11    11    10    1
    12    11    12    1
    13    10     7    1
    14    13    12    2
    15     9     6    2
    16     7     6   am
    17     7     8    1
    18     6     1    1
    19     1     2    2
    20     1     5    1
    21     2     3    1
    22    24    25    1
    23    24    23    2
    24    25    26    2
    25     5    23    1
    26     5     4    2
    27    23    28    1
    28    26    27    1
    29     3     4    1
    30     3    29    1
    31    28    27    2
    32    29    30    1
    33    30    31    2
    34    30    35    1
    35    31    32    1
    36    35    34    2
    37    32    33    2
    38    34    33    1
