@<TRIPOS>MOLECULE
74748_out_ligand_01.pdbqt
 34 37 0 0 0
SMALL
GASTEIGER

@<TRIPOS>ATOM
      1  C         18.5670  -21.7760  -10.6390 C.2     1  UNL1        0.0330
      2  C         17.4070  -21.2350  -11.2140 C.2     1  UNL1        0.0170
      3  C         16.1470  -21.5770  -10.7140 C.2     1  UNL1        0.0030
      4  C         16.0390  -22.4540   -9.6360 C.2     1  UNL1        0.0250
      5  C         17.1980  -22.9840   -9.0580 C.2     1  UNL1        0.0760
      6  C         18.4630  -22.6420   -9.5420 C.2     1  UNL1        0.0410
      7  C         19.9280  -21.4340  -11.1430 C.2     1  UNL1        0.2560
      8  N         20.9640  -22.1460  -10.5630 N.am    1  UNL1       -0.3230
      9  H         20.7290  -22.7570   -9.7940 H       1  UNL1        0.1690
     10  O         20.0250  -20.5450  -11.9790 O.2     1  UNL1       -0.2670
     11  C         22.3410  -22.0470  -10.8630 C.2     1  UNL1        0.0370
     12  C         23.3030  -21.6090   -9.9550 C.2     1  UNL1        0.0320
     13  C         24.6510  -21.5410  -10.3230 C.2     1  UNL1        0.0420
     14  C         25.0570  -21.9200  -11.6040 C.2     1  UNL1        0.1020
     15  C         24.0920  -22.3390  -12.5380 C.2     1  UNL1        0.1030
     16  C         22.7440  -22.4030  -12.1590 C.2     1  UNL1        0.0690
     17  O         26.3530  -21.8640  -12.0470 O.2     1  UNL1       -0.3490
     18  C         27.0280  -20.6080  -11.9950 C.3     1  UNL1        0.1710
     19  C         26.3730  -19.6240  -12.9490 C.3     1  UNL1        0.0340
     20  O         24.5660  -22.6790  -13.7810 O.2     1  UNL1       -0.3530
     21  C         24.1330  -21.9060  -14.8910 C.3     1  UNL1        0.2100
     22  S         17.0340  -24.0770   -7.6570 S.O2    1  UNL1        0.2480
     23  O         16.0700  -25.1000   -8.0060 O.2     1  UNL1       -0.2050
     24  O         18.3900  -24.4230   -7.2860 O.2     1  UNL1       -0.2050
     25  N         16.3010  -23.0340   -6.4620 N.pl3   1  UNL1       -0.1720
     26  C         15.1710  -23.7260   -5.7560 C.3     1  UNL1        0.1140
     27  C         14.7040  -22.9450   -4.5420 C.3     1  UNL1        0.0200
     28  C         15.8500  -22.8520   -3.5540 C.3     1  UNL1        0.0420
     29  C         17.0450  -22.2220   -4.2140 C.2     1  UNL1       -0.0360
     30  C         17.9640  -21.5310   -3.4050 C.2     1  UNL1        0.0090
     31  C         17.2550  -22.3210   -5.6050 C.2     1  UNL1        0.0310
     32  C         19.0520  -20.8760   -3.9710 C.2     1  UNL1        0.0010
     33  C         19.2160  -20.8880   -5.3490 C.2     1  UNL1        0.0020
     34  C         18.3150  -21.5900   -6.1560 C.2     1  UNL1        0.0250
@<TRIPOS>BOND
     1    21    20    1
     2    20    15    1
     3    19    18    1
     4    15    16    1
     5    15    14    2
     6    16    11    2
     7    17    18    1
     8    17    14    1
     9    10     7    2
    10    14    13    1
    11     2     3    1
    12     2     1    2
    13     7     1    1
    14     7     8   am
    15    11     8    1
    16    11    12    1
    17     3     4    2
    18     1     6    1
    19     8     9    1
    20    13    12    2
    21     4     5    1
    22     6     5    2
    23     5    22    1
    24    23    22    2
    25    22    24    2
    26    22    25    1
    27    25    26    1
    28    25    31    1
    29    34    31    1
    30    34    33    2
    31    26    27    1
    32    31    29    2
    33    33    32    1
    34    27    28    1
    35    29    28    1
    36    29    30    1
    37    32    30    2
