@<TRIPOS>MOLECULE
74740_out_ligand_01.pdbqt
 28 30 0 0 0
SMALL
GASTEIGER

@<TRIPOS>ATOM
      1  N         22.6490  -22.9840  -10.1760 N.am    1  UNL1       -0.3230
      2  C         22.2990  -22.3310   -9.0080 C.2     1  UNL1        0.2560
      3  O         22.9220  -21.4340   -8.4530 O.2     1  UNL1       -0.2670
      4  H         22.1030  -23.7990  -10.4230 H       1  UNL1        0.1690
      5  C         23.7400  -22.6960  -11.0230 C.2     1  UNL1        0.0360
      6  C         25.0740  -22.9400  -10.6890 C.2     1  UNL1        0.0290
      7  C         26.1070  -22.6110  -11.5740 C.2     1  UNL1        0.0040
      8  C         25.8160  -22.0350  -12.8080 C.2     1  UNL1        0.0250
      9  C         24.4840  -21.7990  -13.1500 C.2     1  UNL1        0.0760
     10  C         23.4490  -22.1150  -12.2620 C.2     1  UNL1        0.0540
     11  S         24.1040  -21.0400  -14.6990 S.O2    1  UNL1        0.2390
     12  O         23.7830  -22.0640  -15.6640 O.2     1  UNL1       -0.2060
     13  O         25.0700  -19.9990  -14.9660 O.2     1  UNL1       -0.2060
     14  N         22.6640  -20.2520  -14.3560 N.3     1  UNL1       -0.2250
     15  H         22.8460  -19.4270  -13.7830 H       1  UNL1        0.1360
     16  H         22.0000  -20.9050  -13.9390 H       1  UNL1        0.1360
     17  C         21.0530  -22.8330   -8.3620 C.2     1  UNL1        0.0320
     18  C         20.4500  -22.0510   -7.3730 C.2     1  UNL1        0.0170
     19  C         19.2810  -22.4880   -6.7410 C.2     1  UNL1        0.0080
     20  C         18.6860  -23.7070   -7.0900 C.2     1  UNL1       -0.0540
     21  C         19.2930  -24.4730   -8.1020 C.2     1  UNL1        0.0080
     22  C         20.4630  -24.0420   -8.7370 C.2     1  UNL1        0.0170
     23  C         17.4100  -24.2270   -6.4370 C.3     1  UNL1        0.0180
     24  C         17.2680  -23.8350   -4.9550 C.3     1  UNL1        0.0090
     25  C         16.5900  -22.4900   -4.7050 C.3     1  UNL1        0.0010
     26  C         15.2870  -22.3530   -5.4810 C.3     1  UNL1        0.0000
     27  C         15.4880  -22.5860   -6.9730 C.3     1  UNL1        0.0010
     28  C         16.1380  -23.9380   -7.2560 C.3     1  UNL1        0.0090
@<TRIPOS>BOND
     1    12    11    2
     2    13    11    2
     3    11    14    1
     4    11     9    1
     5    14    16    1
     6    14    15    1
     7     9     8    2
     8     9    10    1
     9     8     7    1
    10    10     5    2
    11     7     6    2
    12     5     6    1
    13     5     1    1
    14     4     1    1
    15     1     2   am
    16     2     3    2
    17     2    17    1
    18    22    17    2
    19    22    21    1
    20    17    18    1
    21    21    20    2
    22    18    19    2
    23    28    27    1
    24    28    23    1
    25    20    19    1
    26    20    23    1
    27    27    26    1
    28    23    24    1
    29    26    25    1
    30    24    25    1
