@<TRIPOS>MOLECULE
74757_out_ligand_01.pdbqt
 34 36 0 0 0
SMALL
GASTEIGER

@<TRIPOS>ATOM
      1  C         18.0450  -23.0810   -8.8320 C.2     1  UNL1        0.0800
      2  C         17.5510  -22.4610   -9.9800 C.2     1  UNL1        0.0260
      3  C         18.4360  -21.8380  -10.8630 C.2     1  UNL1        0.0090
      4  C         19.8210  -21.8490  -10.6210 C.2     1  UNL1       -0.0460
      5  C         20.7390  -21.1580  -11.5910 C.3     1  UNL1        0.0490
      6  C         20.3030  -22.4980   -9.4680 C.2     1  UNL1        0.0390
      7  C         19.4170  -23.1200   -8.5760 C.2     1  UNL1        0.0420
      8  C         21.7560  -22.5230   -9.1500 C.2     1  UNL1        0.2520
      9  O         22.1990  -21.8690   -8.2150 O.2     1  UNL1       -0.2680
     10  N         22.5180  -23.3110   -9.9830 N.am    1  UNL1       -0.3530
     11  H         22.1020  -23.6610  -10.8360 H       1  UNL1        0.1630
     12  C         23.9610  -23.3100   -9.9050 C.3     1  UNL1        0.1610
     13  C         24.5530  -22.3770  -10.9310 C.2     1  UNL1       -0.0400
     14  C         25.7030  -21.6350  -10.6280 C.2     1  UNL1        0.0090
     15  C         26.2420  -20.7490  -11.5580 C.2     1  UNL1        0.0010
     16  C         25.6330  -20.5880  -12.8030 C.2     1  UNL1        0.0160
     17  C         24.4810  -21.3170  -13.1310 C.2     1  UNL1        0.0480
     18  C         23.9410  -22.2020  -12.1810 C.2     1  UNL1        0.0250
     19  C         23.8080  -21.1200  -14.4670 C.3     1  UNL1        0.4170
     20  F         23.6300  -22.2840  -15.1540 F       1  UNL1       -0.1660
     21  F         22.5700  -20.5670  -14.3460 F       1  UNL1       -0.1660
     22  F         24.5050  -20.3000  -15.3030 F       1  UNL1       -0.1660
     23  S         16.9270  -23.8810   -7.7030 S.O2    1  UNL1        0.2630
     24  O         17.7320  -24.6970   -6.8170 O.2     1  UNL1       -0.2000
     25  O         15.8520  -24.4610   -8.4770 O.2     1  UNL1       -0.2000
     26  N         16.3430  -22.6080   -6.7660 N.pl3   1  UNL1       -0.2800
     27  H         15.3290  -22.5270   -6.7980 H       1  UNL1        0.1790
     28  C         17.0150  -22.2350   -5.5650 C.2     1  UNL1        0.0480
     29  C         18.1690  -21.4490   -5.6380 C.2     1  UNL1        0.0300
     30  C         18.8570  -21.0950   -4.4780 C.2     1  UNL1        0.0020
     31  C         18.3910  -21.5220   -3.2390 C.2     1  UNL1        0.0010
     32  C         17.2330  -22.2960   -3.1580 C.2     1  UNL1        0.0090
     33  C         16.5290  -22.6620   -4.3170 C.2     1  UNL1       -0.0350
     34  C         15.2790  -23.4840   -4.1810 C.3     1  UNL1        0.0500
@<TRIPOS>BOND
     1    22    19    1
     2    20    19    1
     3    19    21    1
     4    19    17    1
     5    17    16    2
     6    17    18    1
     7    16    15    1
     8    18    13    2
     9     5     4    1
    10    15    14    2
    11    13    14    1
    12    13    12    1
    13     3     4    2
    14     3     2    1
    15    11    10    1
    16     4     6    1
    17    10    12    1
    18    10     8   am
    19     2     1    2
    20     6     8    1
    21     6     7    2
    22     8     9    2
    23     1     7    1
    24     1    23    1
    25    25    23    2
    26    23    24    2
    27    23    26    1
    28    27    26    1
    29    26    28    1
    30    29    28    2
    31    29    30    1
    32    28    33    1
    33    30    31    2
    34    33    34    1
    35    33    32    2
    36    31    32    1
