@<TRIPOS>MOLECULE
74753_out_ligand_01.pdbqt
 31 34 0 0 0
SMALL
GASTEIGER

@<TRIPOS>ATOM
      1  C         19.1540  -22.2050  -10.0780 C.2     1  UNL1        0.0360
      2  C         18.9020  -21.5190  -11.2770 C.2     1  UNL1        0.0290
      3  C         19.9500  -21.1340  -12.1180 C.2     1  UNL1        0.0040
      4  C         21.2630  -21.4380  -11.7740 C.2     1  UNL1        0.0250
      5  C         21.5170  -22.1310  -10.5880 C.2     1  UNL1        0.0820
      6  C         20.4730  -22.5000   -9.7300 C.2     1  UNL1        0.0540
      7  N         18.0370  -22.5600   -9.2980 N.am    1  UNL1       -0.3260
      8  C         17.9710  -23.5280   -8.3150 C.2     1  UNL1        0.2350
      9  O         18.8710  -24.2650   -7.9300 O.2     1  UNL1       -0.2720
     10  H         17.1920  -22.0230   -9.4450 H       1  UNL1        0.1690
     11  C         16.5890  -23.6470   -7.6990 C.3     1  UNL1        0.0680
     12  C         15.6990  -24.7950   -8.1800 C.3     1  UNL1        0.0260
     13  C         15.3980  -23.4010   -8.6250 C.3     1  UNL1        0.0260
     14  C         16.4780  -23.2680   -6.2210 C.2     1  UNL1       -0.0400
     15  C         17.4600  -23.6280   -5.2790 C.2     1  UNL1        0.0080
     16  C         17.3350  -23.2890   -3.9280 C.2     1  UNL1        0.0010
     17  C         16.2180  -22.5820   -3.4870 C.2     1  UNL1        0.0000
     18  C         15.2290  -22.2140   -4.3970 C.2     1  UNL1        0.0010
     19  C         15.3600  -22.5560   -5.7460 C.2     1  UNL1        0.0080
     20  S         23.1890  -22.5370  -10.1380 S.O2    1  UNL1        0.2630
     21  O         23.1350  -23.5740   -9.1260 O.2     1  UNL1       -0.2000
     22  O         23.8990  -21.2990   -9.8980 O.2     1  UNL1       -0.2000
     23  N         23.7980  -23.2640  -11.5410 N.pl3   1  UNL1       -0.2790
     24  H         23.0430  -23.6970  -12.0790 H       1  UNL1        0.1790
     25  C         24.7910  -22.5710  -12.3110 C.2     1  UNL1        0.0640
     26  C         24.4140  -21.7690  -13.3910 C.2     1  UNL1        0.0320
     27  C         25.3820  -21.1040  -14.1480 C.2     1  UNL1        0.0020
     28  C         26.7330  -21.2260  -13.8200 C.2     1  UNL1        0.0020
     29  C         27.1210  -22.0130  -12.7340 C.2     1  UNL1        0.0260
     30  C         26.1530  -22.6810  -11.9810 C.2     1  UNL1        0.0610
     31 CL         26.6740  -23.6430  -10.6430 Cl      1  UNL1       -0.0820
@<TRIPOS>BOND
     1    27    28    2
     2    27    26    1
     3    28    29    1
     4    26    25    2
     5    29    30    2
     6    25    30    1
     7    25    23    1
     8     3     4    2
     9     3     2    1
    10    24    23    1
    11    30    31    1
    12     4     5    1
    13    23    20    1
    14     2     1    2
    15     5    20    1
    16     5     6    2
    17    20    22    2
    18    20    21    2
    19     1     6    1
    20     1     7    1
    21    10     7    1
    22     7     8   am
    23    13    12    1
    24    13    11    1
    25     8     9    2
    26     8    11    1
    27    12    11    1
    28    11    14    1
    29    14    19    2
    30    14    15    1
    31    19    18    1
    32    15    16    2
    33    18    17    2
    34    16    17    1
