@<TRIPOS>MOLECULE
74751_out_ligand_01.pdbqt
 37 39 0 0 0
SMALL
GASTEIGER

@<TRIPOS>ATOM
      1  C         19.2080  -22.7520  -10.5660 C.2     1  UNL1        0.0240
      2  C         18.6430  -21.7340  -11.3360 C.2     1  UNL1        0.0240
      3  C         17.3810  -21.2270  -11.0180 C.2     1  UNL1        0.0030
      4  C         16.6740  -21.7460   -9.9340 C.2     1  UNL1        0.0250
      5  C         17.2360  -22.7830   -9.1840 C.2     1  UNL1        0.0760
      6  C         18.5100  -23.2780   -9.4800 C.2     1  UNL1        0.0490
      7  N         20.5160  -23.2550  -10.8710 N.pl3   1  UNL1       -0.1810
      8  H         20.5130  -24.2680  -11.0000 H       1  UNL1        0.1460
      9  S         21.7100  -22.8660   -9.7140 S.O2    1  UNL1        0.2450
     10  O         22.1610  -24.1100   -9.1290 O.2     1  UNL1       -0.2060
     11  O         21.2740  -21.7460   -8.9110 O.2     1  UNL1       -0.2060
     12  C         23.0030  -22.2710  -10.7820 C.2     1  UNL1        0.0760
     13  C         22.6980  -21.9650  -12.1130 C.2     1  UNL1        0.0440
     14  C         23.7080  -21.4970  -12.9690 C.2     1  UNL1        0.0600
     15  C         25.0120  -21.3280  -12.4810 C.2     1  UNL1        0.0510
     16  C         25.2990  -21.6260  -11.1400 C.2     1  UNL1        0.0260
     17 CL         26.3080  -20.7130  -13.4430 Cl      1  UNL1       -0.0830
     18  C         24.2970  -22.0970  -10.2870 C.2     1  UNL1        0.0260
     19  C         23.3700  -21.2280  -14.3820 C.2     1  UNL1        0.1770
     20  O         23.6380  -21.9150  -15.3460 O.2     1  UNL1       -0.6460
     21  O         22.6790  -20.0800  -14.5000 O.3     1  UNL1       -0.7730
     22  H         23.2000  -19.5450  -15.1370 H       1  UNL1        0.1670
     23  S         16.3420  -23.4700   -7.8060 S.O2    1  UNL1        0.2450
     24  O         15.7130  -24.6950   -8.2510 O.2     1  UNL1       -0.2060
     25  O         15.5650  -22.3990   -7.2190 O.2     1  UNL1       -0.2060
     26  N         17.5790  -23.8340   -6.7020 N.pl3   1  UNL1       -0.1800
     27  H         17.3750  -24.7370   -6.2510 H       1  UNL1        0.1460
     28  C         18.0150  -22.8000   -5.8020 C.2     1  UNL1        0.0390
     29  C         18.9410  -21.8580   -6.2650 C.2     1  UNL1        0.0250
     30  C         19.3620  -20.8120   -5.4410 C.2     1  UNL1        0.0020
     31  C         18.8640  -20.7020   -4.1460 C.2     1  UNL1        0.0010
     32  C         17.9490  -21.6410   -3.6670 C.2     1  UNL1        0.0200
     33  C         17.5190  -22.6980   -4.4870 C.2     1  UNL1        0.0590
     34  C         16.5570  -23.7050   -3.9710 C.2     1  UNL1        0.1780
     35  O         16.8200  -24.5830   -3.1660 O.2     1  UNL1       -0.6460
     36  O         15.3210  -23.5710   -4.4820 O.3     1  UNL1       -0.7730
     37  H         14.7590  -24.1830   -3.9610 H       1  UNL1        0.1670
@<TRIPOS>BOND
     1    20    19    2
     2    22    21    1
     3    21    19    1
     4    19    14    1
     5    17    15    1
     6    14    15    2
     7    14    13    1
     8    15    16    1
     9    13    12    2
    10     2     3    1
    11     2     1    2
    12    16    18    2
    13     3     4    2
    14     8     7    1
    15     7     1    1
    16     7     9    1
    17    12    18    1
    18    12     9    1
    19     1     6    1
    20     4     5    1
    21     9    10    2
    22     9    11    2
    23     6     5    2
    24     5    23    1
    25    24    23    2
    26    23    25    2
    27    23    26    1
    28    26    27    1
    29    26    28    1
    30    29    28    2
    31    29    30    1
    32    28    33    1
    33    30    31    2
    34    33    34    1
    35    33    32    2
    36    36    34    1
    37    36    37    1
    38    31    32    1
    39    34    35    2
