@<TRIPOS>MOLECULE
74760_out_ligand_01.pdbqt
 33 37 0 0 0
SMALL
GASTEIGER

@<TRIPOS>ATOM
      1  C         20.9900  -22.2460   -9.7740 C.2     1  UNL1        0.0320
      2  C         21.2620  -22.1580  -11.1470 C.2     1  UNL1        0.0180
      3  C         22.5760  -22.2330  -11.6150 C.2     1  UNL1        0.0260
      4  C         23.6220  -22.4080  -10.7040 C.2     1  UNL1        0.0790
      5  C         23.3660  -22.4560   -9.3300 C.2     1  UNL1        0.0260
      6  C         22.0500  -22.3780   -8.8660 C.2     1  UNL1        0.0180
      7  C         19.5690  -22.1550   -9.3320 C.2     1  UNL1        0.2520
      8  O         18.6850  -21.9050  -10.1430 O.2     1  UNL1       -0.2680
      9  N         19.3210  -22.4000   -8.0000 N.am    1  UNL1       -0.3480
     10  H         20.0520  -22.7640   -7.4040 H       1  UNL1        0.1630
     11  C         17.9720  -22.3760   -7.4530 C.3     1  UNL1        0.1220
     12  C         17.1550  -23.5940   -7.8840 C.3     1  UNL1        0.0570
     13  C         17.5900  -24.8020   -7.0760 C.3     1  UNL1        0.1780
     14  O         17.3600  -24.6330   -5.6750 O.2     1  UNL1       -0.3500
     15  C         17.7460  -23.4240   -5.1640 C.2     1  UNL1        0.0770
     16  C         17.8030  -23.3420   -3.7720 C.2     1  UNL1        0.0370
     17  C         18.0440  -22.3050   -5.9500 C.2     1  UNL1       -0.0020
     18  C         18.1780  -22.1500   -3.1530 C.2     1  UNL1        0.0030
     19  C         18.4930  -21.0350   -3.9260 C.2     1  UNL1        0.0010
     20  C         18.4260  -21.1110   -5.3180 C.2     1  UNL1        0.0120
     21  S         25.3050  -22.4680  -11.2960 S.O2    1  UNL1        0.2610
     22  O         25.8800  -21.1580  -11.0790 O.2     1  UNL1       -0.2000
     23  O         25.9130  -23.6560  -10.7340 O.2     1  UNL1       -0.2000
     24  N         25.1300  -22.7040  -12.9630 N.3     1  UNL1       -0.3020
     25  C         25.7380  -23.9160  -13.5510 C.3     1  UNL1        0.1400
     26  C         25.0260  -24.2510  -14.8620 C.3     1  UNL1        0.0600
     27  C         25.0190  -23.0740  -15.8040 C.2     1  UNL1       -0.0490
     28  C         24.8630  -23.2780  -17.1820 C.2     1  UNL1        0.0080
     29  C         25.1120  -21.7650  -15.2980 C.2     1  UNL1       -0.0330
     30  C         24.8260  -22.1920  -18.0550 C.2     1  UNL1        0.0010
     31  C         24.9340  -20.8960  -17.5610 C.2     1  UNL1        0.0010
     32  C         25.0770  -20.6810  -16.1890 C.2     1  UNL1        0.0090
     33  C         25.2810  -21.5030  -13.8150 C.3     1  UNL1        0.1740
@<TRIPOS>BOND
     1    30    31    2
     2    30    28    1
     3    31    32    1
     4    28    27    2
     5    32    29    2
     6    27    29    1
     7    27    26    1
     8    29    33    1
     9    26    25    1
    10    33    24    1
    11    25    24    1
    12    24    21    1
    13     3     2    1
    14     3     4    2
    15    21    22    2
    16    21    23    2
    17    21     4    1
    18     2     1    2
    19     4     5    1
    20     8     7    2
    21     1     7    1
    22     1     6    1
    23     7     9   am
    24     5     6    2
    25     9    11    1
    26     9    10    1
    27    12    11    1
    28    12    13    1
    29    11    17    1
    30    13    14    1
    31    17    20    1
    32    17    15    2
    33    14    15    1
    34    20    19    2
    35    15    16    1
    36    19    18    1
    37    16    18    2
