@<TRIPOS>MOLECULE
74773_out_ligand_01.pdbqt
 34 36 0 0 0
SMALL
GASTEIGER

@<TRIPOS>ATOM
      1  C         15.2180  -22.7690   -5.0530 C.3     1  UNL1        0.0690
      2  C         14.5750  -24.1760   -5.0200 C.3     1  UNL1        0.0360
      3  C         15.8120  -22.5050   -3.6510 C.3     1  UNL1        0.0360
      4  C         14.1210  -21.7940   -5.3020 C.1     1  UNL1        0.0730
      5  N         13.2550  -21.0420   -5.4810 N.1     1  UNL1       -0.1960
      6  C         16.3230  -22.6140   -6.1150 C.2     1  UNL1       -0.0360
      7  C         16.0680  -22.6450   -7.4950 C.2     1  UNL1        0.0110
      8  C         17.1040  -22.5000   -8.4290 C.2     1  UNL1        0.0300
      9  C         18.4260  -22.3230   -8.0130 C.2     1  UNL1        0.0350
     10  C         18.6960  -22.2860   -6.6500 C.2     1  UNL1        0.0300
     11  C         17.6610  -22.4270   -5.7150 C.2     1  UNL1        0.0110
     12  N         19.4060  -22.1790   -9.0150 N.am    1  UNL1       -0.3230
     13  C         20.1540  -23.1790   -9.6010 C.2     1  UNL1        0.2560
     14  O         20.0830  -24.3870   -9.4230 O.2     1  UNL1       -0.2670
     15  H         19.5560  -21.2380   -9.3610 H       1  UNL1        0.1690
     16  C         21.1350  -22.6790  -10.5910 C.2     1  UNL1        0.0390
     17  C         20.7400  -21.9050  -11.7010 C.2     1  UNL1       -0.0460
     18  C         21.7250  -21.4810  -12.6070 C.2     1  UNL1        0.0090
     19  C         19.3040  -21.5310  -11.9440 C.3     1  UNL1        0.0490
     20  C         23.0710  -21.7840  -12.3900 C.2     1  UNL1        0.0260
     21  C         23.4450  -22.5170  -11.2600 C.2     1  UNL1        0.0800
     22  C         22.4810  -22.9850  -10.3660 C.2     1  UNL1        0.0420
     23  S         25.1550  -22.9040  -10.9870 S.O2    1  UNL1        0.2630
     24  O         25.9280  -21.6890  -11.1100 O.2     1  UNL1       -0.2000
     25  O         25.2230  -23.7050   -9.7810 O.2     1  UNL1       -0.2000
     26  N         25.5070  -23.9580  -12.2610 N.pl3   1  UNL1       -0.2810
     27  H         26.0990  -24.7230  -11.9420 H       1  UNL1        0.1790
     28  C         25.8100  -23.3880  -13.5290 C.2     1  UNL1        0.0430
     29  C         26.8570  -22.4770  -13.6450 C.2     1  UNL1        0.0300
     30  C         27.1190  -21.8790  -14.8780 C.2     1  UNL1        0.0030
     31  C         26.3230  -22.1810  -15.9850 C.2     1  UNL1        0.0070
     32  C         25.2570  -23.0820  -15.8700 C.2     1  UNL1       -0.0600
     33  C         24.4100  -23.4260  -17.0610 C.3     1  UNL1        0.0480
     34  C         25.0160  -23.6950  -14.6340 C.2     1  UNL1        0.0370
@<TRIPOS>BOND
     1    33    32    1
     2    31    32    2
     3    31    30    1
     4    32    34    1
     5    30    29    2
     6    34    28    2
     7    29    28    1
     8    28    26    1
     9    18    20    2
    10    18    17    1
    11    20    21    1
    12    26    27    1
    13    26    23    1
    14    19    17    1
    15    17    16    2
    16    21    23    1
    17    21    22    2
    18    24    23    2
    19    23    25    2
    20    16    22    1
    21    16    13    1
    22    13    14    2
    23    13    12   am
    24    15    12    1
    25    12     9    1
    26     8     9    2
    27     8     7    1
    28     9    10    1
    29     7     6    2
    30    10    11    2
    31     6    11    1
    32     6     1    1
    33     5     4    3
    34     4     1    1
    35     1     2    1
    36     1     3    1
