@<TRIPOS>MOLECULE
74784_out_ligand_01.pdbqt
 32 34 0 0 0
SMALL
GASTEIGER

@<TRIPOS>ATOM
      1  C         21.4990  -22.1780  -10.5840 C.2     1  UNL1        0.0800
      2  C         21.2610  -21.3340  -11.6730 C.2     1  UNL1        0.0260
      3  C         19.9520  -20.9660  -11.9930 C.2     1  UNL1        0.0090
      4  C         18.8710  -21.4450  -11.2390 C.2     1  UNL1       -0.0460
      5  C         17.4680  -21.0360  -11.5870 C.3     1  UNL1        0.0490
      6  C         19.1340  -22.3170  -10.1660 C.2     1  UNL1        0.0390
      7  C         20.4400  -22.6930   -9.8370 C.2     1  UNL1        0.0420
      8  C         18.0390  -22.8550   -9.3400 C.2     1  UNL1        0.2520
      9  O         17.2170  -23.6140   -9.8320 O.2     1  UNL1       -0.2680
     10  N         18.0520  -22.4190   -8.0400 N.am    1  UNL1       -0.3490
     11  H         18.7710  -21.7780   -7.7330 H       1  UNL1        0.1630
     12  C         17.0340  -22.8150   -7.0810 C.3     1  UNL1        0.1140
     13  C         15.6490  -22.3430   -7.5370 C.3     1  UNL1        0.0370
     14  C         17.4430  -22.3200   -5.6980 C.2     1  UNL1       -0.0300
     15  C         18.4850  -21.3820   -5.5550 C.2     1  UNL1        0.0100
     16  C         18.8920  -20.9380   -4.2960 C.2     1  UNL1        0.0010
     17  C         18.2740  -21.4280   -3.1530 C.2     1  UNL1        0.0010
     18  C         17.2540  -22.3700   -3.2670 C.2     1  UNL1        0.0070
     19  C         16.8370  -22.8350   -4.5260 C.2     1  UNL1       -0.0540
     20  C         15.7380  -23.8630   -4.5820 C.3     1  UNL1        0.0490
     21  S         23.1640  -22.6410  -10.1670 S.O2    1  UNL1        0.2630
     22  O         23.9080  -21.4150   -9.9620 O.2     1  UNL1       -0.2000
     23  O         23.1010  -23.6520   -9.1340 O.2     1  UNL1       -0.2000
     24  N         23.7510  -23.3130  -11.5970 N.pl3   1  UNL1       -0.2800
     25  H         23.8430  -24.3240  -11.5440 H       1  UNL1        0.1790
     26  C         24.6890  -22.5910  -12.3920 C.2     1  UNL1        0.0480
     27  C         24.2260  -21.7080  -13.3720 C.2     1  UNL1        0.0300
     28  C         25.1250  -20.9710  -14.1420 C.2     1  UNL1        0.0020
     29  C         26.4940  -21.1180  -13.9390 C.2     1  UNL1        0.0010
     30  C         26.9630  -22.0060  -12.9710 C.2     1  UNL1        0.0090
     31  C         26.0710  -22.7550  -12.1870 C.2     1  UNL1       -0.0350
     32  C         26.6230  -23.7100  -11.1670 C.3     1  UNL1        0.0500
@<TRIPOS>BOND
     1    28    29    2
     2    28    27    1
     3    29    30    1
     4    27    26    2
     5    30    31    2
     6    26    31    1
     7    26    24    1
     8    31    32    1
     9     3     2    1
    10     3     4    2
    11     2     1    2
    12    24    25    1
    13    24    21    1
    14     5     4    1
    15     4     6    1
    16     1    21    1
    17     1     7    1
    18    21    22    2
    19    21    23    2
    20     6     7    2
    21     6     8    1
    22     9     8    2
    23     8    10   am
    24    10    11    1
    25    10    12    1
    26    13    12    1
    27    12    14    1
    28    14    15    2
    29    14    19    1
    30    15    16    1
    31    20    19    1
    32    19    18    2
    33    16    17    2
    34    18    17    1
