@<TRIPOS>MOLECULE
7479_out_ligand_01.pdbqt
 33 35 0 0 0
SMALL
GASTEIGER

@<TRIPOS>ATOM
      1  C         21.2750  -20.8370  -12.4710 C.3     1  UNL1        0.0500
      2  C         20.1840  -21.4320  -11.6240 C.2     1  UNL1       -0.0390
      3  C         18.8510  -21.2390  -12.0260 C.2     1  UNL1        0.0090
      4  C         17.7890  -21.7700  -11.2880 C.2     1  UNL1        0.0170
      5  C         18.0440  -22.5030  -10.1260 C.2     1  UNL1        0.0330
      6  C         19.3610  -22.6760   -9.6900 C.2     1  UNL1        0.0420
      7  C         20.4280  -22.1550  -10.4390 C.2     1  UNL1        0.0810
      8  C         16.9440  -23.1040   -9.3240 C.2     1  UNL1        0.2510
      9  O         15.7830  -22.7860   -9.5440 O.2     1  UNL1       -0.2680
     10  N         17.3290  -23.9670   -8.3210 N.am    1  UNL1       -0.3530
     11  H         18.2990  -23.9910   -8.0490 H       1  UNL1        0.1630
     12  C         16.3700  -24.4670   -7.3610 C.3     1  UNL1        0.1610
     13  C         16.3960  -23.6380   -6.1010 C.2     1  UNL1       -0.0400
     14  C         15.3570  -23.7260   -5.1640 C.2     1  UNL1        0.0090
     15  C         15.3970  -22.9730   -3.9910 C.2     1  UNL1        0.0010
     16  C         16.4800  -22.1320   -3.7360 C.2     1  UNL1        0.0160
     17  C         17.5450  -22.0460   -4.6460 C.2     1  UNL1        0.0480
     18  C         17.4920  -22.8020   -5.8270 C.2     1  UNL1        0.0250
     19  C         18.7110  -21.1310   -4.3630 C.3     1  UNL1        0.4170
     20  F         18.3400  -19.8210   -4.3020 F       1  UNL1       -0.1660
     21  F         19.3120  -21.4020   -3.1690 F       1  UNL1       -0.1660
     22  F         19.7010  -21.2000   -5.2950 F       1  UNL1       -0.1660
     23  S         22.0840  -22.4350   -9.8210 S.O2    1  UNL1        0.2460
     24  O         21.9990  -23.3720   -8.7200 O.2     1  UNL1       -0.2060
     25  O         22.7350  -21.1530   -9.6740 O.2     1  UNL1       -0.2060
     26  N         22.7580  -23.3020  -11.1310 N.pl3   1  UNL1       -0.1810
     27  H         22.7080  -24.2910  -10.8820 H       1  UNL1        0.1460
     28  C         24.1160  -22.9360  -11.4190 C.2     1  UNL1        0.0220
     29  C         24.4360  -22.3240  -12.6330 C.2     1  UNL1        0.0240
     30  C         25.7660  -22.0140  -12.9230 C.2     1  UNL1        0.0020
     31  C         26.7720  -22.3290  -12.0070 C.2     1  UNL1        0.0000
     32  C         26.4500  -22.9580  -10.8030 C.2     1  UNL1        0.0020
     33  C         25.1210  -23.2680  -10.5120 C.2     1  UNL1        0.0240
@<TRIPOS>BOND
     1    30    29    1
     2    30    31    2
     3    29    28    2
     4     1     2    1
     5     3     2    2
     6     3     4    1
     7    31    32    1
     8     2     7    1
     9    28    26    1
    10    28    33    1
    11     4     5    2
    12    26    27    1
    13    26    23    1
    14    32    33    2
    15     7    23    1
    16     7     6    2
    17     5     6    1
    18     5     8    1
    19    23    25    2
    20    23    24    2
    21     9     8    2
    22     8    10   am
    23    10    11    1
    24    10    12    1
    25    12    13    1
    26    13    18    2
    27    13    14    1
    28    18    17    1
    29    22    19    1
    30    14    15    2
    31    17    19    1
    32    17    16    2
    33    19    20    1
    34    19    21    1
    35    15    16    1
