@<TRIPOS>MOLECULE
74792_out_ligand_01.pdbqt
 31 33 0 0 0
SMALL
GASTEIGER

@<TRIPOS>ATOM
      1  C         18.4030  -21.3150  -11.1230 C.2     1  UNL1        0.2220
      2  O         18.6140  -20.2830  -11.7540 O.2     1  UNL1       -0.2730
      3  N         19.3360  -22.2660  -10.7530 N.am    1  UNL1       -0.3270
      4  H         18.9770  -23.0630  -10.2430 H       1  UNL1        0.1690
      5  C         17.0000  -21.6420  -10.6340 C.3     1  UNL1        0.1080
      6  C         16.9050  -23.0890  -10.1540 C.3     1  UNL1        0.0480
      7  C         16.4900  -23.1780   -8.7050 C.2     1  UNL1       -0.0580
      8  C         15.9720  -22.0530   -8.0450 C.2     1  UNL1        0.0090
      9  C         15.6340  -22.1200   -6.6950 C.2     1  UNL1        0.0260
     10  C         15.8180  -23.3170   -5.9980 C.2     1  UNL1        0.0790
     11  C         16.3430  -24.4420   -6.6360 C.2     1  UNL1        0.0260
     12  C         16.6690  -24.3720   -7.9910 C.2     1  UNL1        0.0090
     13  S         15.4660  -23.3960   -4.2610 S.O2    1  UNL1        0.2580
     14  O         14.8560  -24.6760   -3.9760 O.2     1  UNL1       -0.2010
     15  O         14.8310  -22.1530   -3.8830 O.2     1  UNL1       -0.2010
     16  N         16.9950  -23.3790   -3.5690 N.3     1  UNL1       -0.3200
     17  C         17.5800  -22.1140   -3.1530 C.3     1  UNL1        0.1590
     18  H         17.2060  -24.2120   -3.0260 H       1  UNL1        0.1710
     19  C         20.7150  -22.3100  -11.0720 C.2     1  UNL1        0.0410
     20  C         21.2210  -21.7700  -12.2630 C.2     1  UNL1        0.0300
     21  C         22.5840  -21.8380  -12.5670 C.2     1  UNL1        0.0020
     22  C         23.4650  -22.4490  -11.6860 C.2     1  UNL1        0.0010
     23  C         22.9840  -22.9890  -10.4970 C.2     1  UNL1        0.0100
     24  C         21.6130  -22.9260  -10.1700 C.2     1  UNL1       -0.0270
     25  C         21.1880  -23.5140   -8.8340 C.3     1  UNL1        0.0790
     26  C         20.8290  -22.5260   -7.7430 C.2     1  UNL1       -0.0540
     27  C         19.5520  -22.5720   -7.1590 C.2     1  UNL1        0.0070
     28  C         19.1860  -21.6570   -6.1730 C.2     1  UNL1        0.0010
     29  C         20.0800  -20.6630   -5.7810 C.2     1  UNL1        0.0000
     30  C         21.3450  -20.6020   -6.3570 C.2     1  UNL1        0.0010
     31  C         21.7210  -21.5300   -7.3270 C.2     1  UNL1        0.0070
@<TRIPOS>BOND
     1    21    20    1
     2    21    22    2
     3    20    19    2
     4     2     1    2
     5    22    23    1
     6     1     3   am
     7     1     5    1
     8    19     3    1
     9    19    24    1
    10     3     4    1
    11     5     6    1
    12    23    24    2
    13    24    25    1
    14     6     7    1
    15    25    26    1
    16     7     8    2
    17     7    12    1
    18     8     9    1
    19    12    11    2
    20    26    31    2
    21    26    27    1
    22    31    30    1
    23    27    28    2
    24     9    10    2
    25    11    10    1
    26    30    29    2
    27    28    29    1
    28    10    13    1
    29    13    14    2
    30    13    15    2
    31    13    16    1
    32    16    17    1
    33    16    18    1
