@<TRIPOS>MOLECULE
74797_out_ligand_01.pdbqt
 33 36 0 0 0
SMALL
GASTEIGER

@<TRIPOS>ATOM
      1  C         22.3520  -23.9050   -8.9990 C.3     1  UNL1        0.2800
      2  C         20.9390  -24.2470   -8.5140 C.2     1  UNL1        0.2460
      3  N         20.3520  -23.1970   -7.8210 N.am    1  UNL1       -0.3250
      4  H         20.9020  -22.3430   -7.7810 H       1  UNL1        0.1690
      5  O         20.4570  -25.3610   -8.6970 O.2     1  UNL1       -0.2710
      6  C         19.0870  -23.1650   -7.2060 C.2     1  UNL1        0.0340
      7  C         18.8650  -22.1560   -6.2570 C.2     1  UNL1        0.0310
      8  C         17.6360  -22.0490   -5.6030 C.2     1  UNL1        0.0270
      9  C         16.6200  -22.9590   -5.9000 C.2     1  UNL1        0.0740
     10  C         16.8300  -23.9790   -6.8280 C.2     1  UNL1        0.0270
     11  C         18.0640  -24.0750   -7.4820 C.2     1  UNL1        0.0310
     12  S         15.0630  -22.8300   -5.0630 S.O2    1  UNL1        0.2390
     13  O         14.6480  -24.1530   -4.6650 O.2     1  UNL1       -0.2060
     14  O         14.2100  -21.9380   -5.8120 O.2     1  UNL1       -0.2060
     15  N         15.4990  -21.9830   -3.6750 N.3     1  UNL1       -0.2250
     16  H         16.3260  -21.4000   -3.8010 H       1  UNL1        0.1360
     17  H         14.6960  -21.4350   -3.3630 H       1  UNL1        0.1360
     18  O         22.4560  -22.6060   -9.5750 O.2     1  UNL1       -0.3240
     19  C         23.4350  -22.4860  -10.5400 C.2     1  UNL1        0.1800
     20  N         24.6970  -22.8510  -10.2480 N.2     1  UNL1       -0.2170
     21  C         25.6310  -22.6920  -11.1970 C.2     1  UNL1        0.2370
     22  N         25.4630  -22.2020  -12.4270 N.2     1  UNL1       -0.2340
     23  C         24.1880  -21.8590  -12.6760 C.2     1  UNL1        0.1140
     24  S         23.7470  -21.2200  -14.1910 S.3     1  UNL1       -0.0800
     25  C         23.1170  -21.9680  -11.8020 C.2     1  UNL1        0.0640
     26  C         22.1060  -21.1010  -13.7280 C.2     1  UNL1        0.0650
     27  C         21.8920  -21.5370  -12.4340 C.2     1  UNL1       -0.0020
     28  C         20.5470  -21.5480  -11.8740 C.2     1  UNL1       -0.0240
     29  C         19.8190  -20.3560  -11.7670 C.2     1  UNL1        0.0120
     30  C         18.5190  -20.3700  -11.2600 C.2     1  UNL1        0.0010
     31  C         17.9410  -21.5720  -10.8550 C.2     1  UNL1        0.0000
     32  C         18.6630  -22.7600  -10.9510 C.2     1  UNL1        0.0010
     33  C         19.9640  -22.7500  -11.4580 C.2     1  UNL1        0.0120
@<TRIPOS>BOND
     1    24    26    1
     2    24    23    1
     3    26    27    2
     4    23    22    1
     5    23    25    2
     6    27    28    1
     7    27    25    1
     8    22    21    2
     9    28    29    2
    10    28    33    1
    11    25    19    1
    12    29    30    1
    13    33    32    2
    14    30    31    2
    15    21    20    1
    16    32    31    1
    17    19    20    2
    18    19    18    1
    19    18     1    1
    20     1     2    1
    21     5     2    2
    22     2     3   am
    23     3     4    1
    24     3     6    1
    25    11     6    2
    26    11    10    1
    27     6     7    1
    28    10     9    2
    29     7     8    2
    30     9     8    1
    31     9    12    1
    32    14    12    2
    33    12    13    2
    34    12    15    1
    35    16    15    1
    36    15    17    1
