@<TRIPOS>MOLECULE
74799_out_ligand_01.pdbqt
 33 36 0 0 0
SMALL
GASTEIGER

@<TRIPOS>ATOM
      1  N         19.6070  -22.4200   -6.8170 N.am    1  UNL1       -0.3270
      2  C         19.2480  -21.4980   -5.8450 C.2     1  UNL1        0.2270
      3  O         19.9060  -20.5270   -5.4780 O.2     1  UNL1       -0.2730
      4  H         18.8840  -23.0940   -7.0620 H       1  UNL1        0.1690
      5  C         20.7800  -22.4410   -7.5950 C.2     1  UNL1        0.0340
      6  C         21.0140  -23.5880   -8.3640 C.2     1  UNL1        0.0300
      7  C         22.1540  -23.6900   -9.1710 C.2     1  UNL1        0.0170
      8  C         23.0720  -22.6350   -9.2170 C.2     1  UNL1        0.0100
      9  C         22.8370  -21.4840   -8.4600 C.2     1  UNL1        0.0170
     10  C         21.7020  -21.3930   -7.6460 C.2     1  UNL1        0.0300
     11  C         24.2800  -22.6910  -10.0790 C.2     1  UNL1        0.1410
     12  N         25.1560  -23.7230   -9.8460 N.am    1  UNL1       -0.3070
     13  C         26.3100  -23.8690  -10.5540 C.2     1  UNL1        0.2480
     14  H         25.0260  -24.3750   -9.0870 H       1  UNL1        0.1700
     15  C         26.5260  -22.8780  -11.6150 C.2     1  UNL1        0.1010
     16  O         27.1210  -24.7600  -10.3310 O.2     1  UNL1       -0.2680
     17  C         25.6150  -21.9060  -11.7640 C.2     1  UNL1        0.0380
     18  C         25.7720  -20.8520  -12.8240 C.3     1  UNL1        0.0700
     19  N         24.4840  -21.7940  -10.9920 N.2     1  UNL1       -0.2350
     20  C         17.9120  -21.8130   -5.1940 C.3     1  UNL1        0.1630
     21  C         17.0730  -22.6880   -6.0660 C.2     1  UNL1        0.0500
     22  C         16.2130  -23.6880   -5.6530 C.2     1  UNL1        0.0790
     23  S         15.4610  -24.4140   -7.0090 S.3     1  UNL1       -0.0840
     24  C         16.3400  -23.3610   -8.0510 C.2     1  UNL1        0.0790
     25  N         17.1270  -22.4950   -7.4430 N.2     1  UNL1       -0.2490
     26  C         16.1680  -23.4500   -9.5420 C.3     1  UNL1        0.1050
     27  C         17.0270  -22.4570  -10.2950 C.2     1  UNL1       -0.0500
     28  C         16.5080  -21.2120  -10.6840 C.2     1  UNL1        0.0070
     29  C         17.2900  -20.3130  -11.4120 C.2     1  UNL1        0.0020
     30  C         18.6000  -20.6460  -11.7570 C.2     1  UNL1        0.0240
     31  C         19.1240  -21.8790  -11.3710 C.2     1  UNL1        0.0340
     32 CL         20.7400  -22.2920  -11.7960 Cl      1  UNL1       -0.0840
     33  C         18.3470  -22.7840  -10.6480 C.2     1  UNL1        0.0310
@<TRIPOS>BOND
     1    18    17    1
     2    32    31    1
     3    17    15    2
     4    17    19    1
     5    30    29    2
     6    30    31    1
     7    15    13    1
     8    29    28    1
     9    31    33    2
    10    19    11    2
    11    28    27    2
    12    33    27    1
    13    13    16    2
    14    13    12   am
    15    27    26    1
    16    11    12    1
    17    11     8    1
    18    12    14    1
    19    26    24    1
    20     8     7    2
    21     8     9    1
    22     7     6    1
    23     9    10    2
    24     6     5    2
    25    24    25    2
    26    24    23    1
    27    10     5    1
    28     5     1    1
    29    25    21    1
    30     4     1    1
    31    23    22    1
    32     1     2   am
    33    21    22    2
    34    21    20    1
    35     2     3    2
    36     2    20    1
