@<TRIPOS>MOLECULE
74828_out_ligand_01.pdbqt
 28 29 0 0 0
SMALL
GASTEIGER

@<TRIPOS>ATOM
      1  N         20.1120  -23.3000   -7.9910 N.am    1  UNL1       -0.3260
      2  C         20.8300  -24.2990   -8.6290 C.2     1  UNL1        0.2400
      3  O         20.6460  -25.5090   -8.5330 O.2     1  UNL1       -0.2710
      4  H         20.4840  -22.3540   -8.0900 H       1  UNL1        0.1690
      5  C         18.9950  -23.4440   -7.1480 C.2     1  UNL1        0.0340
      6  C         18.0410  -24.4570   -7.2810 C.2     1  UNL1        0.0310
      7  C         16.9550  -24.5310   -6.4030 C.2     1  UNL1        0.0270
      8  C         16.8290  -23.5900   -5.3810 C.2     1  UNL1        0.0740
      9  C         17.7630  -22.5620   -5.2430 C.2     1  UNL1        0.0270
     10  C         18.8440  -22.4950   -6.1260 C.2     1  UNL1        0.0310
     11  S         15.4560  -23.6730   -4.2630 S.O2    1  UNL1        0.2390
     12  O         15.8000  -24.5600   -3.1740 O.2     1  UNL1       -0.2060
     13  O         14.2460  -23.8220   -5.0350 O.2     1  UNL1       -0.2060
     14  N         15.4660  -22.1220   -3.6040 N.3     1  UNL1       -0.2250
     15  H         16.3460  -21.6300   -3.7520 H       1  UNL1        0.1360
     16  H         15.2270  -22.1850   -2.6130 H       1  UNL1        0.1360
     17  C         21.9650  -23.7480   -9.4980 C.3     1  UNL1        0.2340
     18  N         21.4440  -22.8400  -10.5190 N.am    1  UNL1       -0.3150
     19  C         20.1150  -22.4500  -10.4740 C.2     1  UNL1        0.1100
     20  C         19.5930  -21.6170  -11.3910 C.2     1  UNL1        0.0630
     21  C         20.4560  -21.1150  -12.4470 C.2     1  UNL1        0.0230
     22  C         21.7380  -21.4890  -12.5310 C.2     1  UNL1        0.0750
     23  C         22.3050  -22.4340  -11.5350 C.2     1  UNL1        0.2470
     24  O         23.4610  -22.8360  -11.6530 O.2     1  UNL1       -0.2680
     25  C         18.1580  -21.1700  -11.3810 C.3     1  UNL1        0.4180
     26  F         17.5260  -21.4880  -12.5390 F       1  UNL1       -0.1660
     27  F         18.0550  -19.8240  -11.2350 F       1  UNL1       -0.1660
     28  F         17.4390  -21.7290  -10.3740 F       1  UNL1       -0.1660
@<TRIPOS>BOND
     1    26    25    1
     2    22    21    2
     3    22    23    1
     4    21    20    1
     5    24    23    2
     6    23    18   am
     7    20    25    1
     8    20    19    2
     9    25    27    1
    10    25    28    1
    11    18    19    1
    12    18    17    1
    13    17     2    1
    14     2     3    2
    15     2     1   am
    16     4     1    1
    17     1     5    1
    18     6     5    2
    19     6     7    1
    20     5    10    1
    21     7     8    2
    22    10     9    2
    23     8     9    1
    24     8    11    1
    25    13    11    2
    26    11    14    1
    27    11    12    2
    28    15    14    1
    29    14    16    1
