@<TRIPOS>MOLECULE
74825_out_ligand_01.pdbqt
 31 33 0 0 0
SMALL
GASTEIGER

@<TRIPOS>ATOM
      1  C         23.5160  -21.5480  -13.2040 C.2     1  UNL1        0.0790
      2  C         22.2090  -21.1080  -13.4270 C.2     1  UNL1        0.0260
      3  C         21.1940  -21.5060  -12.5540 C.2     1  UNL1        0.0170
      4  C         21.4860  -22.3210  -11.4490 C.2     1  UNL1        0.0140
      5  C         22.8030  -22.7520  -11.2320 C.2     1  UNL1        0.0170
      6  C         23.8210  -22.3590  -12.1060 C.2     1  UNL1        0.0260
      7  C         20.3650  -22.7240  -10.5570 C.2     1  UNL1        0.1820
      8  O         19.4140  -21.9710  -10.3820 O.2     1  UNL1       -0.2880
      9  C         20.5020  -24.0150   -9.8290 C.2     1  UNL1        0.0560
     10  C         20.2680  -24.1910   -8.5190 C.2     1  UNL1        0.0160
     11  C         19.7780  -23.1780   -7.5700 C.2     1  UNL1       -0.0250
     12  C         20.6380  -22.1290   -7.2190 C.2     1  UNL1        0.0120
     13  C         20.2360  -21.1580   -6.3080 C.2     1  UNL1        0.0020
     14  C         18.9710  -21.2300   -5.7310 C.2     1  UNL1        0.0120
     15  C         18.0880  -22.2710   -6.0560 C.2     1  UNL1       -0.0250
     16  C         16.8160  -22.3300   -5.4620 C.2     1  UNL1        0.0120
     17  C         18.4830  -23.2660   -6.9870 C.2     1  UNL1       -0.0160
     18  C         15.9260  -23.3580   -5.7700 C.2     1  UNL1        0.0010
     19  C         16.2950  -24.3410   -6.6800 C.2     1  UNL1        0.0010
     20  C         17.5560  -24.2950   -7.2810 C.2     1  UNL1        0.0130
     21  S         24.8210  -21.0440  -14.3020 S.O2    1  UNL1        0.2580
     22  O         25.8480  -22.0610  -14.2520 O.2     1  UNL1       -0.2010
     23  O         25.1100  -19.6510  -14.0490 O.2     1  UNL1       -0.2010
     24  N         24.0960  -21.1640  -15.8070 N.3     1  UNL1       -0.3150
     25  H         23.1010  -20.9250  -15.8140 H       1  UNL1        0.1720
     26  C         24.8630  -20.8550  -17.0200 C.3     1  UNL1        0.1420
     27  C         25.1220  -22.1310  -17.8090 C.3     1  UNL1        0.1300
     28  C         24.3110  -23.2910  -17.3050 C.2     1  UNL1        0.1410
     29  O         23.1670  -23.5570  -17.6340 O.2     1  UNL1       -0.6500
     30  O         24.9810  -24.1050  -16.4660 O.3     1  UNL1       -0.7760
     31  H         24.4970  -24.9560  -16.5410 H       1  UNL1        0.1670
@<TRIPOS>BOND
     1    27    28    1
     2    27    26    1
     3    29    28    2
     4    28    30    1
     5    26    24    1
     6    31    30    1
     7    25    24    1
     8    24    21    1
     9    21    22    2
    10    21    23    2
    11    21     1    1
    12     2     1    2
    13     2     3    1
    14     1     6    1
    15     3     4    2
    16     6     5    2
    17     4     5    1
    18     4     7    1
    19     7     8    2
    20     7     9    1
    21     9    10    2
    22    10    11    1
    23    11    12    2
    24    11    17    1
    25    20    17    1
    26    20    19    2
    27    12    13    1
    28    17    15    2
    29    19    18    1
    30    13    14    2
    31    15    14    1
    32    15    16    1
    33    18    16    2
