@<TRIPOS>MOLECULE
7483_out_ligand_01.pdbqt
 35 38 0 0 0
SMALL
GASTEIGER

@<TRIPOS>ATOM
      1  S         16.1830  -22.4990   -9.3960 S.O2    1  UNL1        0.2720
      2  O         16.4720  -23.8820   -9.0740 O.2     1  UNL1       -0.2030
      3  O         14.9120  -22.1330   -9.9910 O.2     1  UNL1       -0.2030
      4  C         17.4200  -21.9780  -10.5520 C.ar    1  UNL1        0.2330
      5  N         17.4900  -20.7830  -11.1050 N.ar    1  UNL1       -0.1270
      6  N         18.6280  -20.6570  -11.8760 N.ar    1  UNL1       -0.1220
      7  C         19.3740  -21.7410  -11.8390 C.ar    1  UNL1        0.1970
      8  S         18.7260  -23.0130  -10.9110 S.2     1  UNL1       -0.0150
      9  N         20.5880  -21.8060  -12.4730 N.am    1  UNL1       -0.3000
     10  C         21.8040  -21.4130  -11.9660 C.2     1  UNL1        0.2580
     11  O         22.0510  -21.0030  -10.8420 O.2     1  UNL1       -0.2670
     12  H         20.5390  -22.1950  -13.4050 H       1  UNL1        0.1710
     13  C         22.9170  -21.5390  -12.9450 C.2     1  UNL1        0.0380
     14  C         22.8830  -20.7420  -14.1020 C.2     1  UNL1        0.0170
     15  C         23.9080  -20.8290  -15.0420 C.2     1  UNL1        0.0010
     16  C         24.9730  -21.7020  -14.8260 C.2     1  UNL1        0.0010
     17  C         25.0170  -22.4870  -13.6710 C.2     1  UNL1        0.0070
     18  C         23.9890  -22.4220  -12.7170 C.2     1  UNL1       -0.0460
     19  C         24.0770  -23.2690  -11.4780 C.3     1  UNL1        0.0490
     20  N         16.3980  -21.6100   -7.9540 N.pl3   1  UNL1       -0.1790
     21  H         15.7120  -20.8380   -7.9420 H       1  UNL1        0.1460
     22  C         16.3680  -22.3650   -6.7280 C.2     1  UNL1        0.0370
     23  C         15.1310  -22.8340   -6.2780 C.2     1  UNL1        0.0250
     24  C         15.0470  -23.5840   -5.1050 C.2     1  UNL1        0.0020
     25  C         16.1990  -23.8790   -4.3810 C.2     1  UNL1        0.0010
     26  C         17.4400  -23.4070   -4.8150 C.2     1  UNL1        0.0170
     27  C         17.5320  -22.6190   -5.9730 C.2     1  UNL1        0.0370
     28  C         18.8460  -22.1000   -6.4390 C.2     1  UNL1        0.1940
     29  O         19.2120  -20.9900   -6.0470 O.2     1  UNL1       -0.2870
     30  C         19.7540  -22.8730   -7.3240 C.2     1  UNL1        0.0150
     31  C         19.4530  -24.1740   -7.7430 C.2     1  UNL1        0.0150
     32  C         20.3530  -24.8750   -8.5500 C.2     1  UNL1        0.0010
     33  C         21.5580  -24.2840   -8.9290 C.2     1  UNL1        0.0000
     34  C         21.8750  -23.0000   -8.4910 C.2     1  UNL1        0.0010
     35  C         20.9790  -22.2960   -7.6850 C.2     1  UNL1        0.0150
@<TRIPOS>BOND
     1    15    16    2
     2    15    14    1
     3    16    17    1
     4    14    13    2
     5    17    18    2
     6    12     9    1
     7    13    18    1
     8    13    10    1
     9    18    19    1
    10     9    10   am
    11     9     7    1
    12    10    11    2
    13     6     7   ar
    14     6     5   ar
    15     7     8   ar
    16     5     4   ar
    17     8     4   ar
    18     4     1    1
    19     3     1    2
    20     1     2    2
    21     1    20    1
    22    33    32    2
    23    33    34    1
    24    32    31    1
    25    34    35    2
    26    20    21    1
    27    20    22    1
    28    31    30    2
    29    35    30    1
    30    30    28    1
    31    22    23    2
    32    22    27    1
    33    28    29    2
    34    28    27    1
    35    23    24    1
    36    27    26    2
    37    24    25    2
    38    26    25    1
