@<TRIPOS>MOLECULE
7484_out_ligand_01.pdbqt
 32 35 0 0 0
SMALL
GASTEIGER

@<TRIPOS>ATOM
      1  C         18.9310  -21.7520  -11.5340 C.ar    1  UNL1        0.1970
      2  N         17.9990  -20.8310  -11.5330 N.ar    1  UNL1       -0.1220
      3  N         16.9380  -21.1780  -10.7140 N.ar    1  UNL1       -0.1270
      4  C         17.1310  -22.3550  -10.1520 C.ar    1  UNL1        0.2330
      5  S         18.5850  -23.1380  -10.5980 S.2     1  UNL1       -0.0150
      6  S         16.0850  -23.1150   -8.9530 S.O2    1  UNL1        0.2720
      7  O         15.2790  -24.0940   -9.6580 O.2     1  UNL1       -0.2030
      8  O         15.4400  -22.0480   -8.2150 O.2     1  UNL1       -0.2030
      9  N         17.0250  -24.0010   -7.8230 N.pl3   1  UNL1       -0.1790
     10  H         16.7810  -24.9840   -7.9510 H       1  UNL1        0.1460
     11  C         16.8670  -23.5820   -6.4530 C.2     1  UNL1        0.0340
     12  C         15.7970  -24.0800   -5.7050 C.2     1  UNL1        0.0250
     13  C         15.5670  -23.6000   -4.4200 C.2     1  UNL1        0.0030
     14  C         16.4000  -22.6180   -3.8840 C.2     1  UNL1        0.0120
     15  C         17.4870  -22.1130   -4.6150 C.2     1  UNL1       -0.0240
     16  C         18.3200  -21.1220   -4.0690 C.2     1  UNL1        0.0120
     17  C         17.7430  -22.6060   -5.9160 C.2     1  UNL1       -0.0040
     18  C         19.4080  -20.6240   -4.7860 C.2     1  UNL1        0.0010
     19  C         19.6860  -21.1180   -6.0540 C.2     1  UNL1        0.0010
     20  C         18.8670  -22.1010   -6.6110 C.2     1  UNL1        0.0140
     21  N         20.1480  -21.7900  -12.1560 N.am    1  UNL1       -0.3000
     22  C         21.3260  -21.6560  -11.4620 C.2     1  UNL1        0.2590
     23  O         21.4430  -21.4090  -10.2690 O.2     1  UNL1       -0.2670
     24  H         20.1440  -22.0070  -13.1420 H       1  UNL1        0.1710
     25  C         22.5740  -21.7700  -12.2720 C.2     1  UNL1        0.0540
     26  C         22.5420  -21.1790  -13.5490 C.2     1  UNL1        0.0200
     27  C         23.6560  -21.2300  -14.3900 C.2     1  UNL1        0.0250
     28  C         24.8160  -21.8640  -13.9560 C.2     1  UNL1        0.0350
     29 CL         26.1900  -21.9310  -14.9860 Cl      1  UNL1       -0.0840
     30  C         24.8730  -22.4420  -12.6890 C.2     1  UNL1        0.0480
     31  C         23.7570  -22.3930  -11.8430 C.2     1  UNL1        0.0510
     32 CL         23.9470  -23.0950  -10.2730 Cl      1  UNL1       -0.0830
@<TRIPOS>BOND
     1    29    28    1
     2    27    28    2
     3    27    26    1
     4    28    30    1
     5    26    25    2
     6    24    21    1
     7    30    31    2
     8    25    31    1
     9    25    22    1
    10    21     1    1
    11    21    22   am
    12    31    32    1
    13     1     2   ar
    14     1     5   ar
    15     2     3   ar
    16    22    23    2
    17     3     4   ar
    18     5     4   ar
    19     4     6    1
    20     7     6    2
    21     6     8    2
    22     6     9    1
    23    10     9    1
    24     9    11    1
    25    20    19    2
    26    20    17    1
    27    11    17    2
    28    11    12    1
    29    19    18    1
    30    17    15    1
    31    12    13    2
    32    18    16    2
    33    15    16    1
    34    15    14    2
    35    13    14    1
