@<TRIPOS>MOLECULE
74861_out_ligand_01.pdbqt
 30 33 0 0 0
SMALL
GASTEIGER

@<TRIPOS>ATOM
      1  C         20.5690  -21.6350  -10.9990 C.2     1  UNL1        0.1450
      2  N         19.9190  -20.7390  -11.7220 N.2     1  UNL1       -0.2410
      3  C         18.6000  -21.0870  -11.6980 C.2     1  UNL1        0.1360
      4  C         18.4180  -22.2100  -10.9370 C.2     1  UNL1        0.1120
      5  N         19.6700  -22.5440  -10.4790 N.pl3   1  UNL1       -0.3390
      6  C         19.9200  -23.6690   -9.6000 C.3     1  UNL1        0.1340
      7  C         20.2750  -23.2660   -8.1660 C.3     1  UNL1        0.0580
      8  C         19.0760  -23.1950   -7.2490 C.2     1  UNL1       -0.0570
      9  C         18.1250  -24.2270   -7.2520 C.2     1  UNL1        0.0090
     10  C         17.0230  -24.1750   -6.3980 C.2     1  UNL1        0.0250
     11  C         16.8780  -23.0940   -5.5270 C.2     1  UNL1        0.0740
     12  C         17.8120  -22.0550   -5.5160 C.2     1  UNL1        0.0250
     13  C         18.9100  -22.1100   -6.3750 C.2     1  UNL1        0.0090
     14  S         15.4770  -23.0420   -4.4430 S.O2    1  UNL1        0.2390
     15  O         14.4580  -22.2110   -5.0460 O.2     1  UNL1       -0.2060
     16  O         15.2130  -24.3810   -3.9760 O.2     1  UNL1       -0.2060
     17  N         16.0780  -22.1430   -3.1530 N.3     1  UNL1       -0.2250
     18  H         17.0720  -21.9310   -3.2360 H       1  UNL1        0.1360
     19  H         15.5130  -21.2990   -3.0460 H       1  UNL1        0.1360
     20  C         22.1280  -21.5840  -10.8180 C.2     1  UNL1        0.0770
     21  C         22.9000  -21.4580   -9.6540 C.2     1  UNL1        0.1580
     22  N         24.2120  -21.4490   -9.8880 N.2     1  UNL1       -0.1770
     23  N         24.3140  -21.5790  -11.2390 N.pl3   1  UNL1       -0.2190
     24  C         25.4900  -21.6280  -12.0030 C.2     1  UNL1        0.0360
     25  C         23.0530  -21.6630  -11.8450 C.2     1  UNL1        0.1660
     26  C         25.3980  -21.7590  -13.3370 C.2     1  UNL1        0.0530
     27  C         26.8010  -21.5330  -11.2880 C.3     1  UNL1        0.0700
     28  C         24.0170  -21.8400  -13.9030 C.2     1  UNL1        0.0350
     29  C         23.8890  -21.9840  -15.3990 C.3     1  UNL1        0.0700
     30  N         22.9240  -21.7940  -13.2020 N.2     1  UNL1       -0.2330
@<TRIPOS>BOND
     1    29    28    1
     2    28    26    1
     3    28    30    2
     4    26    24    2
     5    30    25    1
     6    24    27    1
     7    24    23    1
     8    25    23    1
     9    25    20    2
    10     2     3    1
    11     2     1    2
    12     3     4    2
    13    23    22    1
    14     1    20    1
    15     1     5    1
    16     4     5    1
    17    20    21    1
    18     5     6    1
    19    22    21    2
    20     6     7    1
    21     7     8    1
    22     9     8    2
    23     9    10    1
    24     8    13    1
    25    10    11    2
    26    13    12    2
    27    11    12    1
    28    11    14    1
    29    15    14    2
    30    14    16    2
    31    14    17    1
    32    18    17    1
    33    17    19    1
