@<TRIPOS>MOLECULE
74869_out_ligand_01.pdbqt
 30 34 0 0 0
SMALL
GASTEIGER

@<TRIPOS>ATOM
      1  C         19.4600  -22.4850   -9.5910 C.2     1  UNL1        0.0370
      2  C         18.1510  -22.7500   -9.9910 C.2     1  UNL1        0.0300
      3  C         17.1030  -22.8030   -9.0590 C.2     1  UNL1        0.0160
      4  C         17.3740  -22.5850   -7.6960 C.ar    1  UNL1       -0.0010
      5  C         16.5840  -22.5620   -6.5140 C.ar    1  UNL1       -0.0150
      6  C         17.4270  -22.2960   -5.4550 C.ar    1  UNL1        0.0860
      7  N         18.6940  -22.1450   -5.9470 N.ar    1  UNL1       -0.3520
      8  C         18.6900  -22.3200   -7.3130 C.ar    1  UNL1        0.0450
      9  C         19.7460  -22.2640   -8.2340 C.2     1  UNL1        0.0590
     10  C         17.0250  -22.1890   -4.0740 C.2     1  UNL1        0.1760
     11  O         17.8100  -21.9400   -3.1640 O.2     1  UNL1       -0.2910
     12  C         15.5490  -22.4880   -3.8190 C.3     1  UNL1        0.0860
     13  C         14.6540  -22.1190   -5.0140 C.3     1  UNL1        0.0120
     14  C         15.1200  -22.7760   -6.3270 C.3     1  UNL1        0.0420
     15  H         19.5080  -21.9400   -5.3810 H       1  UNL1        0.1660
     16  N         20.5460  -22.4200  -10.4800 N.am    1  UNL1       -0.3220
     17  C         20.8330  -21.4580  -11.4270 C.2     1  UNL1        0.2760
     18  O         20.1830  -20.4530  -11.6850 O.2     1  UNL1       -0.2660
     19  H         21.2350  -23.1680  -10.4470 H       1  UNL1        0.1690
     20  C         22.0740  -21.7850  -12.1400 C.2     1  UNL1        0.1420
     21  C         23.0660  -22.6520  -11.7320 C.2     1  UNL1        0.1290
     22  N         24.0060  -22.6200  -12.7210 N.pl3   1  UNL1       -0.3410
     23  C         23.5750  -21.7510  -13.6930 C.2     1  UNL1        0.1080
     24  C         25.2450  -23.3700  -12.7370 C.3     1  UNL1        0.1600
     25  N         22.4090  -21.2280  -13.3670 N.2     1  UNL1       -0.2280
     26  C         24.3510  -21.4600  -14.9340 C.3     1  UNL1        0.1080
     27  C         24.6620  -22.7220  -15.7470 C.3     1  UNL1        0.2770
     28  N         25.7560  -23.5460  -15.2140 N.3     1  UNL1        0.0850
     29  C         25.4010  -24.2550  -13.9780 C.3     1  UNL1        0.2890
     30  H         26.5860  -22.9720  -15.0690 H       1  UNL1        0.3150
@<TRIPOS>BOND
     1    27    28    1
     2    27    26    1
     3    28    30    1
     4    28    29    1
     5    26    23    1
     6    29    24    1
     7    23    25    2
     8    23    22    1
     9    25    20    1
    10    24    22    1
    11    22    21    1
    12    20    21    2
    13    20    17    1
    14    18    17    2
    15    17    16   am
    16    16    19    1
    17    16     1    1
    18     2     1    2
    19     2     3    1
    20     1     9    1
    21     3     4    2
    22     9     8    2
    23     4     8   ar
    24     4     5   ar
    25     8     7   ar
    26     5    14    1
    27     5     6   ar
    28    14    13    1
    29     7     6   ar
    30     7    15    1
    31     6    10    1
    32    13    12    1
    33    10    12    1
    34    10    11    2
