@<TRIPOS>MOLECULE
74871_out_ligand_01.pdbqt
 29 33 0 0 0
SMALL
GASTEIGER

@<TRIPOS>ATOM
      1  C         20.1940  -22.3430  -10.5270 C.2     1  UNL1        0.0160
      2  C         18.8950  -22.1530  -10.9590 C.2     1  UNL1        0.0280
      3  C         17.9440  -22.2820   -9.9060 C.2     1  UNL1       -0.0390
      4  C         18.5430  -22.5550   -8.6910 C.2     1  UNL1        0.0240
      5  S         20.2400  -22.6770   -8.8450 S.3     1  UNL1       -0.0900
      6  C         17.7970  -22.7630   -7.3770 C.3     1  UNL1        0.0980
      7  C         17.8720  -24.2260   -6.9030 C.3     1  UNL1        0.0730
      8  C         17.2000  -24.4050   -5.5440 C.3     1  UNL1        0.2730
      9  N         17.7770  -23.5200   -4.5300 N.3     1  UNL1        0.0830
     10  C         17.6350  -22.1170   -4.9310 C.3     1  UNL1        0.2730
     11  C         18.3260  -21.8350   -6.2650 C.3     1  UNL1        0.0730
     12  O         16.4050  -22.3760   -7.5800 O.3     1  UNL1       -0.3740
     13  C         15.8070  -22.8250   -8.8040 C.3     1  UNL1        0.1730
     14  C         16.4630  -22.1400  -10.0040 C.3     1  UNL1        0.0660
     15  H         18.7670  -23.7390   -4.4120 H       1  UNL1        0.3150
     16  C         21.4380  -22.2650  -11.3060 C.2     1  UNL1       -0.0170
     17  C         21.4950  -21.5430  -12.5130 C.2     1  UNL1        0.0460
     18  C         22.7070  -21.4850  -13.2200 C.ar    1  UNL1        0.0860
     19  N         23.0030  -20.8520  -14.4030 N.ar    1  UNL1       -0.2310
     20  C         23.8240  -22.1360  -12.7130 C.ar    1  UNL1        0.0620
     21  C         24.2720  -21.1150  -14.6390 C.ar    1  UNL1        0.1330
     22  N         24.8090  -21.8790  -13.6290 N.ar    1  UNL1       -0.3400
     23  H         25.7720  -22.1770  -13.5790 H       1  UNL1        0.1670
     24  C         23.8140  -22.8570  -11.5190 C.2     1  UNL1        0.0330
     25  C         22.5950  -22.9050  -10.8280 C.2     1  UNL1        0.0150
     26  C         25.0860  -20.6550  -15.8010 C.3     1  UNL1        0.1830
     27  C         25.9620  -19.4620  -15.4560 C.3     1  UNL1        0.0470
     28  O         24.1700  -20.2800  -16.8280 O.3     1  UNL1       -0.3880
     29  H         23.2840  -20.3710  -16.4320 H       1  UNL1        0.2100
@<TRIPOS>BOND
     1    28    29    1
     2    28    26    1
     3    26    27    1
     4    26    21    1
     5    21    19   ar
     6    21    22   ar
     7    19    18   ar
     8    22    23    1
     9    22    20   ar
    10    18    20   ar
    11    18    17    1
    12    20    24    1
    13    17    16    2
    14    24    25    2
    15    16    25    1
    16    16     1    1
    17     2     1    2
    18     2     3    1
    19     1     5    1
    20    14     3    1
    21    14    13    1
    22     3     4    2
    23     5     4    1
    24    13    12    1
    25     4     6    1
    26    12     6    1
    27     6     7    1
    28     6    11    1
    29     7     8    1
    30    11    10    1
    31     8     9    1
    32    10     9    1
    33     9    15    1
