@<TRIPOS>MOLECULE
74895_out_ligand_01.pdbqt
 40 42 0 0 0
SMALL
GASTEIGER

@<TRIPOS>ATOM
      1  C         23.9670  -22.9160   -9.9090 C.3     1  UNL1        0.2820
      2  O         22.7040  -22.2420   -9.9650 O.3     1  UNL1       -0.3080
      3  C         21.6240  -23.0380   -9.7230 C.2     1  UNL1        0.2960
      4  O         21.6690  -24.1180   -9.1540 O.2     1  UNL1       -0.2590
      5  C         20.3670  -22.4540  -10.2850 C.2     1  UNL1        0.0660
      6  C         20.5150  -21.7190  -11.4780 C.2     1  UNL1        0.0200
      7  C         19.4220  -21.0910  -12.0760 C.2     1  UNL1        0.0010
      8  C         18.1660  -21.1860  -11.4870 C.2     1  UNL1        0.0020
      9  C         18.0050  -21.9090  -10.3060 C.2     1  UNL1        0.0300
     10  C         19.0900  -22.5600   -9.6870 C.2     1  UNL1        0.0490
     11  N         18.8530  -23.2890   -8.4990 N.pl3   1  UNL1       -0.3550
     12  H         19.4270  -24.1360   -8.4480 H       1  UNL1        0.1660
     13  C         18.5680  -22.8120   -7.1910 C.2     1  UNL1        0.0390
     14  C         19.2880  -21.7380   -6.6360 C.2     1  UNL1        0.0300
     15  C         19.0360  -21.3050   -5.3330 C.2     1  UNL1        0.0030
     16  C         18.0520  -21.9330   -4.5700 C.2     1  UNL1        0.0070
     17  C         17.3100  -23.0040   -5.0930 C.2     1  UNL1       -0.0540
     18  C         16.2360  -23.6220   -4.2350 C.3     1  UNL1        0.0490
     19  C         17.5530  -23.4400   -6.4230 C.2     1  UNL1       -0.0290
     20  C         16.7380  -24.5830   -6.9930 C.3     1  UNL1        0.0510
     21  C         24.8020  -22.7130  -11.1790 C.2     1  UNL1        0.2460
     22  O         25.9340  -23.1770  -11.2750 O.2     1  UNL1       -0.2710
     23  N         24.1610  -21.9140  -12.1170 N.am    1  UNL1       -0.3250
     24  H         23.2590  -21.5310  -11.8370 H       1  UNL1        0.1690
     25  C         24.5990  -21.5940  -13.4180 C.2     1  UNL1        0.0360
     26  C         25.2280  -20.3530  -13.5990 C.2     1  UNL1        0.0460
     27  C         25.6530  -19.9470  -14.8730 C.2     1  UNL1        0.0350
     28  C         25.4700  -20.7930  -15.9710 C.2     1  UNL1        0.0340
     29  C         24.8510  -22.0430  -15.8010 C.2     1  UNL1        0.0350
     30  C         24.4110  -22.4320  -14.5250 C.2     1  UNL1        0.0460
     31  C         26.3190  -18.6260  -15.0030 C.2     1  UNL1        0.2490
     32  N         26.0650  -17.9000  -16.1320 N.am    1  UNL1       -0.3660
     33  H         25.3170  -18.1200  -16.7740 H       1  UNL1        0.1590
     34  H         26.4540  -16.9640  -16.1730 H       1  UNL1        0.1590
     35  O         27.0460  -18.1960  -14.1170 O.2     1  UNL1       -0.2680
     36  C         24.6710  -22.8970  -17.0130 C.2     1  UNL1        0.2490
     37  N         23.4100  -23.2910  -17.3580 N.am    1  UNL1       -0.3660
     38  H         23.3240  -23.9000  -18.1630 H       1  UNL1        0.1590
     39  H         22.5790  -23.1410  -16.8030 H       1  UNL1        0.1590
     40  O         25.6340  -23.2500  -17.6890 O.2     1  UNL1       -0.2680
@<TRIPOS>BOND
     1    38    37    1
     2    40    36    2
     3    37    36   am
     4    37    39    1
     5    36    29    1
     6    33    32    1
     7    34    32    1
     8    32    31   am
     9    28    29    2
    10    28    27    1
    11    29    30    1
    12    31    27    1
    13    31    35    2
    14    27    26    2
    15    30    25    2
    16    26    25    1
    17    25    23    1
    18    23    24    1
    19    23    21   am
    20     7     8    2
    21     7     6    1
    22     8     9    1
    23     6     5    2
    24    22    21    2
    25    21     1    1
    26     9    10    2
    27     5     3    1
    28     5    10    1
    29     2     1    1
    30     2     3    1
    31     3     4    2
    32    10    11    1
    33    11    12    1
    34    11    13    1
    35    13    14    2
    36    13    19    1
    37    20    19    1
    38    14    15    1
    39    19    17    2
    40    15    16    2
    41    17    16    1
    42    17    18    1
