@<TRIPOS>MOLECULE
7489_out_ligand_01.pdbqt
 32 34 0 0 0
SMALL
GASTEIGER

@<TRIPOS>ATOM
      1  C         18.9610  -22.2770  -10.2620 C.2     1  UNL1        0.0390
      2  C         18.6610  -21.2040  -11.1120 C.2     1  UNL1        0.0170
      3  C         19.6340  -20.7160  -11.9740 C.2     1  UNL1        0.0030
      4  C         20.8940  -21.3100  -11.9930 C.2     1  UNL1        0.0250
      5  C         21.1960  -22.3860  -11.1460 C.2     1  UNL1        0.0290
      6  C         20.2370  -22.8740  -10.2400 C.2     1  UNL1       -0.0240
      7  C         20.5260  -24.0310   -9.3210 C.3     1  UNL1        0.0510
      8  C         17.8630  -22.7700   -9.4070 C.2     1  UNL1        0.2520
      9  N         17.9350  -22.3320   -8.1060 N.am    1  UNL1       -0.3480
     10  H         18.7510  -21.8110   -7.8140 H       1  UNL1        0.1630
     11  O         17.0080  -23.5090   -9.8680 O.2     1  UNL1       -0.2680
     12  C         17.0510  -22.8460   -7.0680 C.3     1  UNL1        0.1160
     13  C         15.5980  -22.4110   -7.2950 C.3     1  UNL1        0.0370
     14  C         17.5630  -22.4020   -5.7020 C.2     1  UNL1       -0.0030
     15  C         18.4110  -21.2790   -5.6020 C.2     1  UNL1        0.0120
     16  C         18.9050  -20.8570   -4.3690 C.2     1  UNL1        0.0010
     17  C         18.5620  -21.5530   -3.2160 C.2     1  UNL1        0.0030
     18  C         17.7310  -22.6720   -3.2940 C.2     1  UNL1        0.0370
     19  C         17.2310  -23.1070   -4.5270 C.2     1  UNL1        0.0760
     20  O         16.4180  -24.1990   -4.6840 O.2     1  UNL1       -0.3550
     21  C         15.1300  -24.1590   -4.0830 C.3     1  UNL1        0.2100
     22  N         22.5100  -22.9580  -11.2320 N.pl3   1  UNL1       -0.1810
     23  H         22.5260  -23.9720  -11.1430 H       1  UNL1        0.1460
     24  S         23.6650  -22.2750  -10.1780 S.O2    1  UNL1        0.2450
     25  O         23.0860  -21.1440   -9.4850 O.2     1  UNL1       -0.2060
     26  O         24.3060  -23.3640   -9.4740 O.2     1  UNL1       -0.2060
     27  C         24.8270  -21.6340  -11.3610 C.2     1  UNL1        0.0740
     28  C         25.9120  -20.8630  -10.9340 C.2     1  UNL1        0.0250
     29  C         26.8140  -20.3720  -11.8780 C.2     1  UNL1        0.0020
     30  C         26.6270  -20.6470  -13.2360 C.2     1  UNL1        0.0000
     31  C         25.5350  -21.4080  -13.6560 C.2     1  UNL1        0.0020
     32  C         24.6270  -21.9040  -12.7190 C.2     1  UNL1        0.0250
@<TRIPOS>BOND
     1    31    30    2
     2    31    32    1
     3    30    29    1
     4    32    27    2
     5     4     3    2
     6     4     5    1
     7     3     2    1
     8    29    28    2
     9    27    28    1
    10    27    24    1
    11    22     5    1
    12    22    23    1
    13    22    24    1
    14     5     6    2
    15     2     1    2
    16     1     6    1
    17     1     8    1
    18     6     7    1
    19    24    25    2
    20    24    26    2
    21    11     8    2
    22     8     9   am
    23     9    10    1
    24     9    12    1
    25    13    12    1
    26    12    14    1
    27    14    15    2
    28    14    19    1
    29    15    16    1
    30    20    19    1
    31    20    21    1
    32    19    18    2
    33    16    17    2
    34    18    17    1
