@<TRIPOS>MOLECULE
74892_out_ligand_01.pdbqt
 36 38 0 0 0
SMALL
GASTEIGER

@<TRIPOS>ATOM
      1  C         20.6530  -23.4830   -9.2020 C.2     1  UNL1        0.2960
      2  O         20.6430  -24.7030   -9.1400 O.2     1  UNL1       -0.2590
      3  C         19.6320  -22.6910   -9.9540 C.2     1  UNL1        0.0660
      4  C         20.1160  -21.9940  -11.0810 C.2     1  UNL1        0.0200
      5  C         19.2690  -21.1970  -11.8500 C.2     1  UNL1        0.0010
      6  C         17.9290  -21.0920  -11.5070 C.2     1  UNL1        0.0020
      7  C         17.4360  -21.7730  -10.3880 C.2     1  UNL1        0.0300
      8  C         18.2670  -22.5830   -9.5910 C.2     1  UNL1        0.0490
      9  N         17.7360  -23.2390   -8.4600 N.pl3   1  UNL1       -0.3550
     10  H         17.5080  -24.2130   -8.6260 H       1  UNL1        0.1660
     11  C         17.6540  -22.8760   -7.0990 C.2     1  UNL1        0.0390
     12  C         18.5860  -21.9980   -6.5270 C.2     1  UNL1        0.0300
     13  C         18.5070  -21.6410   -5.1830 C.2     1  UNL1        0.0030
     14  C         17.4870  -22.1570   -4.3890 C.2     1  UNL1        0.0070
     15  C         16.5280  -23.0290   -4.9260 C.2     1  UNL1       -0.0540
     16  C         15.4410  -23.5450   -4.0220 C.3     1  UNL1        0.0490
     17  C         16.5960  -23.3780   -6.2960 C.2     1  UNL1       -0.0290
     18  C         15.5770  -24.3190   -6.8970 C.3     1  UNL1        0.0510
     19  O         21.5940  -22.6870   -8.6240 O.3     1  UNL1       -0.3080
     20  C         22.9420  -23.1460   -8.7790 C.3     1  UNL1        0.2820
     21  C         23.6890  -22.4570   -9.9310 C.2     1  UNL1        0.2460
     22  O         23.8120  -21.2360   -9.9630 O.2     1  UNL1       -0.2710
     23  N         24.1060  -23.3430  -10.9170 N.am    1  UNL1       -0.3250
     24  H         23.7700  -24.2970  -10.8310 H       1  UNL1        0.1690
     25  C         24.9100  -23.0510  -12.0330 C.2     1  UNL1        0.0360
     26  C         26.2500  -23.4650  -11.9830 C.2     1  UNL1        0.0290
     27  C         27.1200  -23.2100  -13.0490 C.2     1  UNL1        0.0040
     28  C         26.6590  -22.5280  -14.1750 C.2     1  UNL1        0.0250
     29  C         25.3300  -22.1040  -14.2200 C.2     1  UNL1        0.0760
     30  C         24.4550  -22.3530  -13.1540 C.2     1  UNL1        0.0540
     31  S         24.7240  -21.2150  -15.6320 S.O2    1  UNL1        0.2390
     32  O         24.1880  -22.1670  -16.5790 O.2     1  UNL1       -0.2060
     33  O         25.7110  -20.2300  -16.0040 O.2     1  UNL1       -0.2060
     34  N         23.3780  -20.4170  -15.0040 N.3     1  UNL1       -0.2250
     35  H         22.7070  -20.1180  -15.7080 H       1  UNL1        0.1360
     36  H         23.6910  -19.6620  -14.3950 H       1  UNL1        0.1360
@<TRIPOS>BOND
     1    32    31    2
     2    33    31    2
     3    35    34    1
     4    31    34    1
     5    31    29    1
     6    34    36    1
     7    29    28    2
     8    29    30    1
     9    28    27    1
    10    30    25    2
    11    27    26    2
    12    25    26    1
    13    25    23    1
    14     5     6    2
    15     5     4    1
    16     6     7    1
    17     4     3    2
    18    23    24    1
    19    23    21   am
    20     7     8    2
    21    22    21    2
    22     3     8    1
    23     3     1    1
    24    21    20    1
    25     8     9    1
    26     1     2    2
    27     1    19    1
    28    20    19    1
    29    10     9    1
    30     9    11    1
    31    11    12    2
    32    11    17    1
    33    18    17    1
    34    12    13    1
    35    17    15    2
    36    13    14    2
    37    15    14    1
    38    15    16    1
