@<TRIPOS>MOLECULE
74893_out_ligand_01.pdbqt
 38 40 0 0 0
SMALL
GASTEIGER

@<TRIPOS>ATOM
      1  C         20.9640  -23.3390   -9.3140 C.2     1  UNL1        0.2970
      2  O         20.8750  -24.5400   -9.1230 O.2     1  UNL1       -0.2590
      3  O         21.9100  -22.5340   -8.7730 O.3     1  UNL1       -0.3080
      4  C         23.2610  -22.9760   -8.9670 C.3     1  UNL1        0.2820
      5  C         23.8830  -22.3830  -10.2350 C.2     1  UNL1        0.2460
      6  N         23.8010  -23.2540  -11.3130 N.am    1  UNL1       -0.3250
      7  H         23.3350  -24.1330  -11.1230 H       1  UNL1        0.1690
      8  O         24.4180  -21.2790  -10.2250 O.2     1  UNL1       -0.2710
      9  C         24.2530  -23.0450  -12.6270 C.2     1  UNL1        0.0340
     10  C         23.6700  -21.9880  -13.3400 C.2     1  UNL1        0.0310
     11  C         24.0580  -21.7150  -14.6560 C.2     1  UNL1        0.0270
     12  C         25.0440  -22.4980  -15.2600 C.2     1  UNL1        0.0740
     13  C         25.6270  -23.5580  -14.5670 C.2     1  UNL1        0.0270
     14  C         25.2310  -23.8260  -13.2500 C.2     1  UNL1        0.0310
     15  S         25.5140  -22.1660  -16.9350 S.O2    1  UNL1        0.2390
     16  O         26.8110  -21.5290  -16.9340 O.2     1  UNL1       -0.2060
     17  O         25.2240  -23.3370  -17.7250 O.2     1  UNL1       -0.2060
     18  N         24.4160  -20.9620  -17.3630 N.3     1  UNL1       -0.2250
     19  H         23.7260  -21.2640  -18.0510 H       1  UNL1        0.1360
     20  H         23.9740  -20.6060  -16.5140 H       1  UNL1        0.1360
     21  C         19.9730  -22.5760  -10.1110 C.2     1  UNL1        0.0850
     22  C         20.4910  -21.7940  -11.1570 C.2     1  UNL1        0.0230
     23  C         19.6370  -21.0510  -11.9620 C.2     1  UNL1        0.0200
     24  C         18.2860  -21.1210  -11.6960 C.2     1  UNL1        0.1190
     25  N         17.7590  -21.8610  -10.6970 N.2     1  UNL1       -0.2420
     26  C         18.5850  -22.5790   -9.8910 C.2     1  UNL1        0.1440
     27  N         18.0110  -23.3100   -8.8250 N.pl3   1  UNL1       -0.3400
     28  H         18.3920  -24.2490   -8.8100 H       1  UNL1        0.1670
     29  C         17.6810  -22.8610   -7.5270 C.2     1  UNL1        0.0340
     30  C         18.7080  -22.4510   -6.6640 C.2     1  UNL1        0.0290
     31  C         18.4300  -22.0260   -5.3650 C.2     1  UNL1        0.0030
     32  C         17.1170  -22.0200   -4.8980 C.2     1  UNL1        0.0160
     33  C         16.0760  -22.4590   -5.7230 C.2     1  UNL1        0.0500
     34  C         16.3750  -22.8960   -7.0250 C.2     1  UNL1        0.0450
     35  C         14.6550  -22.4880   -5.2230 C.3     1  UNL1        0.4170
     36  F         14.5230  -22.0060   -3.9540 F       1  UNL1       -0.1660
     37  F         14.1370  -23.7500   -5.1940 F       1  UNL1       -0.1660
     38  F         13.8000  -21.7510   -5.9870 F       1  UNL1       -0.1660
@<TRIPOS>BOND
     1    19    18    1
     2    17    15    2
     3    18    15    1
     4    18    20    1
     5    15    16    2
     6    15    12    1
     7    12    11    2
     8    12    13    1
     9    11    10    1
    10    13    14    2
    11    10     9    2
    12    14     9    1
    13     9     6    1
    14    23    24    2
    15    23    22    1
    16    24    25    1
    17     6     7    1
    18     6     5   am
    19    22    21    2
    20    25    26    2
    21     5     8    2
    22     5     4    1
    23    21    26    1
    24    21     1    1
    25    26    27    1
    26     1     2    2
    27     1     3    1
    28     4     3    1
    29    27    28    1
    30    27    29    1
    31    29    34    2
    32    29    30    1
    33    34    33    1
    34    30    31    2
    35    38    35    1
    36    33    35    1
    37    33    32    2
    38    31    32    1
    39    35    37    1
    40    35    36    1
