@<TRIPOS>MOLECULE
74899_out_ligand_01.pdbqt
 35 37 0 0 0
SMALL
GASTEIGER

@<TRIPOS>ATOM
      1  N         15.7570  -24.4090   -4.3000 N.1     1  UNL1       -0.1910
      2  C         16.5600  -23.6380   -4.6290 C.1     1  UNL1        0.1010
      3  C         17.5710  -22.6870   -4.9900 C.2     1  UNL1        0.0610
      4  C         17.8390  -21.6350   -4.0990 C.2     1  UNL1        0.0240
      5  C         18.8190  -20.6870   -4.3950 C.2     1  UNL1        0.0020
      6  C         19.5370  -20.7820   -5.5820 C.2     1  UNL1        0.0010
      7  C         19.2790  -21.8240   -6.4730 C.2     1  UNL1        0.0200
      8  C         18.2980  -22.7900   -6.1870 C.2     1  UNL1        0.0260
      9  S         17.9950  -24.0790   -7.3970 S.3     1  UNL1       -0.0880
     10  C         18.3460  -23.2090   -8.9250 C.2     1  UNL1        0.0210
     11  C         17.3290  -22.4330   -9.4990 C.2     1  UNL1        0.0200
     12  C         17.5600  -21.6930  -10.6620 C.2     1  UNL1        0.0010
     13  C         18.8180  -21.7030  -11.2590 C.2     1  UNL1        0.0010
     14  C         19.8480  -22.4540  -10.6950 C.2     1  UNL1        0.0190
     15  C         19.6130  -23.2020   -9.5320 C.2     1  UNL1        0.0560
     16  C         20.7320  -23.9940   -8.9850 C.2     1  UNL1        0.2950
     17  O         20.8130  -25.2110   -9.0230 O.2     1  UNL1       -0.2590
     18  O         21.6230  -23.1570   -8.4040 O.3     1  UNL1       -0.3080
     19  C         22.9840  -23.3420   -8.8020 C.3     1  UNL1        0.2820
     20  C         23.4190  -22.5040  -10.0150 C.2     1  UNL1        0.2460
     21  O         23.6730  -21.3100   -9.8900 O.2     1  UNL1       -0.2710
     22  N         23.4460  -23.2280  -11.1930 N.am    1  UNL1       -0.3250
     23  H         23.1760  -24.2100  -11.1200 H       1  UNL1        0.1690
     24  C         23.8360  -22.7940  -12.4740 C.2     1  UNL1        0.0340
     25  C         24.8820  -23.4970  -13.0900 C.2     1  UNL1        0.0310
     26  C         25.3390  -23.1350  -14.3590 C.2     1  UNL1        0.0270
     27  C         24.7380  -22.0650  -15.0210 C.2     1  UNL1        0.0740
     28  C         23.7070  -21.3450  -14.4160 C.2     1  UNL1        0.0270
     29  C         23.2570  -21.7140  -13.1440 C.2     1  UNL1        0.0310
     30  S         25.3050  -21.5920  -16.6340 S.O2    1  UNL1        0.2390
     31  O         24.8740  -22.5930  -17.5820 O.2     1  UNL1       -0.2060
     32  O         26.6750  -21.1540  -16.5310 O.2     1  UNL1       -0.2060
     33  N         24.3500  -20.2370  -16.9380 N.3     1  UNL1       -0.2250
     34  H         24.8060  -19.6650  -17.6500 H       1  UNL1        0.1360
     35  H         23.3890  -20.4710  -17.1850 H       1  UNL1        0.1360
@<TRIPOS>BOND
     1    34    33    1
     2    31    30    2
     3    35    33    1
     4    33    30    1
     5    30    32    2
     6    30    27    1
     7    27    28    2
     8    27    26    1
     9    28    29    1
    10    26    25    2
    11    29    24    2
    12    25    24    1
    13    24    22    1
    14    13    14    2
    15    13    12    1
    16    22    23    1
    17    22    20   am
    18    14    15    1
    19    12    11    2
    20    20    21    2
    21    20    19    1
    22    15    16    1
    23    15    10    2
    24    11    10    1
    25    17    16    2
    26    16    18    1
    27    10     9    1
    28    19    18    1
    29     9     8    1
    30     7     8    1
    31     7     6    2
    32     8     3    2
    33     6     5    1
    34     3     2    1
    35     3     4    1
    36     2     1    3
    37     5     4    2
