@<TRIPOS>MOLECULE
748_out_ligand_01.pdbqt
 39 42 0 0 0
SMALL
GASTEIGER

@<TRIPOS>ATOM
      1  C         23.4030  -22.3000  -12.3990 C.2     1  UNL1        0.0240
      2  C         22.4810  -21.5310  -13.0880 C.2     1  UNL1        0.0260
      3  C         21.2060  -21.3350  -12.5490 C.2     1  UNL1        0.0270
      4  C         20.8210  -21.8750  -11.3010 C.2     1  UNL1        0.0340
      5  C         21.7760  -22.6590  -10.6280 C.2     1  UNL1        0.1020
      6  C         23.0620  -22.8560  -11.1730 C.2     1  UNL1        0.0510
      7  S         21.4600  -23.5290   -9.0970 S.O2    1  UNL1        0.2650
      8  O         22.7350  -24.0920   -8.6850 O.2     1  UNL1       -0.2000
      9  O         20.3110  -24.4000   -9.2050 O.2     1  UNL1       -0.2000
     10  N         21.1610  -22.2850   -7.9910 N.pl3   1  UNL1       -0.2810
     11  H         21.5500  -21.4010   -8.3110 H       1  UNL1        0.1790
     12  C         19.9270  -22.2400   -7.2880 C.2     1  UNL1        0.0430
     13  C         19.8170  -21.4240   -6.1610 C.2     1  UNL1        0.0300
     14  C         18.6270  -21.3950   -5.4340 C.2     1  UNL1        0.0030
     15  C         17.5470  -22.1860   -5.8290 C.2     1  UNL1        0.0160
     16  C         17.6450  -23.0150   -6.9580 C.2     1  UNL1        0.0500
     17  C         18.8490  -23.0350   -7.6810 C.2     1  UNL1        0.0460
     18  C         16.4830  -23.8560   -7.4160 C.3     1  UNL1        0.4170
     19  F         16.3230  -23.8630   -8.7710 F       1  UNL1       -0.1660
     20  F         15.2940  -23.4390   -6.9060 F       1  UNL1       -0.1660
     21  F         16.6110  -25.1660   -7.0580 F       1  UNL1       -0.1660
     22  N         19.5320  -21.6610  -10.8050 N.pl3   1  UNL1       -0.2820
     23  C         18.5730  -22.7240  -11.1870 C.3     1  UNL1        0.0960
     24  C         17.5170  -22.0060  -12.0200 C.3     1  UNL1        0.0160
     25  C         17.4340  -20.6570  -11.3300 C.3     1  UNL1        0.0160
     26  C         18.8980  -20.3450  -11.0330 C.3     1  UNL1        0.0960
     27  N         24.7220  -22.4790  -12.9110 N.pl3   1  UNL1       -0.1810
     28  H         25.0800  -23.4320  -12.8270 H       1  UNL1        0.1460
     29  S         25.9160  -21.4190  -12.3240 S.O2    1  UNL1        0.2450
     30  O         25.4160  -20.6570  -11.2000 O.2     1  UNL1       -0.2060
     31  O         27.1210  -22.2160  -12.2190 O.2     1  UNL1       -0.2060
     32  C         26.1110  -20.3230  -13.7090 C.2     1  UNL1        0.0750
     33  C         26.7910  -19.1170  -13.5460 C.2     1  UNL1        0.0250
     34  C         26.9550  -18.2730  -14.6440 C.2     1  UNL1        0.0090
     35  C         26.4520  -18.6270  -15.9090 C.2     1  UNL1       -0.0560
     36  C         26.6750  -17.6920  -17.0670 C.3     1  UNL1        0.0490
     37  C         25.8030  -19.8680  -16.0760 C.2     1  UNL1       -0.0550
     38  C         25.6290  -20.7070  -14.9640 C.2     1  UNL1        0.0320
     39  C         25.2690  -20.3040  -17.4140 C.3     1  UNL1        0.0490
@<TRIPOS>BOND
     1    39    37    1
     2    36    35    1
     3    37    35    2
     4    37    38    1
     5    35    34    1
     6    38    32    2
     7    34    33    2
     8    32    33    1
     9    32    29    1
    10     2     3    1
    11     2     1    2
    12    27    28    1
    13    27     1    1
    14    27    29    1
    15     3     4    2
    16     1     6    1
    17    29    31    2
    18    29    30    2
    19    24    25    1
    20    24    23    1
    21    25    26    1
    22     4    22    1
    23     4     5    1
    24    23    22    1
    25     6     5    2
    26    26    22    1
    27     5     7    1
    28     9     7    2
    29     7     8    2
    30     7    10    1
    31    19    18    1
    32    11    10    1
    33    10    12    1
    34    17    12    2
    35    17    16    1
    36    18    21    1
    37    18    16    1
    38    18    20    1
    39    12    13    1
    40    16    15    2
    41    13    14    2
    42    15    14    1
