@<TRIPOS>MOLECULE
74904_out_ligand_01.pdbqt
 30 32 0 0 0
SMALL
GASTEIGER

@<TRIPOS>ATOM
      1  N         22.3000  -22.5760  -11.1240 N.am    1  UNL1       -0.3250
      2  C         22.3560  -21.9880   -9.8720 C.2     1  UNL1        0.2460
      3  O         23.0820  -21.0590   -9.5310 O.2     1  UNL1       -0.2710
      4  H         21.6050  -23.3120  -11.2150 H       1  UNL1        0.1690
      5  C         21.3930  -22.6410   -8.8740 C.3     1  UNL1        0.2780
      6  O         20.4140  -23.4710   -9.5000 O.2     1  UNL1       -0.3420
      7  C         19.2120  -22.8650   -9.7550 C.2     1  UNL1        0.0750
      8  C         18.9510  -22.1760  -10.9460 C.2     1  UNL1        0.0370
      9  C         17.6930  -21.6140  -11.1710 C.2     1  UNL1        0.0030
     10  C         16.6890  -21.7500  -10.2190 C.2     1  UNL1        0.0010
     11  C         16.9390  -22.4530   -9.0400 C.2     1  UNL1        0.0100
     12  C         18.1980  -23.0260   -8.7980 C.2     1  UNL1       -0.0210
     13  C         18.4400  -23.7740   -7.5030 C.3     1  UNL1        0.0800
     14  C         18.4310  -22.8950   -6.2720 C.2     1  UNL1       -0.0540
     15  C         19.1190  -21.6730   -6.2600 C.2     1  UNL1        0.0070
     16  C         19.1100  -20.8630   -5.1230 C.2     1  UNL1        0.0010
     17  C         18.4140  -21.2670   -3.9840 C.2     1  UNL1        0.0000
     18  C         17.7260  -22.4800   -3.9830 C.2     1  UNL1        0.0010
     19  C         17.7350  -23.2900   -5.1200 C.2     1  UNL1        0.0070
     20  C         23.0400  -22.2480  -12.2740 C.2     1  UNL1        0.0340
     21  C         22.4390  -21.3750  -13.1910 C.2     1  UNL1        0.0300
     22  C         23.1060  -20.9950  -14.3620 C.2     1  UNL1        0.0190
     23  C         24.3890  -21.4850  -14.6260 C.2     1  UNL1        0.0320
     24  C         24.9830  -22.3700  -13.7220 C.2     1  UNL1        0.0190
     25  C         24.3130  -22.7450  -12.5490 C.2     1  UNL1        0.0300
     26  C         25.1400  -21.1170  -15.8550 C.2     1  UNL1        0.2490
     27  N         24.5020  -20.3260  -16.7710 N.am    1  UNL1       -0.3660
     28  H         23.6840  -19.7830  -16.5320 H       1  UNL1        0.1590
     29  H         25.0790  -19.9840  -17.5280 H       1  UNL1        0.1590
     30  O         26.2950  -21.4760  -16.0380 O.2     1  UNL1       -0.2680
@<TRIPOS>BOND
     1    29    27    1
     2    27    28    1
     3    27    26   am
     4    30    26    2
     5    26    23    1
     6    23    22    2
     7    23    24    1
     8    22    21    1
     9    24    25    2
    10    21    20    2
    11    25    20    1
    12    20     1    1
    13     4     1    1
    14     9     8    1
    15     9    10    2
    16     1     2   am
    17     8     7    2
    18    10    11    1
    19     2     3    2
    20     2     5    1
    21     7     6    1
    22     7    12    1
    23     6     5    1
    24    11    12    2
    25    12    13    1
    26    13    14    1
    27    14    15    2
    28    14    19    1
    29    15    16    1
    30    16    17    2
    31    19    18    2
    32    17    18    1
