@<TRIPOS>MOLECULE
74907_out_ligand_01.pdbqt
 37 39 0 0 0
SMALL
GASTEIGER

@<TRIPOS>ATOM
      1  C         20.8230  -23.7510   -9.2100 C.2     1  UNL1        0.2960
      2  O         20.7570  -24.9700   -9.1330 O.2     1  UNL1       -0.2590
      3  O         21.7920  -22.9870   -8.6370 O.3     1  UNL1       -0.3080
      4  C         23.1280  -23.3360   -9.0150 C.3     1  UNL1        0.2820
      5  C         23.6790  -22.4960  -10.1780 C.2     1  UNL1        0.2460
      6  N         23.6290  -23.1560  -11.3950 N.am    1  UNL1       -0.3250
      7  H         23.2350  -24.0920  -11.3790 H       1  UNL1        0.1690
      8  O         24.0560  -21.3420   -9.9900 O.2     1  UNL1       -0.2710
      9  C         24.0910  -22.6950  -12.6460 C.2     1  UNL1        0.0340
     10  C         23.3630  -21.6710  -13.2590 C.2     1  UNL1        0.0300
     11  C         23.7520  -21.1680  -14.5080 C.2     1  UNL1        0.0190
     12  C         24.8820  -21.6790  -15.1610 C.2     1  UNL1        0.0320
     13  C         25.6030  -22.7120  -14.5550 C.2     1  UNL1        0.0190
     14  C         25.2100  -23.2130  -13.3040 C.2     1  UNL1        0.0300
     15  C         25.2540  -21.0990  -16.4840 C.2     1  UNL1        0.2490
     16  N         24.3860  -20.2220  -17.0740 N.am    1  UNL1       -0.3660
     17  H         24.6220  -19.9260  -18.0160 H       1  UNL1        0.1590
     18  H         23.4410  -20.0740  -16.7600 H       1  UNL1        0.1590
     19  O         26.2920  -21.4130  -17.0530 O.2     1  UNL1       -0.2680
     20  C         19.8430  -22.9210   -9.9730 C.2     1  UNL1        0.0660
     21  C         20.3660  -22.2300  -11.0850 C.2     1  UNL1        0.0200
     22  C         19.5570  -21.3910  -11.8510 C.2     1  UNL1        0.0010
     23  C         18.2180  -21.2330  -11.5140 C.2     1  UNL1        0.0020
     24  C         17.6900  -21.9050  -10.4070 C.2     1  UNL1        0.0300
     25  C         18.4800  -22.7600   -9.6170 C.2     1  UNL1        0.0490
     26  N         17.9270  -23.3850   -8.4780 N.pl3   1  UNL1       -0.3550
     27  H         17.6800  -24.3590   -8.6440 H       1  UNL1        0.1660
     28  C         17.7100  -22.9440   -7.1630 C.2     1  UNL1        0.0330
     29  C         18.6760  -22.1280   -6.5540 C.2     1  UNL1        0.0290
     30  C         18.5290  -21.6910   -5.2360 C.2     1  UNL1        0.0030
     31  C         17.4100  -22.0680   -4.4980 C.2     1  UNL1        0.0160
     32  C         16.4280  -22.8850   -5.0770 C.2     1  UNL1        0.0500
     33  C         16.5940  -23.3180   -6.4080 C.2     1  UNL1        0.0450
     34  C         15.2030  -23.3060   -4.3020 C.3     1  UNL1        0.4170
     35  F         14.3890  -24.1270   -5.0230 F       1  UNL1       -0.1660
     36  F         14.4320  -22.2410   -3.9340 F       1  UNL1       -0.1660
     37  F         15.4870  -23.9790   -3.1540 F       1  UNL1       -0.1660
@<TRIPOS>BOND
     1    17    16    1
     2    16    18    1
     3    16    15   am
     4    19    15    2
     5    15    12    1
     6    12    13    2
     7    12    11    1
     8    13    14    1
     9    11    10    2
    10    14     9    2
    11    10     9    1
    12     9     6    1
    13    22    23    2
    14    22    21    1
    15    23    24    1
    16     6     7    1
    17     6     5   am
    18    21    20    2
    19    24    25    2
    20     5     8    2
    21     5     4    1
    22    20    25    1
    23    20     1    1
    24    25    26    1
    25     1     2    2
    26     1     3    1
    27     4     3    1
    28    27    26    1
    29    26    28    1
    30    28    29    2
    31    28    33    1
    32    29    30    1
    33    33    32    2
    34    30    31    2
    35    32    31    1
    36    32    34    1
    37    35    34    1
    38    34    36    1
    39    34    37    1
