@<TRIPOS>MOLECULE
74909_out_ligand_01.pdbqt
 40 44 0 0 0
SMALL
GASTEIGER

@<TRIPOS>ATOM
      1  C         20.4300  -22.5810   -8.7480 C.2     1  UNL1        0.0540
      2  C         20.0060  -22.6030   -7.4190 C.2     1  UNL1        0.0510
      3  C         18.7010  -22.2360   -7.1530 C.2     1  UNL1        0.0690
      4  N         17.8360  -21.8750   -8.1300 N.2     1  UNL1       -0.2470
      5  C         18.2520  -21.8490   -9.4070 C.2     1  UNL1        0.0680
      6  C         17.3440  -21.4730  -10.3890 C.2     1  UNL1        0.0320
      7  C         17.6930  -21.4280  -11.7410 C.2     1  UNL1        0.0020
      8  C         18.9790  -21.7700  -12.1310 C.2     1  UNL1        0.0010
      9  C         19.9100  -22.1500  -11.1670 C.2     1  UNL1        0.0150
     10  C         19.5610  -22.1950   -9.7920 C.2     1  UNL1        0.0090
     11  C         21.8170  -22.9860   -9.0300 C.2     1  UNL1        0.2940
     12  O         22.1920  -24.1330   -9.1770 O.2     1  UNL1       -0.2590
     13  O         22.5900  -21.8700   -9.0030 O.3     1  UNL1       -0.3080
     14  C         23.9870  -22.1200   -9.1880 C.3     1  UNL1        0.2820
     15  C         24.4980  -21.7760  -10.5940 C.2     1  UNL1        0.2460
     16  N         24.0520  -22.6690  -11.5570 N.am    1  UNL1       -0.3250
     17  H         23.4930  -23.4400  -11.2120 H       1  UNL1        0.1690
     18  O         25.2640  -20.8350  -10.7730 O.2     1  UNL1       -0.2710
     19  C         24.2800  -22.6290  -12.9460 C.2     1  UNL1        0.0340
     20  C         23.5250  -21.7110  -13.6890 C.2     1  UNL1        0.0310
     21  C         23.6890  -21.6060  -15.0740 C.2     1  UNL1        0.0270
     22  C         24.6150  -22.4280  -15.7190 C.2     1  UNL1        0.0740
     23  C         25.3880  -23.3330  -14.9910 C.2     1  UNL1        0.0270
     24  C         25.2140  -23.4340  -13.6060 C.2     1  UNL1        0.0310
     25  S         24.8370  -22.2980  -17.4740 S.O2    1  UNL1        0.2390
     26  O         26.0790  -22.9450  -17.8280 O.2     1  UNL1       -0.2060
     27  O         24.5210  -20.9490  -17.8760 O.2     1  UNL1       -0.2060
     28  N         23.6130  -23.3050  -18.0440 N.3     1  UNL1       -0.2250
     29  H         23.9160  -23.7290  -18.9220 H       1  UNL1        0.1360
     30  H         23.3170  -24.0060  -17.3630 H       1  UNL1        0.1360
     31  C         18.1670  -22.2320   -5.7870 C.2     1  UNL1        0.0040
     32  C         18.8710  -21.5190   -4.7970 C.2     1  UNL1        0.0140
     33  C         18.3960  -21.4450   -3.4930 C.2     1  UNL1        0.0020
     34  C         17.2070  -22.0820   -3.1550 C.2     1  UNL1        0.0120
     35  C         16.4830  -22.8130   -4.1070 C.2     1  UNL1       -0.0250
     36  C         15.2890  -23.4580   -3.7410 C.2     1  UNL1        0.0120
     37  C         16.9590  -22.9050   -5.4410 C.2     1  UNL1       -0.0130
     38  C         14.5600  -24.2010   -4.6690 C.2     1  UNL1        0.0010
     39  C         15.0160  -24.3110   -5.9760 C.2     1  UNL1        0.0010
     40  C         16.1990  -23.6720   -6.3560 C.2     1  UNL1        0.0130
@<TRIPOS>BOND
     1    29    28    1
     2    28    25    1
     3    28    30    1
     4    27    25    2
     5    26    25    2
     6    25    22    1
     7    22    21    2
     8    22    23    1
     9    21    20    1
    10    23    24    2
    11    20    19    2
    12    24    19    1
    13    19    16    1
    14     8     7    1
    15     8     9    2
    16     7     6    2
    17    16    17    1
    18    16    15   am
    19     9    10    1
    20    18    15    2
    21    15    14    1
    22     6     5    1
    23    10     5    1
    24    10     1    2
    25     5     4    2
    26    14    13    1
    27    12    11    2
    28    11    13    1
    29    11     1    1
    30     1     2    1
    31     4     3    1
    32     2     3    2
    33     3    31    1
    34    40    39    2
    35    40    37    1
    36    39    38    1
    37    31    37    2
    38    31    32    1
    39    37    35    1
    40    32    33    2
    41    38    36    2
    42    35    36    1
    43    35    34    2
    44    33    34    1
