@<TRIPOS>MOLECULE
74912_out_ligand_01.pdbqt
 38 41 0 0 0
SMALL
GASTEIGER

@<TRIPOS>ATOM
      1  N         24.0710  -23.1590   -9.5780 N.am    1  UNL1       -0.3270
      2  C         24.7930  -22.2830  -10.3700 C.2     1  UNL1        0.2310
      3  O         24.6840  -21.0590  -10.3780 O.2     1  UNL1       -0.2720
      4  H         24.5050  -24.0600   -9.4070 H       1  UNL1        0.1690
      5  C         22.9290  -22.8710   -8.8030 C.2     1  UNL1        0.0340
      6  C         21.9050  -23.8300   -8.7890 C.2     1  UNL1        0.0300
      7  C         20.7070  -23.5940   -8.1000 C.2     1  UNL1        0.0190
      8  C         20.5290  -22.4020   -7.3870 C.2     1  UNL1        0.0320
      9  C         21.5550  -21.4480   -7.3990 C.2     1  UNL1        0.0190
     10  C         22.7420  -21.6770   -8.1080 C.2     1  UNL1        0.0300
     11  C         19.2790  -22.0830   -6.6250 C.2     1  UNL1        0.2560
     12  N         18.2570  -23.0040   -6.7320 N.am    1  UNL1       -0.3210
     13  H         18.4160  -23.8610   -7.2510 H       1  UNL1        0.1690
     14  O         19.2600  -21.0620   -5.9450 O.2     1  UNL1       -0.2670
     15  C         16.9850  -22.9740   -6.1160 C.2     1  UNL1        0.0680
     16  C         15.8940  -22.2630   -6.6200 C.2     1  UNL1        0.0320
     17  C         14.6740  -22.2680   -5.9380 C.2     1  UNL1        0.0020
     18  C         14.5410  -22.9760   -4.7460 C.2     1  UNL1        0.0030
     19  C         15.6200  -23.6990   -4.2360 C.2     1  UNL1        0.0390
     20  C         16.8380  -23.7180   -4.9230 C.2     1  UNL1        0.0950
     21  O         17.9530  -24.4250   -4.5260 O.2     1  UNL1       -0.3540
     22  C         18.3210  -24.3350   -3.1530 C.3     1  UNL1        0.2100
     23  C         25.7710  -22.9860  -11.2970 C.3     1  UNL1        0.1840
     24  S         24.9810  -23.4720  -12.8510 S.3     1  UNL1       -0.0920
     25  C         23.6060  -22.4010  -12.8810 C.ar    1  UNL1        0.1600
     26  N         23.5700  -21.3080  -13.6070 N.ar    1  UNL1       -0.1330
     27  N         22.3990  -20.6060  -13.4150 N.ar    1  UNL1       -0.1220
     28  C         21.5580  -21.1960  -12.5760 C.ar    1  UNL1        0.1950
     29  S         22.1760  -22.7040  -12.0050 S.2     1  UNL1       -0.0220
     30  N         20.3600  -20.6300  -12.2830 N.pl3   1  UNL1       -0.3340
     31  H         20.3580  -19.6210  -12.4070 H       1  UNL1        0.1680
     32  C         19.1600  -21.1000  -11.7130 C.2     1  UNL1        0.0340
     33  C         17.9260  -20.4460  -11.7470 C.2     1  UNL1        0.0300
     34  C         16.7960  -20.9810  -11.1120 C.2     1  UNL1        0.0090
     35  C         16.8710  -22.1850  -10.4090 C.2     1  UNL1       -0.0620
     36  C         15.6480  -22.7510   -9.7540 C.3     1  UNL1        0.0480
     37  C         18.0940  -22.8520  -10.3580 C.2     1  UNL1        0.0090
     38  C         19.2180  -22.3100  -10.9960 C.2     1  UNL1        0.0300
@<TRIPOS>BOND
     1    26    27   ar
     2    26    25   ar
     3    27    28   ar
     4    25    24    1
     5    25    29   ar
     6    24    23    1
     7    28    30    1
     8    28    29   ar
     9    31    30    1
    10    30    32    1
    11    33    32    2
    12    33    34    1
    13    32    38    1
    14    23     2    1
    15    34    35    2
    16    38    37    2
    17    35    37    1
    18    35    36    1
    19     3     2    2
    20     2     1   am
    21     1     4    1
    22     1     5    1
    23     5     6    2
    24     5    10    1
    25     6     7    1
    26    10     9    2
    27     7     8    2
    28     9     8    1
    29     8    11    1
    30    13    12    1
    31    12    11   am
    32    12    15    1
    33    11    14    2
    34    16    15    2
    35    16    17    1
    36    15    20    1
    37    17    18    2
    38    20    21    1
    39    20    19    2
    40    18    19    1
    41    21    22    1
