@<TRIPOS>MOLECULE
74917_out_ligand_01.pdbqt
 38 41 0 0 0
SMALL
GASTEIGER

@<TRIPOS>ATOM
      1  C         20.8270  -22.1500   -9.7860 C.2     1  UNL1        0.0610
      2  C         20.2320  -22.2360   -8.5160 C.2     1  UNL1        0.0190
      3  C         20.9860  -22.0130   -7.3630 C.2     1  UNL1        0.0010
      4  C         22.3410  -21.7080   -7.4670 C.2     1  UNL1        0.0020
      5  C         22.9450  -21.6220   -8.7210 C.2     1  UNL1        0.0250
      6  C         22.1990  -21.8340   -9.8860 C.2     1  UNL1        0.0390
      7  C         20.0270  -22.3930  -11.0200 C.2     1  UNL1        0.2960
      8  O         20.4840  -22.2760  -12.1470 O.2     1  UNL1       -0.2590
      9  O         18.7580  -22.7510  -10.7180 O.3     1  UNL1       -0.3030
     10  C         17.8360  -21.6650  -10.5030 C.3     1  UNL1        0.2200
     11  C         17.3690  -21.0950  -11.8400 C.3     1  UNL1        0.0500
     12  C         16.6360  -22.2100   -9.7110 C.2     1  UNL1        0.2470
     13  O         15.5130  -22.3380  -10.1910 O.2     1  UNL1       -0.2710
     14  N         16.9150  -22.4950   -8.3890 N.am    1  UNL1       -0.3510
     15  H         17.8830  -22.4940   -8.0960 H       1  UNL1        0.1630
     16  C         15.9390  -23.1570   -7.5370 C.3     1  UNL1        0.1130
     17  C         15.8720  -24.6500   -7.8760 C.3     1  UNL1        0.0370
     18  C         16.2320  -22.8420   -6.0790 C.2     1  UNL1       -0.0360
     19  C         15.2470  -22.8140   -5.0820 C.2     1  UNL1        0.0090
     20  C         15.5720  -22.4760   -3.7650 C.2     1  UNL1        0.0010
     21  C         16.8870  -22.1750   -3.4220 C.2     1  UNL1        0.0000
     22  C         17.8830  -22.2210   -4.3930 C.2     1  UNL1        0.0010
     23  C         17.5580  -22.5560   -5.7090 C.2     1  UNL1        0.0090
     24  N         22.8610  -21.6990  -11.1560 N.pl3   1  UNL1       -0.1800
     25  H         22.6700  -20.8150  -11.6480 H       1  UNL1        0.1460
     26  S         24.5270  -22.0190  -11.2320 S.O2    1  UNL1        0.2460
     27  O         24.7720  -23.1640  -10.3820 O.2     1  UNL1       -0.2060
     28  O         25.2630  -20.7860  -11.0510 O.2     1  UNL1       -0.2060
     29  C         24.7440  -22.5450  -12.9150 C.2     1  UNL1        0.0770
     30  C         25.2030  -23.8410  -13.1770 C.2     1  UNL1        0.0280
     31  C         25.3420  -24.2690  -14.4960 C.2     1  UNL1        0.0410
     32  C         25.0320  -23.4000  -15.5420 C.2     1  UNL1        0.1020
     33  C         24.6190  -22.0900  -15.2720 C.2     1  UNL1        0.1030
     34  O         25.1640  -23.9000  -16.8110 O.2     1  UNL1       -0.3460
     35  C         24.4690  -21.6580  -13.9590 C.2     1  UNL1        0.0640
     36  O         24.3280  -21.1780  -16.2550 O.2     1  UNL1       -0.3460
     37  C         24.8330  -21.6030  -17.5270 C.3     1  UNL1        0.2020
     38  C         24.5040  -23.0660  -17.7710 C.3     1  UNL1        0.2020
@<TRIPOS>BOND
     1    38    37    1
     2    38    34    1
     3    37    36    1
     4    34    32    1
     5    36    33    1
     6    32    33    2
     7    32    31    1
     8    33    35    1
     9    31    30    2
    10    35    29    2
    11    30    29    1
    12    29    26    1
    13     8     7    2
    14    11    10    1
    15    25    24    1
    16    26    24    1
    17    26    28    2
    18    26    27    2
    19    24     6    1
    20     7     9    1
    21     7     1    1
    22     9    10    1
    23    10    12    1
    24    13    12    2
    25     6     1    2
    26     6     5    1
    27     1     2    1
    28    12    14   am
    29     5     4    2
    30     2     3    2
    31    14    15    1
    32    14    16    1
    33    17    16    1
    34    16    18    1
    35     4     3    1
    36    18    23    2
    37    18    19    1
    38    23    22    1
    39    19    20    2
    40    22    21    2
    41    20    21    1
