@<TRIPOS>MOLECULE
74941_out_ligand_01.pdbqt
 37 40 0 0 0
SMALL
GASTEIGER

@<TRIPOS>ATOM
      1  C         20.0790  -22.0960  -10.9640 C.2     1  UNL1        0.0390
      2  C         20.6420  -22.8150   -9.9010 C.2     1  UNL1        0.0200
      3  C         21.9820  -23.2120   -9.9520 C.2     1  UNL1        0.0310
      4  C         22.7650  -22.8970  -11.0640 C.2     1  UNL1        0.0420
      5  C         22.2150  -22.1710  -12.1200 C.2     1  UNL1        0.0310
      6  C         20.8750  -21.7740  -12.0720 C.2     1  UNL1        0.0200
      7  C         18.6570  -21.6650  -10.9790 C.2     1  UNL1        0.2930
      8  O         18.2830  -20.6000  -11.4420 O.2     1  UNL1       -0.2590
      9  O         17.8530  -22.6330  -10.4700 O.3     1  UNL1       -0.3080
     10  C         16.6750  -22.1400   -9.8170 C.3     1  UNL1        0.2820
     11  C         16.2980  -22.9460   -8.5660 C.2     1  UNL1        0.2460
     12  O         15.7850  -24.0560   -8.6510 O.2     1  UNL1       -0.2710
     13  N         16.5490  -22.2470   -7.3990 N.am    1  UNL1       -0.3240
     14  H         16.9200  -21.3060   -7.5150 H       1  UNL1        0.1690
     15  C         16.3960  -22.6710   -6.0610 C.2     1  UNL1        0.0580
     16  C         17.3910  -23.3490   -5.3510 C.2     1  UNL1        0.0550
     17  C         17.1700  -23.7240   -4.0230 C.2     1  UNL1        0.0360
     18 CL         18.4010  -24.5570   -3.1540 Cl      1  UNL1       -0.0840
     19  C         15.9650  -23.4290   -3.3870 C.2     1  UNL1        0.0260
     20  C         14.9640  -22.7540   -4.0820 C.2     1  UNL1        0.0280
     21  C         15.1800  -22.3790   -5.4100 C.2     1  UNL1        0.0600
     22 CL         13.9100  -21.5400   -6.2410 Cl      1  UNL1       -0.0820
     23  N         24.1240  -23.3040  -11.1520 N.pl3   1  UNL1       -0.2810
     24  H         24.4240  -24.1100  -10.6050 H       1  UNL1        0.1790
     25  S         25.3460  -22.1470  -11.2900 S.O2    1  UNL1        0.2630
     26  O         26.6190  -22.7640  -10.9820 O.2     1  UNL1       -0.2000
     27  O         24.8820  -20.9800  -10.5710 O.2     1  UNL1       -0.2000
     28  C         25.3270  -21.7440  -13.0200 C.2     1  UNL1        0.0820
     29  C         25.4570  -20.4120  -13.4300 C.2     1  UNL1        0.0280
     30  C         25.4490  -20.1110  -14.7930 C.2     1  UNL1        0.0410
     31  C         25.3190  -21.1330  -15.7320 C.2     1  UNL1        0.1020
     32  C         25.1520  -22.4580  -15.3120 C.2     1  UNL1        0.1030
     33  O         25.3510  -20.7620  -17.0520 O.2     1  UNL1       -0.3460
     34  C         25.1590  -22.7710  -13.9540 C.2     1  UNL1        0.0650
     35  O         24.9870  -23.5060  -16.1810 O.2     1  UNL1       -0.3460
     36  C         24.6390  -23.0430  -17.4920 C.3     1  UNL1        0.2020
     37  C         25.5390  -21.8930  -17.9110 C.3     1  UNL1        0.2020
@<TRIPOS>BOND
     1    37    36    1
     2    37    33    1
     3    36    35    1
     4    33    31    1
     5    35    32    1
     6    31    32    2
     7    31    30    1
     8    32    34    1
     9    30    29    2
    10    34    28    2
    11    29    28    1
    12    28    25    1
    13     5     6    1
    14     5     4    2
    15     6     1    2
    16     8     7    2
    17    25    23    1
    18    25    26    2
    19    25    27    2
    20    23     4    1
    21    23    24    1
    22     4     3    1
    23     7     1    1
    24     7     9    1
    25     1     2    1
    26     9    10    1
    27     3     2    2
    28    10    11    1
    29    12    11    2
    30    11    13   am
    31    14    13    1
    32    13    15    1
    33    22    21    1
    34    15    21    2
    35    15    16    1
    36    21    20    1
    37    16    17    2
    38    20    19    2
    39    17    19    1
    40    17    18    1
