@<TRIPOS>MOLECULE
74963_out_ligand_01.pdbqt
 36 39 0 0 0
SMALL
GASTEIGER

@<TRIPOS>ATOM
      1  C         23.3000  -21.7380  -10.6380 C.ar    1  UNL1        0.1770
      2  N         24.5900  -21.7130  -10.7590 N.ar    1  UNL1       -0.2230
      3  C         25.1380  -21.6060  -12.0400 C.ar    1  UNL1        0.0750
      4  C         26.5290  -21.6040  -12.1800 C.2     1  UNL1        0.0320
      5  C         27.1190  -21.5130  -13.4440 C.2     1  UNL1        0.0020
      6  C         26.3190  -21.4320  -14.5820 C.2     1  UNL1        0.0010
      7  C         24.9300  -21.4430  -14.4550 C.2     1  UNL1        0.0190
      8  C         24.3480  -21.5340  -13.1820 C.ar    1  UNL1        0.0610
      9  C         22.8850  -21.5300  -13.0130 C.ar    1  UNL1        0.2670
     10  O         22.1970  -21.4230  -14.0280 O.2     1  UNL1       -0.2670
     11  N         22.4010  -21.6090  -11.6990 N.ar    1  UNL1       -0.2560
     12  S         22.7030  -22.0370   -9.0090 S.3     1  UNL1       -0.0820
     13  C         22.4330  -23.8340   -9.0680 C.3     1  UNL1        0.1850
     14  C         21.0550  -24.2110   -8.5360 C.2     1  UNL1        0.2310
     15  N         20.4350  -23.1910   -7.8340 N.am    1  UNL1       -0.3270
     16  H         20.9180  -22.2920   -7.8510 H       1  UNL1        0.1690
     17  O         20.6010  -25.3390   -8.7190 O.2     1  UNL1       -0.2720
     18  C         19.1870  -23.2240   -7.1850 C.2     1  UNL1        0.0340
     19  C         18.2070  -24.1920   -7.4260 C.2     1  UNL1        0.0310
     20  C         16.9940  -24.1640   -6.7310 C.2     1  UNL1        0.0270
     21  C         16.7550  -23.1510   -5.8010 C.2     1  UNL1        0.0740
     22  C         17.7260  -22.1850   -5.5400 C.2     1  UNL1        0.0270
     23  C         18.9400  -22.2250   -6.2340 C.2     1  UNL1        0.0310
     24  S         15.2160  -23.1270   -4.9220 S.O2    1  UNL1        0.2390
     25  O         14.2320  -22.4690   -5.7450 O.2     1  UNL1       -0.2060
     26  O         14.9990  -24.4360   -4.3470 O.2     1  UNL1       -0.2060
     27  N         15.5800  -22.1170   -3.6260 N.3     1  UNL1       -0.2250
     28  H         15.6740  -22.6810   -2.7800 H       1  UNL1        0.1360
     29  H         16.3920  -21.5230   -3.7860 H       1  UNL1        0.1360
     30  C         20.9800  -21.4910  -11.5210 C.2     1  UNL1        0.0450
     31  C         20.1860  -22.6400  -11.3510 C.2     1  UNL1        0.0330
     32  C         18.8010  -22.5340  -11.1990 C.2     1  UNL1        0.0440
     33  C         18.2010  -21.2830  -11.2300 C.2     1  UNL1        0.1160
     34  F         16.8750  -21.1820  -11.0840 F       1  UNL1       -0.2060
     35  C         18.9580  -20.1340  -11.4200 C.2     1  UNL1        0.0440
     36  C         20.3440  -20.2380  -11.5730 C.2     1  UNL1        0.0330
@<TRIPOS>BOND
     1     6     7    2
     2     6     5    1
     3     7     8    1
     4    10     9    2
     5     5     4    2
     6     8     9   ar
     7     8     3   ar
     8     9    11   ar
     9     4     3    1
    10     3     2   ar
    11    11    30    1
    12    11     1   ar
    13    36    30    2
    14    36    35    1
    15    30    31    1
    16    35    33    2
    17    31    32    2
    18    33    32    1
    19    33    34    1
    20     2     1   ar
    21     1    12    1
    22    13    12    1
    23    13    14    1
    24    17    14    2
    25    14    15   am
    26    16    15    1
    27    15    18    1
    28    19    18    2
    29    19    20    1
    30    18    23    1
    31    20    21    2
    32    23    22    2
    33    21    22    1
    34    21    24    1
    35    25    24    2
    36    24    26    2
    37    24    27    1
    38    29    27    1
    39    27    28    1
