@<TRIPOS>MOLECULE
74970_out_ligand_01.pdbqt
 29 31 0 0 0
SMALL
GASTEIGER

@<TRIPOS>ATOM
      1  C         20.1040  -22.0840  -10.8560 C.2     1  UNL1        0.0320
      2  C         19.8310  -20.8990  -11.5540 C.2     1  UNL1        0.0170
      3  C         18.5100  -20.4850  -11.7420 C.2     1  UNL1        0.0020
      4  C         17.4590  -21.2480  -11.2270 C.2     1  UNL1        0.0090
      5  C         17.7170  -22.4300  -10.5140 C.2     1  UNL1       -0.0400
      6  C         19.0480  -22.8310  -10.3180 C.2     1  UNL1        0.0260
      7  C         16.5890  -23.2320   -9.9220 C.3     1  UNL1        0.1610
      8  N         16.3820  -22.8700   -8.5390 N.am    1  UNL1       -0.3530
      9  C         16.0560  -23.8000   -7.5800 C.2     1  UNL1        0.2550
     10  O         15.7740  -24.9630   -7.8500 O.2     1  UNL1       -0.2680
     11  H         16.6730  -21.9430   -8.2550 H       1  UNL1        0.1630
     12  C         16.0600  -23.3520   -6.1580 C.2     1  UNL1        0.0710
     13  C         17.1450  -22.5840   -5.7110 C.2     1  UNL1        0.0390
     14  C         17.1860  -22.1330   -4.3870 C.2     1  UNL1        0.0120
     15 BR         18.6580  -21.0970   -3.7980 Br      1  UNL1       -0.0510
     16  C         16.1560  -22.4420   -3.4960 C.2     1  UNL1        0.0220
     17  C         15.0780  -23.2060   -3.9330 C.2     1  UNL1        0.0440
     18  C         15.0330  -23.6550   -5.2550 C.2     1  UNL1        0.1320
     19  F         13.9750  -24.3880   -5.6330 F       1  UNL1       -0.2050
     20  C         21.5000  -22.5790  -10.6600 C.2     1  UNL1        0.2560
     21  O         21.6900  -23.5100   -9.8770 O.2     1  UNL1       -0.2670
     22  N         22.4470  -21.9370  -11.4420 N.am    1  UNL1       -0.3230
     23  H         22.1100  -21.2430  -12.0930 H       1  UNL1        0.1690
     24  C         23.8310  -22.2020  -11.5050 C.2     1  UNL1        0.0350
     25  C         24.7940  -21.5070  -10.7690 C.2     1  UNL1        0.0290
     26  C         26.1500  -21.8390  -10.8810 C.2     1  UNL1        0.0020
     27  C         26.5530  -22.8680  -11.7320 C.2     1  UNL1        0.0000
     28  C         25.5980  -23.5660  -12.4750 C.2     1  UNL1        0.0020
     29  C         24.2450  -23.2340  -12.3610 C.2     1  UNL1        0.0290
@<TRIPOS>BOND
     1    28    29    1
     2    28    27    2
     3    29    24    2
     4    23    22    1
     5     3     2    1
     6     3     4    2
     7    27    26    1
     8     2     1    2
     9    24    22    1
    10    24    25    1
    11    22    20   am
    12     4     5    1
    13    26    25    2
    14     1    20    1
    15     1     6    1
    16    20    21    2
    17     5     6    2
    18     5     7    1
    19     7     8    1
    20     8    11    1
    21     8     9   am
    22    10     9    2
    23     9    12    1
    24    12    13    2
    25    12    18    1
    26    13    14    1
    27    19    18    1
    28    18    17    2
    29    14    15    1
    30    14    16    2
    31    17    16    1
