@<TRIPOS>MOLECULE
74983_out_ligand_01.pdbqt
 34 36 0 0 0
SMALL
GASTEIGER

@<TRIPOS>ATOM
      1  C         18.0330  -22.5370   -8.7520 C.2     1  UNL1        0.2940
      2  O         17.0280  -21.8700   -8.5950 O.2     1  UNL1       -0.2590
      3  C         19.0500  -22.9070   -7.7120 C.2     1  UNL1        0.0500
      4  C         18.7310  -23.1890   -6.4320 C.2     1  UNL1        0.0320
      5  C         17.3830  -23.2120   -5.8530 C.2     1  UNL1       -0.0020
      6  C         16.4750  -24.1730   -6.3190 C.2     1  UNL1        0.0140
      7  C         15.1800  -24.2220   -5.8060 C.2     1  UNL1        0.0010
      8  C         14.7880  -23.3130   -4.8270 C.2     1  UNL1        0.0030
      9  C         15.6880  -22.3530   -4.3540 C.2     1  UNL1        0.0370
     10  C         16.9930  -22.2980   -4.8560 C.2     1  UNL1        0.0780
     11  O         17.9350  -21.3790   -4.4640 O.2     1  UNL1       -0.3550
     12  C         18.4650  -21.5430   -3.1540 C.3     1  UNL1        0.2100
     13  C         20.4820  -22.9820   -8.0690 C.2     1  UNL1       -0.0200
     14  C         21.3220  -21.8800   -7.8690 C.2     1  UNL1        0.0120
     15  C         22.6650  -21.9430   -8.2400 C.2     1  UNL1        0.0010
     16  C         23.1760  -23.1030   -8.8150 C.2     1  UNL1        0.0000
     17  C         22.3470  -24.2080   -9.0150 C.2     1  UNL1        0.0010
     18  C         21.0030  -24.1480   -8.6410 C.2     1  UNL1        0.0120
     19  O         18.4340  -23.0510   -9.9440 O.3     1  UNL1       -0.3080
     20  C         17.9240  -22.3760  -11.1000 C.3     1  UNL1        0.2820
     21  C         19.0260  -21.4960  -11.6930 C.2     1  UNL1        0.2490
     22  O         18.7650  -20.4020  -12.1800 O.2     1  UNL1       -0.2710
     23  N         20.2910  -22.0360  -11.5190 N.am    1  UNL1       -0.2770
     24  C         21.4240  -21.6610  -12.2040 C.2     1  UNL1        0.3230
     25  H         20.2890  -22.9920  -11.1900 H       1  UNL1        0.1730
     26  O         21.5270  -20.7030  -12.9520 O.2     1  UNL1       -0.2470
     27  N         22.4710  -22.5170  -11.9160 N.am    1  UNL1       -0.3380
     28  H         22.4010  -23.0210  -11.0430 H       1  UNL1        0.1640
     29  C         23.8270  -22.3130  -12.4190 C.3     1  UNL1        0.0860
     30  C         24.6580  -21.3350  -11.5660 C.3     1  UNL1        0.0250
     31  C         25.9130  -21.9730  -10.9710 C.3     1  UNL1        0.0020
     32  C         26.7820  -22.6460  -12.0290 C.3     1  UNL1        0.0000
     33  C         25.9910  -23.4050  -13.0960 C.3     1  UNL1        0.0020
     34  C         24.5420  -23.6440  -12.6930 C.3     1  UNL1        0.0250
@<TRIPOS>BOND
     1    33    34    1
     2    33    32    1
     3    26    24    2
     4    34    29    1
     5    29    27    1
     6    29    30    1
     7    24    27   am
     8    24    23   am
     9    22    21    2
    10    32    31    1
    11    27    28    1
    12    21    23   am
    13    21    20    1
    14    30    31    1
    15    23    25    1
    16    20    19    1
    17    19     1    1
    18    17    16    2
    19    17    18    1
    20    16    15    1
    21     1     2    2
    22     1     3    1
    23    18    13    2
    24    15    14    2
    25    13    14    1
    26    13     3    1
    27     3     4    2
    28     4     5    1
    29     6     5    2
    30     6     7    1
    31     5    10    1
    32     7     8    2
    33    10    11    1
    34    10     9    2
    35     8     9    1
    36    11    12    1
