@<TRIPOS>MOLECULE
74990_out_ligand_01.pdbqt
 34 36 0 0 0
SMALL
GASTEIGER

@<TRIPOS>ATOM
      1  C         21.8250  -22.9500  -10.5030 C.3     1  UNL1        0.2570
      2  O         21.8020  -23.0260   -9.0620 O.3     1  UNL1       -0.2970
      3  C         20.9300  -23.9150   -8.5350 C.2     1  UNL1        0.2940
      4  O         20.9120  -25.1200   -8.7230 O.2     1  UNL1       -0.2590
      5  C         19.9840  -23.2160   -7.6280 C.2     1  UNL1        0.0410
      6  C         20.3190  -22.0120   -6.9890 C.2     1  UNL1        0.0170
      7  C         19.3980  -21.3820   -6.1480 C.2     1  UNL1        0.0030
      8  C         18.1370  -21.9430   -5.9460 C.2     1  UNL1        0.0250
      9  C         17.8020  -23.1340   -6.5980 C.2     1  UNL1        0.0800
     10  C         18.7180  -23.7780   -7.4330 C.2     1  UNL1        0.0420
     11  S         16.2040  -23.8680   -6.3440 S.O2    1  UNL1        0.2580
     12  O         16.1520  -24.3750   -4.9910 O.2     1  UNL1       -0.2010
     13  O         15.9280  -24.7050   -7.4880 O.2     1  UNL1       -0.2010
     14  N         15.1830  -22.5500   -6.4460 N.3     1  UNL1       -0.3200
     15  C         14.4360  -22.0940   -5.2880 C.3     1  UNL1        0.1590
     16  H         15.3530  -21.9180   -7.2270 H       1  UNL1        0.1710
     17  C         23.1010  -22.2110  -10.9800 C.2     1  UNL1        0.2560
     18  O         23.6190  -21.3230  -10.3050 O.2     1  UNL1       -0.2700
     19  N         23.5530  -22.6760  -12.2080 N.am    1  UNL1       -0.3240
     20  H         22.9750  -23.4040  -12.6110 H       1  UNL1        0.1690
     21  C         24.6820  -22.2710  -12.9520 C.2     1  UNL1        0.0410
     22  C         24.5820  -21.4460  -14.0790 C.2     1  UNL1        0.0370
     23  C         25.7200  -21.0470  -14.7960 C.2     1  UNL1       -0.0600
     24  C         25.5780  -20.1890  -16.0180 C.3     1  UNL1        0.0480
     25  C         26.9740  -21.5040  -14.3910 C.2     1  UNL1        0.0070
     26  C         27.0920  -22.3260  -13.2710 C.2     1  UNL1        0.0090
     27  C         25.9570  -22.7160  -12.5400 C.2     1  UNL1       -0.0350
     28  C         26.1540  -23.6080  -11.3430 C.3     1  UNL1        0.0500
     29  C         20.5480  -22.2530  -10.9350 C.2     1  UNL1       -0.0200
     30  C         20.5510  -20.9210  -11.3830 C.2     1  UNL1        0.0100
     31  C         19.3580  -20.2910  -11.7430 C.2     1  UNL1        0.0010
     32  C         18.1490  -20.9770  -11.6490 C.2     1  UNL1        0.0000
     33  C         18.1290  -22.2930  -11.1930 C.2     1  UNL1        0.0010
     34  C         19.3210  -22.9270  -10.8350 C.2     1  UNL1        0.0100
@<TRIPOS>BOND
     1    24    23    1
     2    23    25    2
     3    23    22    1
     4    25    26    1
     5    22    21    2
     6    26    27    2
     7    21    27    1
     8    21    19    1
     9    20    19    1
    10    27    28    1
    11    19    17   am
    12    31    32    2
    13    31    30    1
    14    32    33    1
    15    30    29    2
    16    33    34    2
    17    17     1    1
    18    17    18    2
    19    29    34    1
    20    29     1    1
    21     1     2    1
    22     2     3    1
    23     4     3    2
    24     3     5    1
    25     5    10    2
    26     5     6    1
    27    13    11    2
    28    10     9    1
    29    16    14    1
    30     6     7    2
    31     9    11    1
    32     9     8    2
    33    14    11    1
    34    14    15    1
    35    11    12    2
    36     7     8    1
