@<TRIPOS>MOLECULE
749_out_ligand_01.pdbqt
 28 31 0 0 0
SMALL
GASTEIGER

@<TRIPOS>ATOM
      1  N         22.5820  -23.3880  -10.9890 N.pl3   1  UNL1       -0.1800
      2  H         22.8640  -24.3790  -11.0360 H       1  UNL1        0.1460
      3  C         23.0230  -22.6160  -12.1160 C.2     1  UNL1        0.0380
      4  C         24.1910  -23.0060  -12.7770 C.2     1  UNL1        0.0250
      5  C         24.6070  -22.3310  -13.9270 C.2     1  UNL1        0.0020
      6  C         23.8550  -21.2660  -14.4240 C.2     1  UNL1        0.0010
      7  C         22.6820  -20.8740  -13.7760 C.2     1  UNL1        0.0190
      8  C         22.2550  -21.5550  -12.6270 C.2     1  UNL1        0.0540
      9  C         21.0210  -21.1330  -11.9180 C.2     1  UNL1        0.2530
     10  O         20.9070  -19.9670  -11.5510 O.2     1  UNL1       -0.2680
     11  N         20.0840  -22.1220  -11.6880 N.am    1  UNL1       -0.3520
     12  H         20.3700  -23.0870  -11.7990 H       1  UNL1        0.1630
     13  C         18.8990  -21.8690  -10.9310 C.3     1  UNL1        0.0840
     14  C         17.7710  -22.8630  -10.9240 C.3     1  UNL1        0.0270
     15  C         17.6060  -21.5460  -11.6240 C.3     1  UNL1        0.0270
     16  S         23.0310  -22.7940   -9.4610 S.O2    1  UNL1        0.2450
     17  O         23.9720  -23.7390   -8.8980 O.2     1  UNL1       -0.2060
     18  O         23.3520  -21.3860   -9.5710 O.2     1  UNL1       -0.2060
     19  C         21.5210  -22.9620   -8.5390 C.2     1  UNL1        0.0750
     20  C         20.7120  -24.0780   -8.7590 C.2     1  UNL1        0.0260
     21  C         19.5230  -24.2130   -8.0420 C.2     1  UNL1        0.0140
     22  C         19.1390  -23.2410   -7.1010 C.2     1  UNL1       -0.0260
     23  C         17.9430  -23.3630   -6.3750 C.2     1  UNL1        0.0120
     24  C         19.9720  -22.1190   -6.8750 C.2     1  UNL1       -0.0250
     25  C         17.5730  -22.3940   -5.4410 C.2     1  UNL1        0.0010
     26  C         18.3940  -21.2920   -5.2190 C.2     1  UNL1        0.0010
     27  C         19.5860  -21.1550   -5.9310 C.2     1  UNL1        0.0120
     28  C         21.1670  -21.9920   -7.5980 C.2     1  UNL1        0.0370
@<TRIPOS>BOND
     1     6     5    2
     2     6     7    1
     3     5     4    1
     4     7     8    2
     5     4     3    2
     6     8     3    1
     7     8     9    1
     8     3     1    1
     9     9    11   am
    10     9    10    2
    11    12    11    1
    12    11    13    1
    13    15    13    1
    14    15    14    1
    15     2     1    1
    16     1    16    1
    17    13    14    1
    18    18    16    2
    19    16    17    2
    20    16    19    1
    21    20    19    2
    22    20    21    1
    23    19    28    1
    24    21    22    2
    25    28    24    2
    26    22    24    1
    27    22    23    1
    28    24    27    1
    29    23    25    2
    30    27    26    2
    31    25    26    1
