@<TRIPOS>MOLECULE
75011_out_ligand_01.pdbqt
 39 43 0 0 0
SMALL
GASTEIGER

@<TRIPOS>ATOM
      1  N         23.5860  -23.2020  -10.7610 N.am    1  UNL1       -0.3230
      2  C         23.1040  -22.4480   -9.7070 C.2     1  UNL1        0.2560
      3  O         23.6010  -21.4310   -9.2410 O.2     1  UNL1       -0.2670
      4  H         23.1620  -24.1080  -10.9150 H       1  UNL1        0.1690
      5  C         21.8700  -22.9810   -9.0640 C.2     1  UNL1        0.0330
      6  C         21.3930  -24.2810   -9.3620 C.2     1  UNL1        0.0180
      7  C         20.2240  -24.7650   -8.7640 C.2     1  UNL1        0.0190
      8  C         19.5610  -23.9230   -7.8890 C.2     1  UNL1        0.0480
      9  C         20.0160  -22.6530   -7.6100 C.2     1  UNL1        0.0490
     10  C         18.3370  -24.1340   -7.1230 C.2     1  UNL1        0.2660
     11  C         21.1680  -22.1470   -8.1820 C.2     1  UNL1        0.0350
     12  C         19.0970  -22.0550   -6.6460 C.2     1  UNL1        0.2660
     13  O         19.3520  -20.9870   -6.1220 O.2     1  UNL1       -0.2670
     14  N         18.0780  -22.9610   -6.4450 N.am    1  UNL1       -0.2430
     15  O         17.7380  -25.1950   -7.1740 O.2     1  UNL1       -0.2670
     16  C         16.9910  -22.7820   -5.5390 C.2     1  UNL1        0.0520
     17  C         15.8070  -22.1810   -6.0160 C.2     1  UNL1        0.0370
     18  C         14.6680  -22.0270   -5.2110 C.2     1  UNL1       -0.0600
     19  C         13.4370  -21.3660   -5.7600 C.3     1  UNL1        0.0480
     20  C         14.7160  -22.4550   -3.8890 C.2     1  UNL1        0.0070
     21  C         15.8830  -23.0230   -3.3830 C.2     1  UNL1        0.0090
     22  C         17.0360  -23.1710   -4.1830 C.2     1  UNL1       -0.0350
     23  C         18.2640  -23.6930   -3.4830 C.3     1  UNL1        0.0500
     24  C         24.7020  -22.9030  -11.5740 C.2     1  UNL1        0.0350
     25  C         25.9680  -23.2130  -11.0620 C.2     1  UNL1        0.0290
     26  C         27.1190  -22.9540  -11.8080 C.2     1  UNL1        0.0030
     27  C         27.0120  -22.3790  -13.0720 C.2     1  UNL1        0.0150
     28  C         25.7550  -22.0600  -13.5980 C.2     1  UNL1        0.0120
     29  C         24.6010  -22.3410  -12.8490 C.2     1  UNL1        0.0440
     30  C         25.6830  -21.4520  -14.9560 C.2     1  UNL1        0.1410
     31  N         24.9590  -22.1230  -15.9120 N.am    1  UNL1       -0.3070
     32  C         24.7980  -21.6430  -17.1760 C.2     1  UNL1        0.2480
     33  H         24.4500  -22.9720  -15.7090 H       1  UNL1        0.1700
     34  C         25.4930  -20.3830  -17.4610 C.2     1  UNL1        0.1010
     35  O         24.1190  -22.2060  -18.0270 O.2     1  UNL1       -0.2680
     36  C         26.1860  -19.8050  -16.4690 C.2     1  UNL1        0.0420
     37  N         26.2760  -20.3240  -15.2000 N.2     1  UNL1       -0.2350
     38  C         26.9060  -18.4950  -16.6910 C.3     1  UNL1        0.0550
     39  C         26.7390  -17.5420  -15.5160 C.3     1  UNL1        0.0110
@<TRIPOS>BOND
     1    35    32    2
     2    34    32    1
     3    34    36    2
     4    32    31   am
     5    38    36    1
     6    38    39    1
     7    36    37    1
     8    31    33    1
     9    31    30    1
    10    37    30    2
    11    30    28    1
    12    28    27    2
    13    28    29    1
    14    27    26    1
    15    29    24    2
    16    26    25    2
    17    24    25    1
    18    24     1    1
    19     4     1    1
    20     1     2   am
    21     2     3    2
    22     2     5    1
    23     6     5    2
    24     6     7    1
    25     5    11    1
    26     7     8    2
    27    11     9    2
    28     8     9    1
    29     8    10    1
    30     9    12    1
    31    15    10    2
    32    10    14   am
    33    12    14   am
    34    12    13    2
    35    14    16    1
    36    17    16    2
    37    17    18    1
    38    19    18    1
    39    16    22    1
    40    18    20    2
    41    22    23    1
    42    22    21    2
    43    20    21    1
