@<TRIPOS>MOLECULE
75019_out_ligand_01.pdbqt
 30 32 0 0 0
SMALL
GASTEIGER

@<TRIPOS>ATOM
      1  N         18.2350  -23.1980   -9.7610 N.am    1  UNL1       -0.3250
      2  C         17.1720  -22.3730  -10.0960 C.2     1  UNL1        0.2460
      3  O         17.2470  -21.2680  -10.6260 O.2     1  UNL1       -0.2710
      4  H         17.9820  -24.0620   -9.2940 H       1  UNL1        0.1690
      5  C         15.8160  -22.9560   -9.6790 C.3     1  UNL1        0.2820
      6  O         15.5320  -22.7960   -8.2850 O.3     1  UNL1       -0.3080
      7  C         15.9300  -23.8370   -7.5090 C.2     1  UNL1        0.2940
      8  O         16.2290  -24.9540   -7.8820 O.2     1  UNL1       -0.2590
      9  C         16.0580  -23.3370   -6.1260 C.2     1  UNL1        0.0500
     10  C         15.0300  -23.6490   -5.2250 C.2     1  UNL1        0.0180
     11  C         15.0930  -23.1760   -3.9200 C.2     1  UNL1        0.0020
     12  C         16.1720  -22.3900   -3.5190 C.2     1  UNL1        0.0120
     13  C         17.2090  -22.0650   -4.4120 C.2     1  UNL1       -0.0250
     14  C         18.2810  -21.2610   -3.9900 C.2     1  UNL1        0.0120
     15  C         17.1710  -22.5450   -5.7430 C.2     1  UNL1       -0.0100
     16  C         19.3140  -20.9230   -4.8630 C.2     1  UNL1        0.0010
     17  C         19.2930  -21.3890   -6.1700 C.2     1  UNL1        0.0010
     18  C         18.2370  -22.1900   -6.6060 C.2     1  UNL1        0.0130
     19  C         19.6030  -23.0020  -10.0220 C.2     1  UNL1        0.0340
     20  C         20.5120  -23.6820   -9.1980 C.2     1  UNL1        0.0310
     21  C         21.8890  -23.5550   -9.3980 C.2     1  UNL1        0.0270
     22  C         22.3600  -22.7420  -10.4280 C.2     1  UNL1        0.0740
     23  C         21.4700  -22.0460  -11.2460 C.2     1  UNL1        0.0270
     24  C         20.0920  -22.1830  -11.0440 C.2     1  UNL1        0.0310
     25  S         24.1060  -22.5710  -10.6860 S.O2    1  UNL1        0.2390
     26  O         24.4970  -21.2320  -10.3120 O.2     1  UNL1       -0.2060
     27  O         24.4400  -23.1520  -11.9650 O.2     1  UNL1       -0.2060
     28  N         24.7200  -23.6290   -9.5270 N.3     1  UNL1       -0.2250
     29  H         24.2970  -23.4070   -8.6250 H       1  UNL1        0.1360
     30  H         25.7380  -23.6250   -9.4780 H       1  UNL1        0.1360
@<TRIPOS>BOND
     1    27    25    2
     2    23    24    1
     3    23    22    2
     4    24    19    2
     5    25    22    1
     6    25    26    2
     7    25    28    1
     8     3     2    2
     9    22    21    1
    10     2     1   am
    11     2     5    1
    12    19     1    1
    13    19    20    1
    14     1     4    1
    15     5     6    1
    16    28    30    1
    17    28    29    1
    18    21    20    2
    19     6     7    1
    20     8     7    2
    21     7     9    1
    22    18    17    2
    23    18    15    1
    24    17    16    1
    25     9    15    2
    26     9    10    1
    27    15    13    1
    28    10    11    2
    29    16    14    2
    30    13    14    1
    31    13    12    2
    32    11    12    1
