@<TRIPOS>MOLECULE
75042_out_ligand_01.pdbqt
 38 40 0 0 0
SMALL
GASTEIGER

@<TRIPOS>ATOM
      1  N         24.3230  -22.9970  -11.2210 N.am    1  UNL1       -0.3250
      2  C         23.7970  -22.4320  -10.0670 C.2     1  UNL1        0.2460
      3  O         23.8000  -21.2390   -9.7760 O.2     1  UNL1       -0.2710
      4  H         24.2480  -24.0090  -11.2990 H       1  UNL1        0.1690
      5  C         23.2320  -23.4740   -9.0920 C.3     1  UNL1        0.2820
      6  O         21.9430  -23.1390   -8.5700 O.3     1  UNL1       -0.3080
      7  C         20.9190  -23.8810   -9.0670 C.2     1  UNL1        0.2960
      8  O         20.8370  -25.0940   -8.9850 O.2     1  UNL1       -0.2590
      9  C         19.8700  -23.0250   -9.6980 C.2     1  UNL1        0.0660
     10  C         20.2510  -22.3640  -10.8830 C.2     1  UNL1        0.0200
     11  C         19.3350  -21.5910  -11.5950 C.2     1  UNL1        0.0010
     12  C         18.0280  -21.4790  -11.1370 C.2     1  UNL1        0.0020
     13  C         17.6370  -22.1370   -9.9690 C.2     1  UNL1        0.0300
     14  C         18.5440  -22.9090   -9.2210 C.2     1  UNL1        0.0490
     15  N         18.1020  -23.5790   -8.0610 N.pl3   1  UNL1       -0.3550
     16  H         17.6260  -24.4570   -8.2620 H       1  UNL1        0.1660
     17  C         18.0410  -23.1870   -6.7140 C.2     1  UNL1        0.0320
     18  C         17.4240  -23.9540   -5.7220 C.2     1  UNL1        0.0290
     19  C         17.3910  -23.5160   -4.3930 C.2     1  UNL1        0.0020
     20  C         17.9520  -22.2930   -4.0440 C.2     1  UNL1        0.0000
     21  C         18.5480  -21.5050   -5.0250 C.2     1  UNL1        0.0020
     22  C         18.5890  -21.9490   -6.3480 C.2     1  UNL1        0.0290
     23  C         24.8740  -22.3300  -12.3330 C.2     1  UNL1        0.0360
     24  C         24.7750  -22.9690  -13.5740 C.2     1  UNL1        0.0460
     25  C         25.2770  -22.3690  -14.7390 C.2     1  UNL1        0.0350
     26  C         25.8990  -21.1230  -14.6520 C.2     1  UNL1        0.0340
     27  C         25.9980  -20.4670  -13.4170 C.2     1  UNL1        0.0350
     28  C         25.4940  -21.0810  -12.2610 C.2     1  UNL1        0.0460
     29  C         25.1190  -23.0970  -16.0290 C.2     1  UNL1        0.2490
     30  N         23.9250  -22.9960  -16.6860 N.am    1  UNL1       -0.3660
     31  H         23.0860  -22.6200  -16.2700 H       1  UNL1        0.1590
     32  H         23.8130  -23.5780  -17.5050 H       1  UNL1        0.1590
     33  O         26.0140  -23.7970  -16.4860 O.2     1  UNL1       -0.2680
     34  C         26.6550  -19.1300  -13.3970 C.2     1  UNL1        0.2490
     35  N         26.8890  -18.5360  -12.1900 N.am    1  UNL1       -0.3660
     36  H         26.5150  -18.8680  -11.3110 H       1  UNL1        0.1590
     37  H         27.2490  -17.5910  -12.2130 H       1  UNL1        0.1590
     38  O         26.9490  -18.5530  -14.4390 O.2     1  UNL1       -0.2680
@<TRIPOS>BOND
     1    32    30    1
     2    30    31    1
     3    30    29   am
     4    33    29    2
     5    29    25    1
     6    25    26    2
     7    25    24    1
     8    26    27    1
     9    38    34    2
    10    24    23    2
    11    27    34    1
    12    27    28    2
    13    34    35   am
    14    23    28    1
    15    23     1    1
    16    37    35    1
    17    35    36    1
    18    11    12    2
    19    11    10    1
    20     4     1    1
    21     1     2   am
    22    12    13    1
    23    10     9    2
    24     2     3    2
    25     2     5    1
    26    13    14    2
    27     9    14    1
    28     9     7    1
    29    14    15    1
    30     5     6    1
    31     7     8    2
    32     7     6    1
    33    16    15    1
    34    15    17    1
    35    17    22    2
    36    17    18    1
    37    22    21    1
    38    18    19    2
    39    21    20    2
    40    19    20    1
