@<TRIPOS>MOLECULE
75072_out_ligand_01.pdbqt
 35 38 0 0 0
SMALL
GASTEIGER

@<TRIPOS>ATOM
      1  S         22.7380  -22.0630   -9.0510 S.3     1  UNL1       -0.0830
      2  C         22.4160  -23.8400   -9.2310 C.3     1  UNL1        0.1850
      3  C         21.0930  -24.2310   -8.5890 C.2     1  UNL1        0.2310
      4  N         20.5100  -23.2120   -7.8680 N.am    1  UNL1       -0.3270
      5  H         21.0620  -22.3530   -7.7920 H       1  UNL1        0.1690
      6  O         20.6240  -25.3550   -8.7620 O.2     1  UNL1       -0.2720
      7  C         19.2840  -23.2240   -7.1750 C.2     1  UNL1        0.0340
      8  C         18.3620  -24.2700   -7.2410 C.2     1  UNL1        0.0310
      9  C         17.1520  -24.1990   -6.5400 C.2     1  UNL1        0.0270
     10  C         16.8680  -23.0700   -5.7710 C.2     1  UNL1        0.0740
     11  C         17.7890  -22.0260   -5.6730 C.2     1  UNL1        0.0270
     12  C         18.9930  -22.1070   -6.3800 C.2     1  UNL1        0.0310
     13  S         15.3310  -22.9710   -4.8900 S.O2    1  UNL1        0.2390
     14  O         14.9310  -24.3040   -4.5080 O.2     1  UNL1       -0.2060
     15  O         14.4540  -22.0670   -5.5940 O.2     1  UNL1       -0.2060
     16  N         15.8020  -22.1550   -3.4920 N.3     1  UNL1       -0.2250
     17  H         16.4000  -21.3500   -3.6790 H       1  UNL1        0.1360
     18  H         14.9670  -21.8960   -2.9660 H       1  UNL1        0.1360
     19  C         23.6240  -21.7220  -10.5020 C.ar    1  UNL1        0.1700
     20  N         24.8910  -21.3720  -10.5300 N.ar    1  UNL1       -0.2220
     21  C         25.1800  -21.1910  -11.8590 C.ar    1  UNL1        0.0860
     22  C         26.3870  -20.8000  -12.4580 C.2     1  UNL1        0.0340
     23  C         24.0690  -21.4620  -12.6570 C.ar    1  UNL1        0.0650
     24  C         26.4430  -20.6930  -13.8520 C.2     1  UNL1        0.0020
     25  C         25.3230  -20.9720  -14.6360 C.2     1  UNL1        0.0020
     26  C         24.1090  -21.3630  -14.0540 C.2     1  UNL1        0.0320
     27  N         23.0840  -21.8240  -11.7590 N.ar    1  UNL1       -0.3240
     28  C         21.7320  -22.2280  -12.1110 C.3     1  UNL1        0.1360
     29  C         20.7430  -21.0590  -12.1770 C.3     1  UNL1        0.0580
     30  C         19.3860  -21.3990  -11.6100 C.2     1  UNL1       -0.0570
     31  C         18.3370  -20.4710  -11.6640 C.2     1  UNL1        0.0070
     32  C         17.0990  -20.7710  -11.0960 C.2     1  UNL1        0.0010
     33  C         16.8960  -21.9990  -10.4720 C.2     1  UNL1        0.0000
     34  C         17.9300  -22.9340  -10.4220 C.2     1  UNL1        0.0010
     35  C         19.1690  -22.6350  -10.9850 C.2     1  UNL1        0.0070
@<TRIPOS>BOND
     1    25    26    2
     2    25    24    1
     3    26    23    1
     4    24    22    2
     5    23    21   ar
     6    23    27   ar
     7    22    21    1
     8    29    28    1
     9    29    30    1
    10    28    27    1
    11    21    20   ar
    12    27    19   ar
    13    31    30    2
    14    31    32    1
    15    30    35    1
    16    32    33    2
    17    35    34    2
    18    20    19   ar
    19    19     1    1
    20    33    34    1
    21     2     1    1
    22     2     3    1
    23     6     3    2
    24     3     4   am
    25     4     5    1
    26     4     7    1
    27     8     7    2
    28     8     9    1
    29     7    12    1
    30     9    10    2
    31    12    11    2
    32    10    11    1
    33    10    13    1
    34    15    13    2
    35    13    14    2
    36    13    16    1
    37    17    16    1
    38    16    18    1
