@<TRIPOS>MOLECULE
75143_out_ligand_01.pdbqt
 35 38 0 0 0
SMALL
GASTEIGER

@<TRIPOS>ATOM
      1  C         19.7640  -22.2780   -9.8690 C.2     1  UNL1        0.0120
      2  C         19.3690  -21.6210  -11.0420 C.2     1  UNL1        0.0150
      3  C         20.2750  -21.4770  -12.0910 C.2     1  UNL1        0.0030
      4  C         21.5710  -21.9850  -11.9650 C.2     1  UNL1        0.0290
      5  C         21.9840  -22.6270  -10.7890 C.2     1  UNL1        0.0350
      6  C         21.0760  -22.7640   -9.7380 C.2     1  UNL1        0.0440
      7  N         23.3000  -23.1300  -10.7690 N.am    1  UNL1       -0.3270
      8  C         24.4710  -22.4410  -10.5120 C.2     1  UNL1        0.2310
      9  O         24.5750  -21.2320  -10.3470 O.2     1  UNL1       -0.2720
     10  H         23.4080  -24.0950  -11.0710 H       1  UNL1        0.1690
     11  C         25.6920  -23.3390  -10.4160 C.3     1  UNL1        0.1850
     12  S         26.9500  -22.8900  -11.6460 S.3     1  UNL1       -0.0810
     13  C         26.2270  -23.4880  -13.0920 C.ar    1  UNL1        0.1910
     14  N         25.8900  -24.7370  -13.3210 N.ar    1  UNL1       -0.1220
     15  N         25.3590  -24.8050  -14.5810 N.ar    1  UNL1       -0.1240
     16  C         25.3990  -23.5940  -15.1090 C.ar    1  UNL1        0.2380
     17  N         25.9200  -22.7200  -14.1780 N.ar    1  UNL1       -0.3080
     18  C         26.1220  -21.3070  -14.3570 C.3     1  UNL1        0.1600
     19  C         25.0200  -23.1910  -16.4820 C.3     1  UNL1        0.4530
     20  F         24.2210  -22.0950  -16.4570 F       1  UNL1       -0.1630
     21  F         24.3130  -24.1600  -17.1160 F       1  UNL1       -0.1630
     22  F         26.0820  -22.8970  -17.2720 F       1  UNL1       -0.1630
     23  C         18.8030  -22.4910   -8.7540 C.ar    1  UNL1        0.1420
     24  N         19.0780  -22.0890   -7.5510 N.ar    1  UNL1       -0.2220
     25  C         18.1210  -22.3560   -6.6250 C.ar    1  UNL1        0.1160
     26  S         18.2810  -21.8430   -5.0150 S.2     1  UNL1       -0.0740
     27  C         16.9380  -23.0350   -6.8260 C.ar    1  UNL1        0.0750
     28  C         16.7740  -22.5280   -4.5680 C.ar    1  UNL1       -0.0120
     29  C         16.2990  -22.3970   -3.1600 C.3     1  UNL1        0.0570
     30  C         16.1450  -23.1540   -5.6350 C.ar    1  UNL1       -0.0310
     31  C         14.8220  -23.8450   -5.5790 C.3     1  UNL1        0.0500
     32  C         16.6730  -23.5180   -8.1650 C.ar    1  UNL1        0.2600
     33  N         17.6360  -23.1630   -9.0850 N.ar    1  UNL1       -0.3070
     34  O         15.7000  -24.1970   -8.4790 O.2     1  UNL1       -0.2670
     35  H         17.5060  -23.5610   -9.9960 H       1  UNL1        0.1700
@<TRIPOS>BOND
     1    22    19    1
     2    21    19    1
     3    19    20    1
     4    19    16    1
     5    16    15   ar
     6    16    17   ar
     7    15    14   ar
     8    18    17    1
     9    17    13   ar
    10    14    13   ar
    11    13    12    1
    12     3     4    2
    13     3     2    1
    14     4     5    1
    15    12    11    1
    16    10     7    1
    17     2     1    2
    18     5     7    1
    19     5     6    2
    20     7     8   am
    21     8    11    1
    22     8     9    2
    23    35    33    1
    24     1     6    1
    25     1    23    1
    26    33    23   ar
    27    33    32   ar
    28    23    24   ar
    29    34    32    2
    30    32    27   ar
    31    24    25   ar
    32    27    25   ar
    33    27    30   ar
    34    25    26   ar
    35    30    31    1
    36    30    28   ar
    37    26    28   ar
    38    28    29    1
