@<TRIPOS>MOLECULE
75151_out_ligand_01.pdbqt
 27 30 0 0 0
SMALL
GASTEIGER

@<TRIPOS>ATOM
      1  C         16.0610  -23.2590   -5.4560 C.2     1  UNL1        0.0400
      2  C         15.2060  -24.0450   -6.2340 C.2     1  UNL1        0.0180
      3  C         15.5160  -24.2850   -7.5630 C.2     1  UNL1        0.0030
      4  C         16.6870  -23.7560   -8.1110 C.2     1  UNL1        0.0300
      5  C         17.5850  -22.9710   -7.3600 C.2     1  UNL1        0.0370
      6  C         17.2360  -22.6930   -6.0100 C.2     1  UNL1       -0.0160
      7  C         18.1450  -21.8550   -5.1370 C.3     1  UNL1        0.0430
      8  C         19.2480  -21.1600   -5.9130 C.3     1  UNL1        0.0250
      9  C         19.8130  -22.1130   -6.9460 C.3     1  UNL1        0.1230
     10  N         18.7650  -22.4360   -7.9260 N.pl3   1  UNL1       -0.3730
     11  C         19.2250  -22.9210   -9.2430 C.3     1  UNL1        0.2040
     12  C         19.0400  -22.0160  -10.4120 C.ar    1  UNL1        0.1590
     13  N         17.8640  -21.5710  -10.8230 N.ar    1  UNL1       -0.1450
     14  N         18.1110  -20.6850  -11.8230 N.ar    1  UNL1        0.0180
     15  N         19.4090  -20.5660  -12.0380 N.ar    1  UNL1        0.0020
     16  N         20.0310  -21.4340  -11.1950 N.ar    1  UNL1       -0.2250
     17  C         21.4470  -21.5740  -11.2440 C.2     1  UNL1        0.0560
     18  C         22.0640  -21.7450  -12.4990 C.2     1  UNL1        0.0310
     19  C         23.4510  -21.8820  -12.6040 C.2     1  UNL1        0.0020
     20  C         24.2400  -21.8610  -11.4580 C.2     1  UNL1        0.0000
     21  C         23.6410  -21.7110  -10.2110 C.2     1  UNL1        0.0020
     22  C         22.2540  -21.5710  -10.1010 C.2     1  UNL1        0.0310
     23  C         15.6860  -23.0560   -4.0300 C.2     1  UNL1        0.2490
     24  N         16.1660  -23.9900   -3.1540 N.am    1  UNL1       -0.3660
     25  H         16.0140  -23.8100   -2.1700 H       1  UNL1        0.1590
     26  H         16.8860  -24.6500   -3.4150 H       1  UNL1        0.1590
     27  O         15.0040  -22.1180   -3.6480 O.2     1  UNL1       -0.2680
@<TRIPOS>BOND
     1    19    18    1
     2    19    20    2
     3    18    17    2
     4    15    14   ar
     5    15    16   ar
     6    14    13   ar
     7    20    21    1
     8    17    16    1
     9    17    22    1
    10    16    12   ar
    11    13    12   ar
    12    12    11    1
    13    21    22    2
    14    11    10    1
    15     4     3    2
    16     4     5    1
    17    10     5    1
    18    10     9    1
    19     3     2    1
    20     5     6    2
    21     9     8    1
    22     2     1    2
    23     6     1    1
    24     6     7    1
    25     8     7    1
    26     1    23    1
    27    23    27    2
    28    23    24   am
    29    26    24    1
    30    24    25    1
