@<TRIPOS>MOLECULE
75174_out_ligand_01.pdbqt
 30 33 0 0 0
SMALL
GASTEIGER

@<TRIPOS>ATOM
      1  C         20.2160  -23.4610   -7.8010 C.2     1  UNL1        0.0320
      2  C         20.8650  -22.2330   -7.6360 C.2     1  UNL1        0.0170
      3  C         22.0970  -22.0010   -8.2510 C.2     1  UNL1        0.0090
      4  C         22.7040  -23.0000   -9.0260 C.2     1  UNL1       -0.0480
      5  C         22.0550  -24.2360   -9.1760 C.2     1  UNL1        0.0090
      6  C         20.8200  -24.4690   -8.5630 C.2     1  UNL1        0.0170
      7  C         24.0300  -22.7460   -9.7020 C.3     1  UNL1        0.1210
      8  S         23.9230  -23.0540  -11.4920 S.3     1  UNL1       -0.0860
      9  C         22.4560  -22.2370  -11.8490 C.ar    1  UNL1        0.1890
     10  N         22.2300  -21.3030  -12.7350 N.ar    1  UNL1       -0.1220
     11  N         20.8940  -20.9770  -12.6460 N.ar    1  UNL1       -0.1290
     12  C         20.3360  -21.7180  -11.7000 C.ar    1  UNL1        0.1620
     13  N         21.3120  -22.5320  -11.1800 N.ar    1  UNL1       -0.3170
     14  H         21.2150  -23.2210  -10.4530 H       1  UNL1        0.1690
     15  C         18.9330  -21.6980  -11.2820 C.2     1  UNL1        0.0120
     16  C         18.0850  -20.6110  -11.5410 C.2     1  UNL1        0.0150
     17  C         16.7490  -20.6320  -11.1250 C.2     1  UNL1        0.0010
     18  C         16.2460  -21.7380  -10.4440 C.2     1  UNL1        0.0000
     19  C         17.0730  -22.8250  -10.1800 C.2     1  UNL1        0.0010
     20  C         18.4060  -22.8050  -10.5990 C.2     1  UNL1        0.0150
     21  C         18.9020  -23.6690   -7.1300 C.2     1  UNL1        0.2560
     22  O         18.3990  -24.7850   -7.1720 O.2     1  UNL1       -0.2670
     23  N         18.4010  -22.5540   -6.4830 N.am    1  UNL1       -0.3230
     24  H         19.0060  -21.7460   -6.4290 H       1  UNL1        0.1690
     25  C         17.1700  -22.4380   -5.8030 C.2     1  UNL1        0.0350
     26  C         17.0420  -22.4620   -4.4130 C.2     1  UNL1        0.0290
     27  C         15.7810  -22.3490   -3.8150 C.2     1  UNL1        0.0020
     28  C         14.6410  -22.2140   -4.6020 C.2     1  UNL1        0.0000
     29  C         14.7570  -22.1940   -5.9880 C.2     1  UNL1        0.0020
     30  C         16.0150  -22.3060   -6.5850 C.2     1  UNL1        0.0290
@<TRIPOS>BOND
     1    10    11   ar
     2    10     9   ar
     3    11    12   ar
     4     9     8    1
     5     9    13   ar
     6    12    15    1
     7    12    13   ar
     8    16    15    2
     9    16    17    1
    10     8     7    1
    11    15    20    1
    12    13    14    1
    13    17    18    2
    14    20    19    2
    15    18    19    1
    16     7     4    1
    17     5     4    2
    18     5     6    1
    19     4     3    1
    20     6     1    2
    21     3     2    2
    22     1     2    1
    23     1    21    1
    24    22    21    2
    25    21    23   am
    26    30    29    1
    27    30    25    2
    28    23    24    1
    29    23    25    1
    30    29    28    2
    31    25    26    1
    32    28    27    1
    33    26    27    2
