@<TRIPOS>MOLECULE
75178_out_ligand_01.pdbqt
 35 37 0 0 0
SMALL
GASTEIGER

@<TRIPOS>ATOM
      1  C         20.8810  -24.0370   -8.7170 C.2     1  UNL1        0.3150
      2  O         21.2160  -25.1880   -8.9160 O.2     1  UNL1       -0.2570
      3  C         19.4310  -23.6120   -8.6170 C.ar    1  UNL1        0.1630
      4  N         18.7570  -24.0550   -7.5980 N.ar    1  UNL1       -0.1630
      5  N         17.4310  -23.7090   -7.4840 N.ar    1  UNL1       -0.2330
      6  C         16.7560  -22.8770   -8.3790 C.ar    1  UNL1        0.2740
      7  C         17.5310  -22.3950   -9.5410 C.ar    1  UNL1        0.0460
      8  O         15.5800  -22.5450   -8.2610 O.2     1  UNL1       -0.2660
      9  C         16.9250  -21.5860  -10.5100 C.2     1  UNL1        0.0180
     10  C         18.8670  -22.7560   -9.6730 C.ar    1  UNL1        0.0160
     11  C         17.6600  -21.1450  -11.6120 C.2     1  UNL1        0.0010
     12  C         18.9990  -21.5100  -11.7460 C.2     1  UNL1        0.0010
     13  C         19.6070  -22.3150  -10.7820 C.2     1  UNL1        0.0150
     14  C         16.7420  -24.2030   -6.2910 C.3     1  UNL1        0.1550
     15  C         17.6120  -24.0600   -5.0410 C.3     1  UNL1        0.0260
     16  C         17.3350  -22.7670   -4.2490 C.3     1  UNL1       -0.0210
     17  C         15.8710  -22.3490   -4.4310 C.3     1  UNL1        0.0090
     18  C         18.2560  -21.6180   -4.6750 C.3     1  UNL1        0.0090
     19  O         21.6650  -22.9700   -8.4460 O.3     1  UNL1       -0.3070
     20  C         23.0570  -23.1840   -8.7050 C.3     1  UNL1        0.2820
     21  C         23.5010  -22.3590   -9.9170 C.2     1  UNL1        0.2460
     22  O         23.8250  -21.1820   -9.8050 O.2     1  UNL1       -0.2710
     23  N         23.5210  -23.1190  -11.0790 N.am    1  UNL1       -0.3250
     24  H         23.3040  -24.1040  -10.9580 H       1  UNL1        0.1690
     25  C         23.8190  -22.6950  -12.3890 C.2     1  UNL1        0.0340
     26  C         23.1090  -21.7060  -13.0700 C.2     1  UNL1        0.0300
     27  C         23.4690  -21.3470  -14.3760 C.2     1  UNL1        0.0190
     28  C         24.5370  -21.9810  -15.0220 C.2     1  UNL1        0.0320
     29  C         25.2580  -22.9660  -14.3390 C.2     1  UNL1        0.0190
     30  C         24.8950  -23.3220  -13.0330 C.2     1  UNL1        0.0300
     31  C         24.8820  -21.5590  -16.4090 C.2     1  UNL1        0.2490
     32  N         24.3700  -20.3720  -16.8570 N.am    1  UNL1       -0.3660
     33  H         24.7190  -20.0550  -17.7530 H       1  UNL1        0.1590
     34  H         24.0130  -19.6680  -16.2260 H       1  UNL1        0.1590
     35  O         25.6190  -22.2270  -17.1220 O.2     1  UNL1       -0.2680
@<TRIPOS>BOND
     1    33    32    1
     2    35    31    2
     3    32    31   am
     4    32    34    1
     5    31    28    1
     6    28    27    2
     7    28    29    1
     8    27    26    1
     9    29    30    2
    10    26    25    2
    11    30    25    1
    12    25    23    1
    13    12    11    2
    14    12    13    1
    15    11     9    1
    16    23    24    1
    17    23    21   am
    18    13    10    2
    19     9     7    2
    20    21    22    2
    21    21    20    1
    22    10     7   ar
    23    10     3   ar
    24     7     6   ar
    25     2     1    2
    26     1     3    1
    27     1    19    1
    28    20    19    1
    29     3     4   ar
    30     6     8    2
    31     6     5   ar
    32     4     5   ar
    33     5    14    1
    34    14    15    1
    35    15    16    1
    36    18    16    1
    37    17    16    1
