@<TRIPOS>MOLECULE
75188_out_ligand_01.pdbqt
 34 37 0 0 0
SMALL
GASTEIGER

@<TRIPOS>ATOM
      1  C         20.9060  -23.0510  -10.1890 C.2     1  UNL1        0.0700
      2  C         20.9390  -22.1010  -11.2110 C.2     1  UNL1        0.0370
      3  C         19.7770  -21.4110  -11.5670 C.2     1  UNL1        0.0040
      4  C         18.5750  -21.6750  -10.9100 C.2     1  UNL1        0.0170
      5  C         18.5280  -22.6440   -9.9060 C.2     1  UNL1        0.0340
      6  C         19.6970  -23.3200   -9.5390 C.2     1  UNL1        0.0530
      7  O         21.9740  -23.7560   -9.7060 O.2     1  UNL1       -0.3370
      8  C         23.1280  -23.0330   -9.2670 C.3     1  UNL1        0.2170
      9  C         22.6210  -21.9140   -8.3620 C.3     1  UNL1        0.0500
     10  C         23.9320  -22.3930  -10.4170 C.2     1  UNL1        0.2510
     11  O         24.3520  -21.2420  -10.3190 O.2     1  UNL1       -0.2700
     12  N         24.0740  -23.2380  -11.5060 N.am    1  UNL1       -0.3250
     13  H         23.7440  -24.1870  -11.3600 H       1  UNL1        0.1690
     14  C         24.7350  -22.9770  -12.7210 C.2     1  UNL1        0.0370
     15  C         25.9980  -23.5610  -12.8940 C.2     1  UNL1        0.0320
     16  C         26.7320  -23.3410  -14.0630 C.2     1  UNL1        0.0420
     17  C         26.2070  -22.5380  -15.0690 C.2     1  UNL1        0.1020
     18  C         24.9330  -21.9850  -14.9220 C.2     1  UNL1        0.1040
     19  O         26.9900  -22.3420  -16.1760 O.2     1  UNL1       -0.3460
     20  C         24.2060  -22.1900  -13.7460 C.2     1  UNL1        0.0690
     21  O         24.3340  -21.2200  -15.8910 O.2     1  UNL1       -0.3460
     22  C         25.0010  -21.3530  -17.1500 C.3     1  UNL1        0.2020
     23  C         26.5070  -21.2520  -16.9700 C.3     1  UNL1        0.2020
     24  C         17.2300  -22.9090   -9.2320 C.2     1  UNL1        0.2520
     25  O         16.2040  -22.3770   -9.6380 O.2     1  UNL1       -0.2680
     26  N         17.2660  -23.7930   -8.1780 N.am    1  UNL1       -0.3530
     27  H         18.1120  -24.3060   -7.9670 H       1  UNL1        0.1630
     28  C         16.0580  -24.1700   -7.4800 C.3     1  UNL1        0.1610
     29  C         16.0520  -23.5950   -6.0880 C.2     1  UNL1       -0.0410
     30  C         17.2060  -23.6680   -5.2920 C.2     1  UNL1        0.0090
     31  C         17.2220  -23.1050   -4.0140 C.2     1  UNL1        0.0010
     32  C         16.0890  -22.4570   -3.5240 C.2     1  UNL1        0.0000
     33  C         14.9380  -22.3690   -4.3080 C.2     1  UNL1        0.0010
     34  C         14.9210  -22.9340   -5.5860 C.2     1  UNL1        0.0090
@<TRIPOS>BOND
     1    22    23    1
     2    22    21    1
     3    23    19    1
     4    19    17    1
     5    21    18    1
     6    17    18    2
     7    17    16    1
     8    18    20    1
     9    16    15    2
    10    20    14    2
    11    15    14    1
    12    14    12    1
    13     3     2    1
    14     3     4    2
    15    12    13    1
    16    12    10   am
    17     2     1    2
    18     4     5    1
    19    10    11    2
    20    10     8    1
    21     1     7    1
    22     1     6    1
    23     5     6    2
    24     5    24    1
    25     7     8    1
    26    25    24    2
    27     8     9    1
    28    24    26   am
    29    26    27    1
    30    26    28    1
    31    28    29    1
    32    29    34    2
    33    29    30    1
    34    34    33    1
    35    30    31    2
    36    33    32    2
    37    31    32    1
