@<TRIPOS>MOLECULE
75216_out_ligand_01.pdbqt
 37 40 0 0 0
SMALL
GASTEIGER

@<TRIPOS>ATOM
      1  C         20.4790  -22.8720   -9.7040 C.2     1  UNL1        0.0320
      2  C         21.4900  -23.5170   -8.9790 C.2     1  UNL1        0.0190
      3  C         22.7800  -23.6220   -9.5070 C.2     1  UNL1        0.0310
      4  C         23.0590  -23.0940  -10.7670 C.2     1  UNL1        0.0420
      5  C         22.0530  -22.4640  -11.5010 C.2     1  UNL1        0.0310
      6  C         20.7620  -22.3550  -10.9740 C.2     1  UNL1        0.0190
      7  C         19.1160  -22.7920   -9.1040 C.2     1  UNL1        0.2560
      8  N         18.8910  -23.6520   -8.0440 N.am    1  UNL1       -0.3230
      9  H         19.6150  -24.3290   -7.8390 H       1  UNL1        0.1690
     10  O         18.3090  -22.0170   -9.6030 O.2     1  UNL1       -0.2670
     11  C         17.7180  -23.7610   -7.2690 C.2     1  UNL1        0.0360
     12  C         17.7440  -23.1940   -5.9870 C.2     1  UNL1        0.0490
     13  C         16.6200  -23.2510   -5.1460 C.2     1  UNL1        0.0720
     14  C         15.4650  -23.8810   -5.6050 C.2     1  UNL1        0.1320
     15  C         15.4240  -24.4440   -6.8770 C.2     1  UNL1        0.0450
     16  F         14.3630  -23.9640   -4.8420 F       1  UNL1       -0.2050
     17  C         16.5460  -24.3830   -7.7080 C.2     1  UNL1        0.0320
     18  C         16.7230  -22.6300   -3.8000 C.2     1  UNL1        0.2520
     19  N         17.9370  -22.6260   -3.1790 N.am    1  UNL1       -0.3660
     20  H         18.7720  -23.0260   -3.5890 H       1  UNL1        0.1590
     21  H         18.0020  -22.2010   -2.2640 H       1  UNL1        0.1590
     22  O         15.7430  -22.1310   -3.2580 O.2     1  UNL1       -0.2680
     23  N         24.3660  -23.2470  -11.3040 N.pl3   1  UNL1       -0.2810
     24  H         24.4660  -23.7490  -12.1860 H       1  UNL1        0.1790
     25  S         25.4640  -21.9650  -11.1890 S.O2    1  UNL1        0.2630
     26  O         26.7520  -22.5630  -10.9070 O.2     1  UNL1       -0.2000
     27  O         24.9100  -20.9370  -10.3330 O.2     1  UNL1       -0.2000
     28  C         25.5160  -21.3380  -12.8500 C.2     1  UNL1        0.0820
     29  C         25.9510  -20.0300  -13.0900 C.2     1  UNL1        0.0280
     30  C         25.9770  -19.5440  -14.3980 C.2     1  UNL1        0.0410
     31  C         25.5750  -20.3640  -15.4520 C.2     1  UNL1        0.1020
     32  C         25.1810  -21.6850  -15.2080 C.2     1  UNL1        0.1030
     33  O         25.6040  -19.8090  -16.7050 O.2     1  UNL1       -0.3460
     34  C         25.1430  -22.1760  -13.9050 C.2     1  UNL1        0.0650
     35  O         24.8080  -22.5530  -16.2010 O.2     1  UNL1       -0.3460
     36  C         25.2140  -22.0740  -17.4900 C.3     1  UNL1        0.2020
     37  C         24.8700  -20.6020  -17.6460 C.3     1  UNL1        0.2020
@<TRIPOS>BOND
     1    37    36    1
     2    37    33    1
     3    36    35    1
     4    33    31    1
     5    35    32    1
     6    31    32    2
     7    31    30    1
     8    32    34    1
     9    30    29    2
    10    34    28    2
    11    29    28    1
    12    28    25    1
    13    24    23    1
    14     5     6    1
    15     5     4    2
    16    23    25    1
    17    23     4    1
    18    25    26    2
    19    25    27    2
    20     6     1    2
    21     4     3    1
    22     1     7    1
    23     1     2    1
    24    10     7    2
    25     3     2    2
    26     7     8   am
    27     8     9    1
    28     8    11    1
    29    17    11    2
    30    17    15    1
    31    11    12    1
    32    15    14    2
    33    12    13    2
    34    14    13    1
    35    14    16    1
    36    13    18    1
    37    18    22    2
    38    18    19   am
    39    20    19    1
    40    19    21    1
