@<TRIPOS>MOLECULE
75223_out_ligand_01.pdbqt
 37 40 0 0 0
SMALL
GASTEIGER

@<TRIPOS>ATOM
      1  C         20.6240  -22.6690  -10.2290 C.2     1  UNL1        0.0340
      2  C         20.1610  -21.7920  -11.2200 C.2     1  UNL1        0.0170
      3  C         21.0120  -21.4010  -12.2540 C.2     1  UNL1        0.0030
      4  C         22.3230  -21.8760  -12.2970 C.2     1  UNL1        0.0300
      5  C         22.7890  -22.7320  -11.2980 C.2     1  UNL1        0.0430
      6  C         21.9440  -23.1330  -10.2640 C.2     1  UNL1        0.0470
      7  C         19.7530  -23.1070   -9.1060 C.2     1  UNL1        0.2560
      8  N         18.7530  -22.2140   -8.7640 N.am    1  UNL1       -0.3230
      9  H         18.6350  -21.4080   -9.3640 H       1  UNL1        0.1690
     10  O         19.9680  -24.2020   -8.6020 O.2     1  UNL1       -0.2670
     11  C         17.8090  -22.3470   -7.7250 C.2     1  UNL1        0.0360
     12  C         18.2610  -22.1340   -6.4170 C.2     1  UNL1        0.0480
     13  C         17.4020  -22.2470   -5.3010 C.2     1  UNL1        0.0550
     14  C         16.0570  -22.5690   -5.5240 C.2     1  UNL1        0.0490
     15  C         15.6040  -22.7870   -6.8310 C.2     1  UNL1        0.0270
     16 CL         14.8610  -22.7030   -4.2830 Cl      1  UNL1       -0.0830
     17  C         16.4720  -22.6820   -7.9230 C.2     1  UNL1        0.0310
     18  C         18.0470  -22.0020   -3.9760 C.2     1  UNL1        0.2510
     19  N         18.4890  -20.7540   -3.6630 N.am    1  UNL1       -0.3660
     20  H         18.9620  -20.6310   -2.7770 H       1  UNL1        0.1590
     21  H         18.4910  -19.9820   -4.3180 H       1  UNL1        0.1590
     22  O         18.1620  -22.9060   -3.1530 O.2     1  UNL1       -0.2680
     23  N         24.1090  -23.2580  -11.3700 N.pl3   1  UNL1       -0.2810
     24  H         24.2710  -24.0180  -12.0320 H       1  UNL1        0.1790
     25  S         25.3910  -22.1520  -11.4340 S.O2    1  UNL1        0.2630
     26  O         26.6290  -22.8310  -11.1180 O.2     1  UNL1       -0.2000
     27  O         24.9570  -20.9940  -10.6800 O.2     1  UNL1       -0.2000
     28  C         25.4100  -21.6860  -13.1450 C.2     1  UNL1        0.0820
     29  C         25.5630  -20.3360  -13.4850 C.2     1  UNL1        0.0280
     30  C         25.5930  -19.9660  -14.8310 C.2     1  UNL1        0.0410
     31  C         25.4810  -20.9420  -15.8220 C.2     1  UNL1        0.1020
     32  C         25.3140  -22.2870  -15.4730 C.2     1  UNL1        0.1030
     33  O         25.5400  -20.5060  -17.1210 O.2     1  UNL1       -0.3460
     34  C         25.3000  -22.6680  -14.1330 C.2     1  UNL1        0.0650
     35  O         25.1640  -23.2900  -16.3970 O.2     1  UNL1       -0.3460
     36  C         24.8730  -22.7670  -17.6970 C.3     1  UNL1        0.2020
     37  C         25.7810  -21.5930  -18.0230 C.3     1  UNL1        0.2020
@<TRIPOS>BOND
     1    37    36    1
     2    37    33    1
     3    36    35    1
     4    33    31    1
     5    35    32    1
     6    31    32    2
     7    31    30    1
     8    32    34    1
     9    30    29    2
    10    34    28    2
    11    29    28    1
    12    28    25    1
    13     4     3    2
    14     4     5    1
    15     3     2    1
    16    24    23    1
    17    25    23    1
    18    25    26    2
    19    25    27    2
    20    23     5    1
    21     5     6    2
    22     2     1    2
    23     6     1    1
    24     1     7    1
    25     9     8    1
    26     7     8   am
    27     7    10    2
    28     8    11    1
    29    17    11    2
    30    17    15    1
    31    11    12    1
    32    15    14    2
    33    12    13    2
    34    14    13    1
    35    14    16    1
    36    13    18    1
    37    21    19    1
    38    18    19   am
    39    18    22    2
    40    19    20    1
