@<TRIPOS>MOLECULE
75224_out_ligand_01.pdbqt
 35 38 0 0 0
SMALL
GASTEIGER

@<TRIPOS>ATOM
      1  C         20.4230  -22.7530   -7.6870 C.2     1  UNL1        0.0320
      2  C         21.5060  -21.8700   -7.6380 C.2     1  UNL1        0.0190
      3  C         22.6280  -22.0850   -8.4480 C.2     1  UNL1        0.0300
      4  C         22.6800  -23.1780   -9.3200 C.2     1  UNL1        0.0340
      5  C         21.5890  -24.0480   -9.3780 C.2     1  UNL1        0.0300
      6  C         20.4640  -23.8370   -8.5710 C.2     1  UNL1        0.0190
      7  N         23.8410  -23.3200  -10.1010 N.am    1  UNL1       -0.3260
      8  C         24.6420  -22.3200  -10.6320 C.2     1  UNL1        0.2360
      9  O         24.4690  -21.1110  -10.4950 O.2     1  UNL1       -0.2720
     10  H         24.0860  -24.2640  -10.3800 H       1  UNL1        0.1690
     11  C         25.8690  -22.8430  -11.3880 C.3     1  UNL1        0.1400
     12  C         26.6610  -23.7990  -10.5050 C.3     1  UNL1        0.0310
     13  S         25.3720  -23.7180  -12.9320 S.3     1  UNL1       -0.1160
     14  C         25.6400  -22.4070  -14.1110 C.2     1  UNL1        0.0040
     15  C         26.4810  -21.3390  -13.7800 C.2     1  UNL1        0.0210
     16  C         26.7030  -20.3080  -14.6960 C.2     1  UNL1        0.0410
     17  C         26.0810  -20.3400  -15.9410 C.2     1  UNL1        0.1020
     18  C         25.2090  -21.3860  -16.2600 C.2     1  UNL1        0.1030
     19  O         26.3620  -19.3070  -16.7990 O.2     1  UNL1       -0.3460
     20  C         24.9980  -22.4230  -15.3530 C.2     1  UNL1        0.0580
     21  O         24.5300  -21.4620  -17.4490 O.2     1  UNL1       -0.3460
     22  C         24.5540  -20.2090  -18.1450 C.3     1  UNL1        0.2020
     23  C         25.9530  -19.6160  -18.1360 C.3     1  UNL1        0.2020
     24  C         19.2460  -22.4840   -6.8120 C.2     1  UNL1        0.2560
     25  N         18.4270  -23.5690   -6.5830 N.am    1  UNL1       -0.3210
     26  H         18.7150  -24.4790   -6.9320 H       1  UNL1        0.1690
     27  O         19.1120  -21.3550   -6.3530 O.2     1  UNL1       -0.2670
     28  C         17.2310  -23.6210   -5.8340 C.2     1  UNL1        0.0680
     29  C         17.1730  -23.4120   -4.4540 C.2     1  UNL1        0.0320
     30  C         15.9500  -23.4770   -3.7840 C.2     1  UNL1        0.0020
     31  C         14.7800  -23.7510   -4.4870 C.2     1  UNL1        0.0030
     32  C         14.8230  -23.9590   -5.8670 C.2     1  UNL1        0.0390
     33  C         16.0430  -23.8940   -6.5480 C.2     1  UNL1        0.0950
     34  O         16.2000  -24.0760   -7.9040 O.2     1  UNL1       -0.3540
     35  C         15.8490  -22.9830   -8.7450 C.3     1  UNL1        0.2100
@<TRIPOS>BOND
     1    22    23    1
     2    22    21    1
     3    23    19    1
     4    21    18    1
     5    19    17    1
     6    18    17    2
     7    18    20    1
     8    17    16    1
     9    20    14    2
    10    16    15    2
    11    14    15    1
    12    14    13    1
    13    13    11    1
    14    11     8    1
    15    11    12    1
    16     8     9    2
    17     8     7   am
    18    10     7    1
    19     7     4    1
    20     5     4    2
    21     5     6    1
    22     4     3    1
    23    35    34    1
    24     6     1    2
    25     3     2    2
    26    34    33    1
    27     1     2    1
    28     1    24    1
    29    26    25    1
    30    24    25   am
    31    24    27    2
    32    25    28    1
    33    33    32    1
    34    33    28    2
    35    32    31    2
    36    28    29    1
    37    31    30    1
    38    29    30    2
