@<TRIPOS>MOLECULE
75227_out_ligand_01.pdbqt
 36 39 0 0 0
SMALL
GASTEIGER

@<TRIPOS>ATOM
      1  C         19.2890  -20.6300  -12.0150 C.3     1  UNL1        0.0370
      2  C         19.6030  -22.0270  -11.4690 C.3     1  UNL1        0.1140
      3  N         18.9630  -22.2600  -10.1890 N.am    1  UNL1       -0.3470
      4  C         17.7220  -22.8390  -10.0550 C.2     1  UNL1        0.2700
      5  O         16.9990  -23.1530  -10.9930 O.2     1  UNL1       -0.2660
      6  H         19.4930  -22.1310   -9.3330 H       1  UNL1        0.1630
      7  C         17.3090  -23.0740   -8.6350 C.2     1  UNL1        0.1260
      8  C         16.2760  -23.9560   -8.3470 C.2     1  UNL1        0.0380
      9  C         15.9280  -24.1360   -7.0130 C.2     1  UNL1        0.0230
     10  C         16.6250  -23.4300   -6.0290 C.ar    1  UNL1        0.0780
     11  C         16.2950  -23.5850   -4.6100 C.ar    1  UNL1        0.2630
     12  C         17.6510  -22.5660   -6.3910 C.ar    1  UNL1        0.1500
     13  O         15.4050  -24.3420   -4.2390 O.2     1  UNL1       -0.2670
     14  N         17.0340  -22.8380   -3.7370 N.ar    1  UNL1       -0.2750
     15  C         18.0570  -21.9860   -4.0540 C.ar    1  UNL1        0.3300
     16  H         16.8240  -22.9340   -2.7550 H       1  UNL1        0.1730
     17  O         18.6420  -21.3900   -3.1530 O.2     1  UNL1       -0.2460
     18  N         18.3570  -21.8580   -5.3930 N.ar    1  UNL1       -0.2870
     19  C         19.4360  -20.9800   -5.8160 C.3     1  UNL1        0.1630
     20  N         18.0010  -22.3760   -7.6860 N.2     1  UNL1       -0.2240
     21  C         21.0960  -22.2630  -11.3340 C.2     1  UNL1       -0.0340
     22  C         21.5850  -23.0590  -10.2910 C.2     1  UNL1        0.0090
     23  C         22.9570  -23.2590  -10.1390 C.2     1  UNL1        0.0030
     24  C         23.8600  -22.6600  -11.0210 C.2     1  UNL1        0.0290
     25  C         23.4000  -21.8530  -12.0610 C.2     1  UNL1        0.0350
     26  C         22.0190  -21.6620  -12.2110 C.2     1  UNL1        0.0380
     27  N         24.2440  -21.2140  -12.9940 N.am    1  UNL1       -0.3230
     28  C         24.1340  -21.2280  -14.3730 C.2     1  UNL1        0.2560
     29  O         23.3280  -21.8650  -15.0400 O.2     1  UNL1       -0.2670
     30  H         25.0550  -20.7510  -12.6070 H       1  UNL1        0.1690
     31  C         25.1530  -20.4080  -15.0880 C.2     1  UNL1        0.0320
     32  C         25.8800  -19.4050  -14.4340 C.2     1  UNL1        0.0170
     33  C         26.8270  -18.6610  -15.1390 C.2     1  UNL1        0.0010
     34  C         27.0450  -18.9090  -16.4940 C.2     1  UNL1        0.0000
     35  C         26.3080  -19.8930  -17.1530 C.2     1  UNL1        0.0010
     36  C         25.3590  -20.6390  -16.4530 C.2     1  UNL1        0.0170
@<TRIPOS>BOND
     1    35    34    2
     2    35    36    1
     3    34    33    1
     4    36    31    2
     5    33    32    2
     6    31    32    1
     7    31    28    1
     8    29    28    2
     9    28    27   am
    10    27    30    1
    11    27    25    1
    12    26    25    1
    13    26    21    2
    14    25    24    2
    15     1     2    1
    16     2    21    1
    17     2     3    1
    18    21    22    1
    19    24    23    1
    20     5     4    2
    21    22    23    2
    22     3     4   am
    23     3     6    1
    24     4     7    1
    25     7     8    2
    26     7    20    1
    27     8     9    1
    28    20    12    2
    29     9    10    2
    30    12    10   ar
    31    12    18   ar
    32    10    11   ar
    33    19    18    1
    34    18    15   ar
    35    11    13    2
    36    11    14   ar
    37    15    14   ar
    38    15    17    2
    39    14    16    1
