@<TRIPOS>MOLECULE
75248_out_ligand_01.pdbqt
 35 37 0 0 0
SMALL
GASTEIGER

@<TRIPOS>ATOM
      1  C         21.2480  -23.0130   -9.3060 C.2     1  UNL1        0.0320
      2  C         21.3010  -22.9780  -10.7050 C.2     1  UNL1        0.0190
      3  C         22.3870  -22.3760  -11.3470 C.2     1  UNL1        0.0310
      4  C         23.4240  -21.8170  -10.5990 C.2     1  UNL1        0.0420
      5  C         23.3810  -21.8570   -9.2060 C.2     1  UNL1        0.0310
      6  C         22.2980  -22.4600   -8.5600 C.2     1  UNL1        0.0190
      7  C         20.1190  -23.6550   -8.5750 C.2     1  UNL1        0.2560
      8  N         19.1600  -22.7820   -8.0960 N.am    1  UNL1       -0.3230
      9  H         19.3530  -21.7920   -8.1830 H       1  UNL1        0.1690
     10  O         20.1440  -24.8700   -8.4310 O.2     1  UNL1       -0.2670
     11  C         17.9710  -23.1140   -7.4120 C.2     1  UNL1        0.0360
     12  C         17.7980  -22.5760   -6.1310 C.2     1  UNL1        0.0480
     13  C         16.6430  -22.8420   -5.3650 C.2     1  UNL1        0.0550
     14  C         15.6420  -23.6500   -5.9150 C.2     1  UNL1        0.0490
     15  C         15.8120  -24.1870   -7.1960 C.2     1  UNL1        0.0270
     16 CL         14.1460  -24.0180   -5.1290 Cl      1  UNL1       -0.0830
     17  C         16.9670  -23.9220   -7.9390 C.2     1  UNL1        0.0310
     18  C         16.6120  -22.2050   -4.0170 C.2     1  UNL1        0.2510
     19  N         17.6680  -21.4390   -3.6200 N.am    1  UNL1       -0.3660
     20  H         18.5350  -21.3800   -4.1400 H       1  UNL1        0.1590
     21  H         17.6470  -21.0630   -2.6820 H       1  UNL1        0.1590
     22  O         15.6380  -22.3310   -3.2840 O.2     1  UNL1       -0.2680
     23  N         24.5520  -21.2350  -11.2370 N.pl3   1  UNL1       -0.2810
     24  H         24.8370  -20.2980  -10.9560 H       1  UNL1        0.1790
     25  S         25.8640  -22.2040  -11.6680 S.O2    1  UNL1        0.2630
     26  O         27.0620  -21.3970  -11.7370 O.2     1  UNL1       -0.2000
     27  O         25.7940  -23.3800  -10.8270 O.2     1  UNL1       -0.2000
     28  C         25.4530  -22.7170  -13.3220 C.2     1  UNL1        0.0830
     29  C         25.0380  -21.7670  -14.2660 C.2     1  UNL1        0.0280
     30  C         24.7250  -22.1760  -15.5640 C.2     1  UNL1        0.0470
     31  C         24.8410  -23.5210  -15.9060 C.2     1  UNL1        0.1540
     32  F         24.5370  -23.9090  -17.1520 F       1  UNL1       -0.2030
     33  C         25.2700  -24.4550  -14.9680 C.2     1  UNL1        0.1560
     34  F         25.3830  -25.7470  -15.3060 F       1  UNL1       -0.2030
     35  C         25.5850  -24.0640  -13.6710 C.2     1  UNL1        0.0700
@<TRIPOS>BOND
     1    32    31    1
     2    31    30    2
     3    31    33    1
     4    30    29    1
     5    34    33    1
     6    33    35    2
     7    29    28    2
     8    35    28    1
     9    28    25    1
    10    26    25    2
    11    25    23    1
    12    25    27    2
    13     3     2    1
    14     3     4    2
    15    23    24    1
    16    23     4    1
    17     2     1    2
    18     4     5    1
    19     1     7    1
    20     1     6    1
    21     5     6    2
    22     7    10    2
    23     7     8   am
    24     9     8    1
    25     8    11    1
    26    17    11    2
    27    17    15    1
    28    11    12    1
    29    15    14    2
    30    12    13    2
    31    14    13    1
    32    14    16    1
    33    13    18    1
    34    20    19    1
    35    18    19   am
    36    18    22    2
    37    19    21    1
