@<TRIPOS>MOLECULE
75258_out_ligand_01.pdbqt
 26 29 0 0 0
SMALL
GASTEIGER

@<TRIPOS>ATOM
      1  N         17.5070  -23.5660   -8.7490 N.pl3   1  UNL1       -0.2890
      2  H         17.0740  -24.3850   -9.1760 H       1  UNL1        0.1280
      3  C         18.4510  -23.9540   -7.6980 C.3     1  UNL1        0.1330
      4  C         18.4600  -22.9250   -6.5840 C.2     1  UNL1       -0.0120
      5  C         19.4320  -21.9050   -6.5750 C.2     1  UNL1        0.0530
      6  C         19.4660  -20.9810   -5.5440 C.2     1  UNL1        0.1170
      7  F         20.3870  -20.0100   -5.5510 F       1  UNL1       -0.2060
      8  C         18.5580  -21.0540   -4.5010 C.2     1  UNL1        0.0560
      9  C         17.6030  -22.0810   -4.4810 C.2     1  UNL1       -0.0040
     10  C         16.6870  -22.1840   -3.4260 C.2     1  UNL1        0.0150
     11  C         17.5470  -23.0400   -5.5230 C.2     1  UNL1        0.0740
     12  C         15.7560  -23.2130   -3.4150 C.2     1  UNL1        0.0200
     13  C         15.7760  -24.1090   -4.4640 C.2     1  UNL1        0.1170
     14  N         16.6430  -24.0400   -5.4980 N.2     1  UNL1       -0.2600
     15  C         17.9090  -22.6530   -9.7330 C.2     1  UNL1        0.0090
     16  C         17.0370  -21.7790  -10.3850 C.2     1  UNL1        0.0230
     17  C         17.4870  -20.9440  -11.4110 C.2     1  UNL1        0.0030
     18  C         18.8180  -20.9920  -11.8260 C.2     1  UNL1        0.0150
     19  C         19.7100  -21.8890  -11.2290 C.2     1  UNL1        0.0130
     20  C         19.2350  -22.7150  -10.1940 C.2     1  UNL1        0.0380
     21  C         21.1100  -21.9960  -11.6410 C.2     1  UNL1        0.1610
     22  N         21.6720  -21.4360  -12.6990 N.2     1  UNL1       -0.1300
     23  N         23.0050  -21.7780  -12.7240 N.2     1  UNL1       -0.1430
     24  C         23.2380  -22.5310  -11.6780 C.2     1  UNL1        0.2330
     25  N         22.0860  -22.6940  -10.9730 N.pl3   1  UNL1       -0.3320
     26  H         21.9760  -23.2100  -10.1150 H       1  UNL1        0.1680
@<TRIPOS>BOND
     1    23    22    1
     2    23    24    2
     3    22    21    2
     4    18    17    2
     5    18    19    1
     6    24    25    1
     7    21    19    1
     8    21    25    1
     9    17    16    1
    10    19    20    2
    11    25    26    1
    12    16    15    2
    13    20    15    1
    14    15     1    1
    15     2     1    1
    16     1     3    1
    17     3     4    1
    18     4     5    2
    19     4    11    1
    20     5     6    1
    21     7     6    1
    22     6     8    2
    23    11    14    1
    24    11     9    2
    25    14    13    2
    26     8     9    1
    27     9    10    1
    28    13    12    1
    29    10    12    2
