@<TRIPOS>MOLECULE
75250_out_ligand_01.pdbqt
 35 37 0 0 0
SMALL
GASTEIGER

@<TRIPOS>ATOM
      1  C         23.2890  -21.7430  -10.3370 C.2     1  UNL1        0.0420
      2  C         22.2950  -22.3150  -11.1330 C.2     1  UNL1        0.0310
      3  C         21.1880  -22.9320  -10.5420 C.2     1  UNL1        0.0190
      4  C         21.0810  -22.9830   -9.1460 C.2     1  UNL1        0.0320
      5  C         22.0760  -22.3950   -8.3520 C.2     1  UNL1        0.0190
      6  C         23.1810  -21.7810   -8.9460 C.2     1  UNL1        0.0310
      7  C         19.9130  -23.6140   -8.4690 C.2     1  UNL1        0.2560
      8  O         19.9020  -24.8320   -8.3510 O.2     1  UNL1       -0.2670
      9  N         18.9220  -22.7340   -8.0740 N.am    1  UNL1       -0.3230
     10  H         19.0150  -21.7740   -8.3820 H       1  UNL1        0.1690
     11  C         17.7360  -23.0400   -7.3710 C.2     1  UNL1        0.0360
     12  C         16.8480  -23.9320   -7.9890 C.2     1  UNL1        0.0320
     13  C         15.6500  -24.2850   -7.3680 C.2     1  UNL1        0.0450
     14  C         15.3300  -23.7460   -6.1260 C.2     1  UNL1        0.1320
     15  F         14.1670  -24.1140   -5.5650 F       1  UNL1       -0.2050
     16  C         16.1910  -22.8510   -5.4910 C.2     1  UNL1        0.0720
     17  C         17.3990  -22.5010   -6.1250 C.2     1  UNL1        0.0490
     18  C         15.8830  -22.2420   -4.1700 C.2     1  UNL1        0.2520
     19  N         16.9190  -21.9830   -3.3180 N.am    1  UNL1       -0.3660
     20  H         17.8840  -22.1930   -3.5360 H       1  UNL1        0.1590
     21  H         16.6980  -21.5740   -2.4200 H       1  UNL1        0.1590
     22  O         14.7350  -21.9740   -3.8360 O.2     1  UNL1       -0.2680
     23  N         24.3890  -21.0660  -10.9300 N.pl3   1  UNL1       -0.2810
     24  H         24.1850  -20.3260  -11.6020 H       1  UNL1        0.1790
     25  S         25.7470  -21.9640  -11.3990 S.O2    1  UNL1        0.2630
     26  O         26.8510  -21.0260  -11.4320 O.2     1  UNL1       -0.2000
     27  O         25.8160  -23.1760  -10.6120 O.2     1  UNL1       -0.2000
     28  C         25.3670  -22.4080  -13.0780 C.2     1  UNL1        0.0800
     29  C         24.9820  -21.4180  -13.9810 C.2     1  UNL1        0.0260
     30  C         24.6740  -21.7720  -15.2940 C.2     1  UNL1        0.0090
     31  C         24.7520  -23.1100  -15.7160 C.2     1  UNL1       -0.0560
     32  C         24.4060  -23.4520  -17.1400 C.3     1  UNL1        0.0490
     33  C         25.1640  -24.1050  -14.8040 C.2     1  UNL1       -0.0550
     34  C         25.4790  -23.7400  -13.4860 C.2     1  UNL1        0.0320
     35  C         25.2660  -25.5510  -15.2110 C.3     1  UNL1        0.0490
@<TRIPOS>BOND
     1    32    31    1
     2    31    30    2
     3    31    33    1
     4    30    29    1
     5    35    33    1
     6    33    34    2
     7    29    28    2
     8    34    28    1
     9    28    25    1
    10    24    23    1
    11    26    25    2
    12    25    23    1
    13    25    27    2
    14     2     3    1
    15     2     1    2
    16    23     1    1
    17     3     4    2
    18     1     6    1
    19     4     7    1
    20     4     5    1
    21     6     5    2
    22     7     8    2
    23     7     9   am
    24    10     9    1
    25     9    11    1
    26    12    11    2
    27    12    13    1
    28    11    17    1
    29    13    14    2
    30    14    15    1
    31    14    16    1
    32    17    16    2
    33    16    18    1
    34    18    22    2
    35    18    19   am
    36    20    19    1
    37    19    21    1
