@<TRIPOS>MOLECULE
75256_out_ligand_01.pdbqt
 28 31 0 0 0
SMALL
GASTEIGER

@<TRIPOS>ATOM
      1  C         18.9990  -22.0590  -10.7140 C.2     1  UNL1        0.0500
      2  C         19.3700  -21.2810  -11.8060 C.2     1  UNL1        0.1360
      3  N         20.6420  -21.1840  -12.2740 N.2     1  UNL1       -0.2410
      4  C         21.5800  -21.9110  -11.6290 C.ar    1  UNL1        0.1460
      5  N         22.8790  -21.8170  -12.1040 N.ar    1  UNL1       -0.2920
      6  C         23.9260  -22.4940  -11.5610 C.ar    1  UNL1        0.3280
      7  O         25.0650  -22.3880  -12.0010 O.2     1  UNL1       -0.2470
      8  N         23.6390  -23.2980  -10.4940 N.ar    1  UNL1       -0.2750
      9  C         22.4020  -23.4710   -9.9240 C.ar    1  UNL1        0.2630
     10  O         22.2200  -24.1950   -8.9540 O.2     1  UNL1       -0.2670
     11  C         21.2970  -22.7270  -10.5440 C.ar    1  UNL1        0.0790
     12  C         19.9870  -22.8100  -10.0770 C.2     1  UNL1        0.0390
     13  H         23.0520  -21.2150  -12.8960 H       1  UNL1        0.1720
     14  H         24.4130  -23.7990  -10.0830 H       1  UNL1        0.1730
     15  C         17.5990  -22.1390  -10.2410 C.2     1  UNL1        0.2530
     16  O         16.7730  -21.3350  -10.6580 O.2     1  UNL1       -0.2680
     17  N         17.2940  -23.1600   -9.3690 N.am    1  UNL1       -0.3540
     18  H         17.9380  -23.9320   -9.2430 H       1  UNL1        0.1620
     19  C         15.9270  -23.4130   -8.9310 C.3     1  UNL1        0.1550
     20  C         15.8440  -23.8980   -7.4790 C.3     1  UNL1        0.1510
     21  C         17.1890  -24.3090   -6.8610 C.3     1  UNL1        0.0750
     22  C         16.9840  -23.8010   -5.4860 C.2     1  UNL1       -0.0220
     23  C         17.7450  -24.0100   -4.3480 C.2     1  UNL1        0.0100
     24  C         15.8820  -22.9620   -5.4590 C.2     1  UNL1        0.0750
     25  C         17.3630  -23.3600   -3.1710 C.2     1  UNL1        0.0010
     26  C         16.2450  -22.5100   -3.1530 C.2     1  UNL1        0.0030
     27  C         15.4940  -22.3020   -4.3120 C.2     1  UNL1        0.0370
     28  O         15.2450  -22.8450   -6.6660 O.2     1  UNL1       -0.3430
@<TRIPOS>BOND
     1    13     5    1
     2     3     2    1
     3     3     4    2
     4     5     4   ar
     5     5     6   ar
     6     7     6    2
     7     2     1    2
     8     4    11   ar
     9     6     8   ar
    10     1    15    1
    11     1    12    1
    12    16    15    2
    13    11    12    2
    14    11     9   ar
    15     8    14    1
    16     8     9   ar
    17    15    17   am
    18     9    10    2
    19    17    18    1
    20    17    19    1
    21    19    20    1
    22    20    21    1
    23    20    28    1
    24    21    22    1
    25    28    24    1
    26    22    24    2
    27    22    23    1
    28    24    27    1
    29    23    25    2
    30    27    26    2
    31    25    26    1
