@<TRIPOS>MOLECULE
75267_out_ligand_01.pdbqt
 38 41 0 0 0
SMALL
GASTEIGER

@<TRIPOS>ATOM
      1  O         16.1810  -21.6710  -10.5340 O.2     1  UNL1       -0.2770
      2  C         17.1640  -22.2480  -10.0760 C.2     1  UNL1        0.2290
      3  N         18.2960  -22.5580  -10.8000 N.am    1  UNL1       -0.1780
      4  C         19.0360  -21.5260  -11.3220 C.2     1  UNL1        0.3010
      5  O         18.7100  -20.3490  -11.3550 O.2     1  UNL1       -0.2540
      6  N         20.2540  -21.9780  -11.7810 N.am    1  UNL1       -0.3450
      7  H         18.9060  -23.2140  -10.3310 H       1  UNL1        0.1410
      8  H         20.2460  -22.9170  -12.1510 H       1  UNL1        0.1630
      9  C         17.1610  -22.8230   -8.6570 C.3     1  UNL1        0.2720
     10  O         16.5680  -21.9710   -7.6780 O.2     1  UNL1       -0.3420
     11  C         16.1810  -22.4970   -6.4710 C.2     1  UNL1        0.0850
     12  C         14.9480  -23.1380   -6.2770 C.2     1  UNL1        0.0380
     13  C         14.5790  -23.6120   -5.0160 C.2     1  UNL1        0.0030
     14  C         15.4340  -23.4530   -3.9330 C.2     1  UNL1        0.0010
     15  C         16.6630  -22.8230   -4.1100 C.2     1  UNL1        0.0200
     16  C         17.0520  -22.3330   -5.3690 C.2     1  UNL1        0.0650
     17  C         18.3960  -21.6600   -5.4230 C.2     1  UNL1        0.2540
     18  O         18.7970  -20.9980   -4.4680 O.2     1  UNL1       -0.2680
     19  N         19.1420  -21.8210   -6.5680 N.am    1  UNL1       -0.3530
     20  H         18.8080  -22.4660   -7.2710 H       1  UNL1        0.1630
     21  C         20.4980  -21.3390   -6.6970 C.3     1  UNL1        0.1610
     22  C         21.2560  -22.1970   -7.6780 C.2     1  UNL1       -0.0410
     23  C         20.6990  -23.3830   -8.1810 C.2     1  UNL1        0.0090
     24  C         21.4250  -24.1860   -9.0620 C.2     1  UNL1        0.0010
     25  C         22.7170  -23.8170   -9.4420 C.2     1  UNL1        0.0000
     26  C         23.2810  -22.6440   -8.9440 C.2     1  UNL1        0.0010
     27  C         22.5560  -21.8400   -8.0630 C.2     1  UNL1        0.0090
     28  C         21.2030  -21.0630  -12.4050 C.3     1  UNL1        0.1580
     29  C         22.4430  -21.7500  -12.9960 C.3     1  UNL1        0.1710
     30  C         23.6290  -21.7660  -12.0330 C.3     1  UNL1        0.2090
     31  O         24.7350  -22.4720  -12.6040 O.2     1  UNL1       -0.3460
     32  C         24.9630  -22.0830  -13.8990 C.2     1  UNL1        0.1020
     33  C         26.1910  -22.4320  -14.4530 C.2     1  UNL1        0.0390
     34  C         24.0290  -21.3770  -14.6600 C.2     1  UNL1        0.1020
     35  C         26.5000  -22.0500  -15.7600 C.2     1  UNL1        0.0030
     36  C         25.5770  -21.3230  -16.5120 C.2     1  UNL1        0.0030
     37  C         24.3400  -20.9850  -15.9610 C.2     1  UNL1        0.0390
     38  O         22.7920  -21.0210  -14.1910 O.2     1  UNL1       -0.3390
@<TRIPOS>BOND
     1    36    37    2
     2    36    35    1
     3    37    34    1
     4    35    33    2
     5    34    38    1
     6    34    32    2
     7    33    32    1
     8    38    29    1
     9    32    31    1
    10    29    28    1
    11    29    30    1
    12    31    30    1
    13    28     6    1
    14     8     6    1
    15     6     4   am
    16     5     4    2
    17     4     3   am
    18     3     7    1
    19     3     2   am
    20     1     2    2
    21     2     9    1
    22    25    24    2
    23    25    26    1
    24    24    23    1
    25    26    27    2
    26     9    10    1
    27    23    22    2
    28    27    22    1
    29    22    21    1
    30    10    11    1
    31    20    19    1
    32    21    19    1
    33    19    17   am
    34    11    12    2
    35    11    16    1
    36    12    13    1
    37    17    16    1
    38    17    18    2
    39    16    15    2
    40    13    14    2
    41    15    14    1
