@<TRIPOS>MOLECULE
75271_out_ligand_01.pdbqt
 37 39 0 0 0
SMALL
GASTEIGER

@<TRIPOS>ATOM
      1  C         22.4450  -22.7260  -11.3970 C.2     1  UNL1        0.0290
      2  C         21.7720  -23.1350  -10.2330 C.2     1  UNL1        0.0420
      3  C         20.5380  -22.5660   -9.8920 C.2     1  UNL1        0.0340
      4  C         19.9830  -21.6080  -10.7530 C.2     1  UNL1        0.0170
      5  C         20.6400  -21.2200  -11.9210 C.2     1  UNL1        0.0090
      6  C         21.8780  -21.7790  -12.2620 C.2     1  UNL1       -0.0400
      7  C         22.5650  -21.3040  -13.5110 C.3     1  UNL1        0.0500
      8  C         19.7590  -22.9210   -8.6550 C.2     1  UNL1        0.2560
      9  O         20.3960  -23.2750   -7.6650 O.2     1  UNL1       -0.2670
     10  N         18.3740  -22.8140   -8.7240 N.am    1  UNL1       -0.3230
     11  H         17.9560  -22.5230   -9.6000 H       1  UNL1        0.1690
     12  C         17.4420  -23.0960   -7.6970 C.2     1  UNL1        0.0360
     13  C         16.4720  -24.0730   -7.9780 C.2     1  UNL1        0.0320
     14  C         15.5110  -24.4170   -7.0270 C.2     1  UNL1        0.0450
     15  C         15.5190  -23.7930   -5.7830 C.2     1  UNL1        0.1320
     16  F         14.5870  -24.1670   -4.8950 F       1  UNL1       -0.2050
     17  C         16.4770  -22.8230   -5.4730 C.2     1  UNL1        0.0720
     18  C         17.4350  -22.4770   -6.4420 C.2     1  UNL1        0.0490
     19  C         16.5280  -22.1430   -4.1510 C.2     1  UNL1        0.2520
     20  N         17.7040  -21.5600   -3.7680 N.am    1  UNL1       -0.3660
     21  H         18.5150  -21.5090   -4.3710 H       1  UNL1        0.1590
     22  H         17.7090  -21.0520   -2.8940 H       1  UNL1        0.1590
     23  O         15.5550  -22.0950   -3.4080 O.2     1  UNL1       -0.2680
     24  N         23.7400  -23.2800  -11.6930 N.pl3   1  UNL1       -0.1810
     25  H         23.8370  -24.2140  -11.2910 H       1  UNL1        0.1460
     26  S         25.0470  -22.3310  -11.1230 S.O2    1  UNL1        0.2460
     27  O         24.5330  -21.2200  -10.3550 O.2     1  UNL1       -0.2050
     28  O         25.9850  -23.2510  -10.5110 O.2     1  UNL1       -0.2050
     29  C         25.7250  -21.7220  -12.6820 C.2     1  UNL1        0.0860
     30  C         26.2650  -20.4130  -12.7660 C.2     1  UNL1       -0.0380
     31  C         26.7110  -19.9360  -14.0150 C.2     1  UNL1        0.0150
     32  C         26.3860  -19.4630  -11.6050 C.3     1  UNL1        0.0500
     33  C         26.6720  -20.7340  -15.1590 C.2     1  UNL1       -0.0610
     34  C         27.1180  -20.2030  -16.4890 C.3     1  UNL1        0.0480
     35  C         26.1590  -22.0280  -15.0590 C.2     1  UNL1        0.0150
     36  C         25.6920  -22.5470  -13.8360 C.2     1  UNL1       -0.0380
     37  C         25.1540  -23.9530  -13.8610 C.3     1  UNL1        0.0500
@<TRIPOS>BOND
     1    34    33    1
     2    33    35    2
     3    33    31    1
     4    35    36    1
     5    31    30    2
     6    37    36    1
     7    36    29    2
     8     7     6    1
     9    30    29    1
    10    30    32    1
    11    29    26    1
    12     6     5    1
    13     6     1    2
    14     5     4    2
    15    24     1    1
    16    24    25    1
    17    24    26    1
    18     1     2    1
    19    26    28    2
    20    26    27    2
    21     4     3    1
    22     2     3    2
    23     3     8    1
    24    11    10    1
    25    10     8   am
    26    10    12    1
    27     8     9    2
    28    13    12    2
    29    13    14    1
    30    12    18    1
    31    14    15    2
    32    18    17    2
    33    15    17    1
    34    15    16    1
    35    17    19    1
    36    21    20    1
    37    19    20   am
    38    19    23    2
    39    20    22    1
