@<TRIPOS>MOLECULE
75289_out_ligand_01.pdbqt
 35 38 0 0 0
SMALL
GASTEIGER

@<TRIPOS>ATOM
      1  C         22.2070  -23.3110  -10.2100 C.3     1  UNL1        0.0510
      2  C         23.0680  -22.7110   -9.0980 C.3     1  UNL1        0.1080
      3  C         22.2180  -22.0310   -8.0360 C.2     1  UNL1        0.2220
      4  N         20.9850  -22.6410   -7.8710 N.am    1  UNL1       -0.3270
      5  H         20.7890  -23.4310   -8.4690 H       1  UNL1        0.1690
      6  O         22.6410  -21.0670   -7.4040 O.2     1  UNL1       -0.2730
      7  C         19.9490  -22.2590   -6.9920 C.2     1  UNL1        0.0360
      8  C         20.0210  -21.1630   -6.1280 C.2     1  UNL1        0.0290
      9  C         18.9570  -20.8540   -5.2710 C.2     1  UNL1        0.0040
     10  C         17.8060  -21.6340   -5.2730 C.2     1  UNL1        0.0250
     11  C         17.7210  -22.7190   -6.1490 C.2     1  UNL1        0.0760
     12  C         18.7870  -23.0410   -7.0000 C.2     1  UNL1        0.0540
     13  S         16.2630  -23.7270   -6.1430 S.O2    1  UNL1        0.2390
     14  O         16.1840  -24.4170   -7.4070 O.2     1  UNL1       -0.2060
     15  O         16.1800  -24.4110   -4.8720 O.2     1  UNL1       -0.2060
     16  N         15.0470  -22.5660   -6.1890 N.3     1  UNL1       -0.2250
     17  H         14.2870  -22.7890   -6.8320 H       1  UNL1        0.1360
     18  H         14.7080  -22.3980   -5.2430 H       1  UNL1        0.1360
     19  C         22.0880  -22.4010  -11.4030 C.ar    1  UNL1       -0.0180
     20  C         20.9310  -21.7980  -11.8890 C.ar    1  UNL1        0.0500
     21  N         21.2770  -21.1150  -13.0320 N.ar    1  UNL1       -0.3540
     22  C         22.6180  -21.2310  -13.2950 C.ar    1  UNL1        0.0430
     23  H         20.6280  -20.5740  -13.5940 H       1  UNL1        0.1660
     24  C         23.3820  -20.6990  -14.3420 C.2     1  UNL1        0.0300
     25  C         23.1620  -22.0160  -12.2770 C.ar    1  UNL1       -0.0010
     26  C         24.7540  -20.9730  -14.3430 C.2     1  UNL1        0.0020
     27  C         25.3310  -21.7490  -13.3420 C.2     1  UNL1        0.0010
     28  C         24.5480  -22.2760  -12.3070 C.2     1  UNL1        0.0140
     29  C         19.5520  -21.8010  -11.4000 C.2     1  UNL1       -0.0090
     30  C         18.7310  -20.6850  -11.6000 C.2     1  UNL1        0.0170
     31  C         17.4090  -20.6950  -11.1530 C.2     1  UNL1        0.0430
     32  C         16.9160  -21.8190  -10.4990 C.2     1  UNL1        0.1160
     33  F         15.6490  -21.8260  -10.0770 F       1  UNL1       -0.2060
     34  C         17.7190  -22.9290  -10.2810 C.2     1  UNL1        0.0430
     35  C         19.0380  -22.9240  -10.7350 C.2     1  UNL1        0.0170
@<TRIPOS>BOND
     1    26    24    1
     2    26    27    2
     3    24    22    2
     4    23    21    1
     5    27    28    1
     6    22    21   ar
     7    22    25   ar
     8    21    20   ar
     9    28    25    2
    10    25    19   ar
    11    20    19   ar
    12    20    29    1
    13    30    29    2
    14    30    31    1
    15    19     1    1
    16    29    35    1
    17    31    32    2
    18    35    34    2
    19    32    34    1
    20    32    33    1
    21     1     2    1
    22     2     3    1
    23     5     4    1
    24     3     4   am
    25     3     6    2
    26     4     7    1
    27    14    13    2
    28    12     7    2
    29    12    11    1
    30     7     8    1
    31    17    16    1
    32    16    13    1
    33    16    18    1
    34    11    13    1
    35    11    10    2
    36    13    15    2
    37     8     9    2
    38    10     9    1
