@<TRIPOS>MOLECULE
75308_out_ligand_01.pdbqt
 38 42 0 0 0
SMALL
GASTEIGER

@<TRIPOS>ATOM
      1  C         20.6520  -23.1270  -10.2050 C.2     1  UNL1        0.2560
      2  O         20.8330  -24.1290   -9.5240 O.2     1  UNL1       -0.2670
      3  N         19.5020  -22.3590  -10.2660 N.am    1  UNL1       -0.3230
      4  H         19.4560  -21.6570  -10.9920 H       1  UNL1        0.1690
      5  C         21.7490  -22.6850  -11.1140 C.2     1  UNL1        0.0320
      6  C         21.5170  -21.8230  -12.1910 C.2     1  UNL1        0.0180
      7  C         22.5780  -21.4340  -13.0170 C.2     1  UNL1        0.0170
      8  C         23.8860  -21.8860  -12.7760 C.2     1  UNL1        0.0190
      9  C         24.1090  -22.7340  -11.6800 C.2     1  UNL1        0.0170
     10  C         23.0510  -23.1260  -10.8530 C.2     1  UNL1        0.0180
     11  C         24.9680  -21.4630  -13.6570 C.ar    1  UNL1        0.2030
     12  N         26.0590  -22.1030  -14.0200 N.ar    1  UNL1       -0.1210
     13  N         26.7470  -21.2540  -14.8610 N.ar    1  UNL1       -0.1210
     14  C         26.0330  -20.1490  -14.9600 C.ar    1  UNL1        0.2030
     15  O         24.8810  -20.2140  -14.2120 O.2     1  UNL1       -0.2680
     16  C         26.2700  -18.9120  -15.7120 C.2     1  UNL1        0.0250
     17  C         26.8180  -17.7920  -15.0530 C.2     1  UNL1        0.0160
     18  C         27.0610  -16.5940  -15.7270 C.2     1  UNL1        0.0010
     19  C         26.7610  -16.4890  -17.0790 C.2     1  UNL1        0.0010
     20  C         26.2170  -17.5800  -17.7550 C.2     1  UNL1        0.0070
     21  C         25.9670  -18.7960  -17.0890 C.2     1  UNL1       -0.0470
     22  C         25.3790  -19.9300  -17.8890 C.3     1  UNL1        0.0490
     23  C         18.3310  -22.5080   -9.4930 C.2     1  UNL1        0.0350
     24  C         17.1080  -22.3530  -10.1530 C.2     1  UNL1        0.0290
     25  C         15.9090  -22.4890   -9.4580 C.2     1  UNL1        0.0030
     26  C         15.9200  -22.7740   -8.0940 C.2     1  UNL1        0.0100
     27  C         17.1320  -22.9200   -7.3920 C.2     1  UNL1       -0.0190
     28  C         18.3310  -22.7860   -8.1200 C.2     1  UNL1        0.0390
     29  C         17.1240  -23.2420   -5.9000 C.3     1  UNL1        0.1390
     30  C         17.8070  -24.5450   -5.4690 C.3     1  UNL1        0.0540
     31  N         15.7620  -23.2240   -5.3930 N.am    1  UNL1       -0.3210
     32  C         15.5750  -22.2860   -4.4100 C.2     1  UNL1        0.3240
     33  H         14.9910  -23.7490   -5.7830 H       1  UNL1        0.1650
     34  O         14.5110  -22.0360   -3.8750 O.2     1  UNL1       -0.2470
     35  N         16.7530  -21.6700   -4.1680 N.am    1  UNL1       -0.2770
     36  C         17.7140  -22.1000   -5.0350 C.2     1  UNL1        0.2580
     37  H         16.8680  -20.9080   -3.5220 H       1  UNL1        0.1730
     38  O         18.8470  -21.6460   -5.0880 O.2     1  UNL1       -0.2700
@<TRIPOS>BOND
     1    22    21    1
     2    20    21    1
     3    20    19    2
     4    21    16    2
     5    19    18    1
     6    18    17    2
     7    16    17    1
     8    16    14    1
     9    14    13   ar
    10    14    15   ar
    11    13    12   ar
    12    15    11   ar
    13    12    11   ar
    14    11     8    1
    15     7     8    2
    16     7     6    1
    17     8     9    1
    18     6     5    2
    19     9    10    2
    20     5    10    1
    21     5     1    1
    22     4     3    1
    23     3     1   am
    24     3    23    1
    25     1     2    2
    26    24    23    2
    27    24    25    1
    28    23    28    1
    29    25    26    2
    30    28    27    2
    31    26    27    1
    32    27    29    1
    33    29    30    1
    34    29    31    1
    35    29    36    1
    36    33    31    1
    37    31    32   am
    38    38    36    2
    39    36    35   am
    40    32    35   am
    41    32    34    2
    42    35    37    1
