@<TRIPOS>MOLECULE
75300_out_ligand_01.pdbqt
 35 38 0 0 0
SMALL
GASTEIGER

@<TRIPOS>ATOM
      1  C         23.7990  -22.4010  -11.2890 C.2     1  UNL1        0.0340
      2  C         24.1620  -23.0500  -10.1040 C.2     1  UNL1        0.0300
      3  C         23.1810  -23.5730   -9.2550 C.2     1  UNL1        0.0190
      4  C         21.8260  -23.4540   -9.5920 C.2     1  UNL1        0.0320
      5  C         21.4560  -22.8240  -10.7810 C.2     1  UNL1        0.0190
      6  C         22.4390  -22.2870  -11.6160 C.2     1  UNL1        0.0300
      7  C         20.7660  -23.9900   -8.7040 C.2     1  UNL1        0.2520
      8  O         20.5460  -25.1980   -8.6670 O.2     1  UNL1       -0.2680
      9  N         20.0530  -23.0380   -7.9990 N.am    1  UNL1       -0.3440
     10  H         20.1220  -22.0810   -8.3200 H       1  UNL1        0.1630
     11  C         18.8090  -23.3880   -7.3320 C.3     1  UNL1        0.1510
     12  C         18.6180  -22.6570   -6.0020 C.2     1  UNL1       -0.0310
     13  C         17.9260  -23.2130   -4.9130 C.2     1  UNL1        0.0090
     14  C         17.7780  -22.4980   -3.7210 C.2     1  UNL1        0.0010
     15  C         18.3090  -21.2120   -3.6000 C.2     1  UNL1        0.0000
     16  C         18.9880  -20.6420   -4.6690 C.2     1  UNL1        0.0010
     17  C         19.1380  -21.3550   -5.8610 C.2     1  UNL1        0.0090
     18  C         17.6640  -23.1710   -8.3210 C.2     1  UNL1       -0.0310
     19  C         17.7880  -22.1900   -9.3180 C.2     1  UNL1        0.0090
     20  C         16.7430  -21.9430  -10.2090 C.2     1  UNL1        0.0010
     21  C         15.5570  -22.6750  -10.1130 C.2     1  UNL1        0.0000
     22  C         15.4130  -23.6440   -9.1240 C.2     1  UNL1        0.0010
     23  C         16.4540  -23.8830   -8.2260 C.2     1  UNL1        0.0090
     24  N         24.7250  -21.8610  -12.2010 N.am    1  UNL1       -0.3270
     25  C         25.6890  -20.8950  -11.9690 C.2     1  UNL1        0.2310
     26  O         25.8780  -20.2950  -10.9090 O.2     1  UNL1       -0.2720
     27  H         24.6990  -22.2640  -13.1410 H       1  UNL1        0.1690
     28  C         26.5180  -20.5570  -13.1980 C.3     1  UNL1        0.1850
     29  S         25.5520  -19.6270  -14.4250 S.3     1  UNL1       -0.0810
     30  C         25.0730  -20.9070  -15.4710 C.2     1  UNL1        0.1910
     31  N         24.0260  -21.6830  -15.3030 N.2     1  UNL1       -0.1230
     32  N         23.9400  -22.5260  -16.3870 N.2     1  UNL1       -0.1430
     33  C         24.9280  -22.2270  -17.1980 C.2     1  UNL1        0.2350
     34  N         25.6920  -21.2350  -16.6460 N.pl3   1  UNL1       -0.3220
     35  C         26.8810  -20.6900  -17.2370 C.3     1  UNL1        0.1590
@<TRIPOS>BOND
     1    35    34    1
     2    33    34    1
     3    33    32    2
     4    34    30    1
     5    32    31    1
     6    30    31    2
     7    30    29    1
     8    29    28    1
     9    28    25    1
    10    27    24    1
    11    24    25   am
    12    24     1    1
    13    25    26    2
    14     6     1    2
    15     6     5    1
    16     1     2    1
    17     5     4    2
    18    20    21    2
    19    20    19    1
    20    21    22    1
    21     2     3    2
    22     4     3    1
    23     4     7    1
    24    19    18    2
    25    22    23    2
    26     7     8    2
    27     7     9   am
    28    18    23    1
    29    18    11    1
    30    10     9    1
    31     9    11    1
    32    11    12    1
    33    12    17    2
    34    12    13    1
    35    17    16    1
    36    13    14    2
    37    16    15    2
    38    14    15    1
