@<TRIPOS>MOLECULE
75317_out_ligand_01.pdbqt
 33 36 0 0 0
SMALL
GASTEIGER

@<TRIPOS>ATOM
      1  C         18.0730  -23.2250   -9.2190 C.2     1  UNL1        0.0790
      2  C         19.2150  -23.8580   -8.7170 C.2     1  UNL1        0.0260
      3  C         20.4570  -23.6170   -9.3100 C.2     1  UNL1        0.0180
      4  C         20.5460  -22.7610  -10.4160 C.2     1  UNL1        0.0330
      5  C         19.3960  -22.1370  -10.9180 C.2     1  UNL1        0.0180
      6  C         18.1530  -22.3790  -10.3290 C.2     1  UNL1        0.0260
      7  C         21.8530  -22.4670  -11.0640 C.2     1  UNL1        0.2690
      8  O         22.8670  -22.7310  -10.4330 O.2     1  UNL1       -0.2670
      9  N         21.7440  -21.8780  -12.3090 N.am    1  UNL1       -0.1530
     10  H         20.8340  -21.6010  -12.6430 H       1  UNL1        0.1870
     11  C         22.8470  -21.5760  -13.0710 C.ar    1  UNL1        0.7080
     12  N         22.9100  -21.2700  -14.3450 N.ar    1  UNL1       -0.0620
     13  C         24.2360  -21.0500  -14.6180 C.ar    1  UNL1        0.1030
     14  C         24.8590  -20.6960  -15.8230 C.2     1  UNL1        0.0340
     15  C         25.0100  -21.2210  -13.4780 C.ar    1  UNL1        0.0780
     16  C         26.2500  -20.5270  -15.8360 C.2     1  UNL1        0.0020
     17  C         27.0020  -20.7060  -14.6720 C.2     1  UNL1        0.0020
     18  C         26.3970  -21.0590  -13.4590 C.2     1  UNL1        0.0320
     19  N         24.1000  -21.5540  -12.5090 N.ar    1  UNL1       -0.1870
     20  H         24.3190  -21.7590  -11.5490 H       1  UNL1        0.1840
     21  S         16.4910  -23.5270   -8.4570 S.O2    1  UNL1        0.2630
     22  O         15.4950  -23.5110   -9.5080 O.2     1  UNL1       -0.2000
     23  O         16.6360  -24.6720   -7.5840 O.2     1  UNL1       -0.2000
     24  N         16.2270  -22.1370   -7.5380 N.pl3   1  UNL1       -0.2800
     25  H         16.5670  -21.2910   -7.9910 H       1  UNL1        0.1790
     26  C         16.2660  -22.2120   -6.1160 C.2     1  UNL1        0.0490
     27  C         15.1130  -22.6270   -5.4440 C.2     1  UNL1        0.0310
     28  C         15.1090  -22.7530   -4.0590 C.2     1  UNL1        0.0030
     29  C         16.2590  -22.4500   -3.3360 C.2     1  UNL1        0.0070
     30  C         17.4260  -22.0210   -3.9870 C.2     1  UNL1       -0.0540
     31  C         18.6440  -21.7120   -3.1530 C.3     1  UNL1        0.0490
     32  C         17.4450  -21.9180   -5.4010 C.2     1  UNL1       -0.0290
     33  C         18.7030  -21.4570   -6.0920 C.3     1  UNL1        0.0510
@<TRIPOS>BOND
     1    16    14    1
     2    16    17    2
     3    14    13    2
     4    17    18    1
     5    13    12   ar
     6    13    15   ar
     7    12    11   ar
     8    15    18    2
     9    15    19   ar
    10    11    19   ar
    11    11     9    1
    12    10     9    1
    13    19    20    1
    14     9     7   am
    15     7     8    2
    16     7     4    1
    17     5     4    2
    18     5     6    1
    19     4     3    1
    20     6     1    2
    21    22    21    2
    22     3     2    2
    23     1     2    1
    24     1    21    1
    25    21    23    2
    26    21    24    1
    27    25    24    1
    28    24    26    1
    29    26    27    2
    30    26    32    1
    31    33    32    1
    32    27    28    1
    33    32    30    2
    34    28    29    2
    35    30    29    1
    36    30    31    1
