@<TRIPOS>MOLECULE
7531_out_ligand_01.pdbqt
 33 36 0 0 0
SMALL
GASTEIGER

@<TRIPOS>ATOM
      1  S         16.2520  -22.7650   -9.0810 S.O2    1  UNL1        0.2720
      2  O         14.9290  -22.7600   -9.6670 O.2     1  UNL1       -0.2030
      3  O         16.8570  -24.0110   -8.6470 O.2     1  UNL1       -0.2030
      4  C         17.3480  -22.0860  -10.2900 C.ar    1  UNL1        0.2330
      5  N         17.2020  -20.9340  -10.9140 N.ar    1  UNL1       -0.1270
      6  N         18.2780  -20.6700  -11.7440 N.ar    1  UNL1       -0.1220
      7  C         19.1700  -21.6300  -11.7060 C.ar    1  UNL1        0.1970
      8  S         18.8010  -22.9180  -10.6470 S.2     1  UNL1       -0.0150
      9  N         20.3620  -21.7680  -12.3630 N.am    1  UNL1       -0.3000
     10  C         21.5680  -21.6290  -11.7140 C.2     1  UNL1        0.2570
     11  O         21.7360  -21.3530  -10.5330 O.2     1  UNL1       -0.2670
     12  H         20.3180  -21.8960  -13.3620 H       1  UNL1        0.1710
     13  C         22.7670  -21.8040  -12.5830 C.2     1  UNL1        0.0320
     14  C         23.8040  -22.6250  -12.1270 C.2     1  UNL1        0.0170
     15  C         24.9480  -22.8110  -12.9060 C.2     1  UNL1        0.0070
     16  C         25.0680  -22.1800  -14.1500 C.2     1  UNL1       -0.0620
     17  C         26.2810  -22.4110  -15.0030 C.3     1  UNL1        0.0480
     18  C         24.0130  -21.3860  -14.6180 C.2     1  UNL1        0.0070
     19  C         22.8660  -21.1960  -13.8400 C.2     1  UNL1        0.0170
     20  N         16.2640  -21.7500   -7.7050 N.pl3   1  UNL1       -0.1790
     21  H         17.0900  -21.1510   -7.7880 H       1  UNL1        0.1460
     22  C         16.1890  -22.4200   -6.4330 C.2     1  UNL1        0.0340
     23  C         14.9540  -22.9090   -5.9960 C.2     1  UNL1        0.0250
     24  C         14.8580  -23.6040   -4.7910 C.2     1  UNL1        0.0020
     25  C         15.9950  -23.8130   -4.0150 C.2     1  UNL1        0.0010
     26  C         17.2300  -23.3210   -4.4410 C.2     1  UNL1        0.0140
     27  C         17.3500  -22.6200   -5.6530 C.2     1  UNL1       -0.0040
     28  C         18.6660  -22.1070   -6.0550 C.2     1  UNL1       -0.0240
     29  C         19.4180  -22.7680   -7.0400 C.2     1  UNL1        0.0120
     30  C         20.6790  -22.2960   -7.4090 C.2     1  UNL1        0.0010
     31  C         21.2020  -21.1580   -6.8000 C.2     1  UNL1        0.0000
     32  C         20.4660  -20.4890   -5.8250 C.2     1  UNL1        0.0010
     33  C         19.2040  -20.9590   -5.4570 C.2     1  UNL1        0.0120
@<TRIPOS>BOND
     1    17    16    1
     2    18    16    2
     3    18    19    1
     4    16    15    1
     5    19    13    2
     6    12     9    1
     7    15    14    2
     8    13    14    1
     9    13    10    1
    10     9    10   am
    11     9     7    1
    12     6     7   ar
    13     6     5   ar
    14    10    11    2
    15     7     8   ar
    16     5     4   ar
    17     8     4   ar
    18     4     1    1
    19     2     1    2
    20     1     3    2
    21     1    20    1
    22    21    20    1
    23    20    22    1
    24    30    29    1
    25    30    31    2
    26    29    28    2
    27    31    32    1
    28    22    23    2
    29    22    27    1
    30    28    27    1
    31    28    33    1
    32    23    24    1
    33    32    33    2
    34    27    26    2
    35    24    25    2
    36    26    25    1
