@<TRIPOS>MOLECULE
75321_out_ligand_01.pdbqt
 35 38 0 0 0
SMALL
GASTEIGER

@<TRIPOS>ATOM
      1  O         22.3990  -23.2890  -10.1390 O.2     1  UNL1       -0.2680
      2  C         21.9540  -22.6230  -11.0660 C.2     1  UNL1        0.2510
      3  N         22.6960  -22.2170  -12.1540 N.am    1  UNL1       -0.3530
      4  H         22.2190  -21.8780  -12.9760 H       1  UNL1        0.1630
      5  C         20.5260  -22.2080  -11.0610 C.2     1  UNL1        0.0330
      6  C         20.0300  -21.2630  -11.9660 C.2     1  UNL1        0.0170
      7  C         18.7020  -20.8470  -11.8750 C.2     1  UNL1        0.0030
      8  C         17.8680  -21.3710  -10.8840 C.2     1  UNL1        0.0240
      9  C         18.3430  -22.3500  -10.0060 C.2     1  UNL1        0.0230
     10  C         19.6830  -22.7370  -10.0740 C.2     1  UNL1        0.0410
     11  N         17.5960  -22.8330   -8.8780 N.pl3   1  UNL1       -0.1810
     12  H         17.1830  -23.7390   -9.1040 H       1  UNL1        0.1460
     13  S         18.3970  -22.9890   -7.3900 S.O2    1  UNL1        0.2450
     14  O         19.3760  -21.9350   -7.2360 O.2     1  UNL1       -0.2060
     15  O         18.7620  -24.3870   -7.2700 O.2     1  UNL1       -0.2060
     16  C         17.0690  -22.6680   -6.2590 C.2     1  UNL1        0.0740
     17  C         17.3480  -22.5520   -4.8930 C.2     1  UNL1        0.0250
     18  C         16.3010  -22.3330   -3.9970 C.2     1  UNL1        0.0020
     19  C         14.9900  -22.2360   -4.4630 C.2     1  UNL1        0.0000
     20  C         14.7170  -22.3680   -5.8270 C.2     1  UNL1        0.0020
     21  C         15.7560  -22.5870   -6.7310 C.2     1  UNL1        0.0250
     22  C         24.0750  -22.6190  -12.3200 C.3     1  UNL1        0.1620
     23  C         25.0030  -21.4300  -12.4150 C.2     1  UNL1       -0.0330
     24  C         25.5920  -20.9660  -11.2200 C.2     1  UNL1        0.0090
     25  C         26.4590  -19.8770  -11.2180 C.2     1  UNL1        0.0010
     26  C         26.7550  -19.2260  -12.4090 C.2     1  UNL1        0.0010
     27  C         26.1950  -19.6760  -13.6020 C.2     1  UNL1        0.0090
     28  C         25.3210  -20.7830  -13.6300 C.2     1  UNL1       -0.0220
     29  C         24.7910  -21.2380  -14.9780 C.3     1  UNL1        0.3110
     30  N         25.7590  -21.9840  -15.7970 N.3     1  UNL1        0.0920
     31  C         25.4720  -23.4250  -15.8820 C.3     1  UNL1        0.2720
     32  C         24.2620  -23.7720  -16.7530 C.3     1  UNL1        0.0300
     33  C         24.3870  -23.1620  -18.1450 C.3     1  UNL1        0.0030
     34  C         24.6960  -21.6700  -18.0620 C.3     1  UNL1        0.0300
     35  C         25.8920  -21.4050  -17.1440 C.3     1  UNL1        0.2720
@<TRIPOS>BOND
     1    33    34    1
     2    33    32    1
     3    34    35    1
     4    35    30    1
     5    32    31    1
     6    31    30    1
     7    30    29    1
     8    29    28    1
     9    28    27    1
    10    28    23    2
    11    27    26    2
    12     4     3    1
    13    23    22    1
    14    23    24    1
    15    26    25    1
    16    22     3    1
    17     3     2   am
    18     6     7    1
    19     6     5    2
    20     7     8    2
    21    24    25    2
    22     2     5    1
    23     2     1    2
    24     5    10    1
    25     8     9    1
    26    10     9    2
    27     9    11    1
    28    12    11    1
    29    11    13    1
    30    13    15    2
    31    13    14    2
    32    13    16    1
    33    21    16    2
    34    21    20    1
    35    16    17    1
    36    20    19    2
    37    17    18    2
    38    19    18    1
