@<TRIPOS>MOLECULE
75328_out_ligand_01.pdbqt
 39 42 0 0 0
SMALL
GASTEIGER

@<TRIPOS>ATOM
      1  C         20.6870  -22.6540  -10.0460 C.2     1  UNL1        0.0320
      2  C         21.6880  -23.1470   -9.2090 C.2     1  UNL1        0.0190
      3  C         23.0180  -23.1730   -9.6450 C.2     1  UNL1        0.0300
      4  C         23.3520  -22.7280  -10.9250 C.2     1  UNL1        0.0340
      5  C         22.3360  -22.2530  -11.7670 C.2     1  UNL1        0.0300
      6  C         21.0080  -22.2090  -11.3310 C.2     1  UNL1        0.0190
      7  N         24.6610  -22.7270  -11.4440 N.am    1  UNL1       -0.3260
      8  C         25.6070  -21.7140  -11.3560 C.2     1  UNL1        0.2400
      9  O         25.4760  -20.6520  -10.7530 O.2     1  UNL1       -0.2710
     10  H         24.9510  -23.5770  -11.9260 H       1  UNL1        0.1690
     11  C         26.9330  -22.0650  -12.0360 C.3     1  UNL1        0.2380
     12  N         26.7210  -22.6960  -13.3270 N.am    1  UNL1       -0.2790
     13  C         26.7770  -24.0470  -13.5260 C.2     1  UNL1        0.2280
     14  O         26.9280  -24.9110  -12.6760 O.2     1  UNL1       -0.2730
     15  C         26.6840  -24.3100  -15.0040 C.3     1  UNL1        0.1220
     16  C         26.1590  -22.9830  -15.5870 C.3     1  UNL1        0.0500
     17  C         26.8420  -22.6550  -16.9310 C.3     1  UNL1        0.0200
     18  C         26.5670  -22.0090  -14.4950 C.2     1  UNL1        0.2360
     19  C         24.6130  -22.9790  -15.6800 C.3     1  UNL1        0.0200
     20  C         25.9690  -21.7630  -17.8110 C.3     1  UNL1        0.0010
     21  C         24.6340  -22.4290  -18.1530 C.3     1  UNL1        0.0000
     22  C         24.1330  -23.3850  -17.0690 C.3     1  UNL1        0.0010
     23  O         26.7380  -20.8020  -14.6240 O.2     1  UNL1       -0.2720
     24  C         19.2870  -22.6260   -9.5520 C.2     1  UNL1        0.2560
     25  N         19.0570  -23.4670   -8.4770 N.am    1  UNL1       -0.3230
     26  H         19.7990  -24.1200   -8.2470 H       1  UNL1        0.1690
     27  O         18.4640  -21.9330  -10.1450 O.2     1  UNL1       -0.2670
     28  C         17.8550  -23.6080   -7.7570 C.2     1  UNL1        0.0360
     29  C         16.6490  -24.0200   -8.3340 C.2     1  UNL1        0.0290
     30  C         15.4790  -24.1080   -7.5690 C.2     1  UNL1        0.0040
     31  C         15.5080  -23.7960   -6.2120 C.2     1  UNL1        0.0250
     32  C         16.7150  -23.4050   -5.6290 C.2     1  UNL1        0.0760
     33  C         17.8820  -23.2910   -6.3930 C.2     1  UNL1        0.0540
     34  S         16.7520  -23.0390   -3.8940 S.O2    1  UNL1        0.2390
     35  O         16.6220  -24.2790   -3.1620 O.2     1  UNL1       -0.2060
     36  O         17.8200  -22.1000   -3.6520 O.2     1  UNL1       -0.2060
     37  N         15.2800  -22.2430   -3.6760 N.3     1  UNL1       -0.2250
     38  H         14.5680  -22.9340   -3.4380 H       1  UNL1        0.1360
     39  H         14.9970  -21.6840   -4.4870 H       1  UNL1        0.1360
@<TRIPOS>BOND
     1    21    20    1
     2    21    22    1
     3    20    17    1
     4    22    19    1
     5    17    16    1
     6    19    16    1
     7    16    15    1
     8    16    18    1
     9    15    13    1
    10    23    18    2
    11    18    12   am
    12    13    12   am
    13    13    14    2
    14    12    11    1
    15    11     8    1
    16    10     7    1
    17     5     6    1
    18     5     4    2
    19     7     8   am
    20     7     4    1
    21     8     9    2
    22     6     1    2
    23     4     3    1
    24    27    24    2
    25     1    24    1
    26     1     2    1
    27     3     2    2
    28    24    25   am
    29    25    26    1
    30    25    28    1
    31    29    28    2
    32    29    30    1
    33    28    33    1
    34    30    31    2
    35    33    32    2
    36    31    32    1
    37    32    34    1
    38    39    37    1
    39    34    37    1
    40    34    36    2
    41    34    35    2
    42    37    38    1
