@<TRIPOS>MOLECULE
75331_out_ligand_01.pdbqt
 28 30 0 0 0
SMALL
GASTEIGER

@<TRIPOS>ATOM
      1  C         20.6370  -22.4020  -10.8820 C.2     1  UNL1        0.2520
      2  O         19.4930  -22.0830  -11.1700 O.2     1  UNL1       -0.2680
      3  N         21.0220  -23.0970   -9.7570 N.am    1  UNL1       -0.3490
      4  H         22.0010  -23.3300   -9.6710 H       1  UNL1        0.1630
      5  C         21.7480  -22.0160  -11.7870 C.2     1  UNL1        0.0320
      6  C         23.0660  -22.4200  -11.5190 C.2     1  UNL1        0.0180
      7  C         24.0960  -22.0530  -12.3860 C.2     1  UNL1        0.0260
      8  C         23.8010  -21.2990  -13.5260 C.2     1  UNL1        0.0790
      9  C         22.4890  -20.8930  -13.8000 C.2     1  UNL1        0.0260
     10  C         21.4570  -21.2680  -12.9340 C.2     1  UNL1        0.0180
     11  S         25.1220  -20.8120  -14.6100 S.O2    1  UNL1        0.2580
     12  O         25.9690  -21.9630  -14.8120 O.2     1  UNL1       -0.2010
     13  O         25.6500  -19.5490  -14.1600 O.2     1  UNL1       -0.2010
     14  N         24.3120  -20.5710  -16.0530 N.3     1  UNL1       -0.3200
     15  C         25.0170  -20.7950  -17.3020 C.3     1  UNL1        0.1590
     16  H         23.3200  -20.7960  -16.0060 H       1  UNL1        0.1710
     17  C         20.1150  -23.8580   -8.9080 C.3     1  UNL1        0.1140
     18  C         20.6030  -25.2730   -8.5710 C.3     1  UNL1        0.0370
     19  C         19.6650  -22.9950   -7.7310 C.2     1  UNL1       -0.0250
     20  C         20.5200  -21.9860   -7.2540 C.2     1  UNL1        0.0100
     21  C         20.1470  -21.1660   -6.1960 C.2     1  UNL1        0.0020
     22  C         18.8980  -21.3270   -5.6020 C.2     1  UNL1        0.0120
     23  C         17.9980  -22.2870   -6.0710 C.2     1  UNL1       -0.0250
     24  C         16.7260  -22.3900   -5.4770 C.2     1  UNL1        0.0120
     25  C         18.3630  -23.1400   -7.1450 C.2     1  UNL1       -0.0180
     26  C         15.7930  -23.3130   -5.9330 C.2     1  UNL1        0.0010
     27  C         16.1220  -24.1540   -6.9830 C.2     1  UNL1        0.0010
     28  C         17.3880  -24.0750   -7.5710 C.2     1  UNL1        0.0130
@<TRIPOS>BOND
     1    15    14    1
     2    14    16    1
     3    14    11    1
     4    12    11    2
     5    11    13    2
     6    11     8    1
     7     9     8    2
     8     9    10    1
     9     8     7    1
    10    10     5    2
    11     7     6    2
    12     5     6    1
    13     5     1    1
    14     2     1    2
    15     1     3   am
    16     3     4    1
    17     3    17    1
    18    17    18    1
    19    17    19    1
    20    19    20    2
    21    19    25    1
    22    28    25    1
    23    28    27    2
    24    20    21    1
    25    25    23    2
    26    27    26    1
    27    21    22    2
    28    23    22    1
    29    23    24    1
    30    26    24    2
