@<TRIPOS>MOLECULE
75330_out_ligand_01.pdbqt
 36 39 0 0 0
SMALL
GASTEIGER

@<TRIPOS>ATOM
      1  C         20.9120  -22.5200   -7.7610 C.2     1  UNL1        0.0320
      2  C         21.9410  -21.5970   -7.9740 C.2     1  UNL1        0.0190
      3  C         23.0170  -21.9180   -8.8100 C.2     1  UNL1        0.0300
      4  C         23.0790  -23.1640   -9.4460 C.2     1  UNL1        0.0340
      5  C         22.0440  -24.0770   -9.2450 C.2     1  UNL1        0.0300
      6  C         20.9620  -23.7580   -8.4140 C.2     1  UNL1        0.0190
      7  C         19.7810  -22.1290   -6.8660 C.2     1  UNL1        0.2560
      8  N         18.6540  -22.9110   -6.9730 N.am    1  UNL1       -0.3210
      9  H         18.6610  -23.7380   -7.5620 H       1  UNL1        0.1690
     10  O         19.9430  -21.1820   -6.1040 O.2     1  UNL1       -0.2670
     11  C         17.4100  -22.7570   -6.3270 C.2     1  UNL1        0.0560
     12  C         17.2560  -22.3050   -5.0170 C.2     1  UNL1        0.0310
     13  C         15.9780  -22.1630   -4.4730 C.2     1  UNL1        0.0020
     14  C         14.8530  -22.4710   -5.2350 C.2     1  UNL1        0.0020
     15  C         14.9990  -22.9240   -6.5480 C.2     1  UNL1        0.0260
     16  C         16.2730  -23.0730   -7.1130 C.2     1  UNL1        0.0370
     17  N         16.4800  -23.5610   -8.4320 N.pl3   1  UNL1       -0.2780
     18  C         15.6880  -22.8010   -9.4260 C.3     1  UNL1        0.1260
     19  C         16.4410  -21.5960  -10.0470 C.3     1  UNL1        0.2870
     20  N         17.8800  -21.7960  -10.3270 N.3     1  UNL1        0.0900
     21  C         18.2530  -23.2130  -10.1950 C.3     1  UNL1        0.2870
     22  C         17.9070  -23.7580   -8.7900 C.3     1  UNL1        0.1260
     23  C         18.3050  -21.2370  -11.6130 C.3     1  UNL1        0.2680
     24  C         19.8250  -21.2140  -11.7590 C.3     1  UNL1        0.0370
     25  N         24.1910  -23.4020  -10.2750 N.am    1  UNL1       -0.3270
     26  C         24.4000  -22.9720  -11.5760 C.2     1  UNL1        0.2310
     27  O         23.5710  -22.3890  -12.2740 O.2     1  UNL1       -0.2720
     28  H         24.9550  -23.9260   -9.8660 H       1  UNL1        0.1690
     29  C         25.7400  -23.3990  -12.1720 C.3     1  UNL1        0.1850
     30  S         27.0890  -22.2080  -11.8700 S.3     1  UNL1       -0.0830
     31  C         26.7430  -21.0390  -13.0990 C.2     1  UNL1        0.1680
     32  N         26.4620  -21.3220  -14.3490 N.2     1  UNL1       -0.2350
     33  C         26.2330  -20.1130  -14.9520 C.2     1  UNL1        0.1360
     34  C         26.3750  -19.0850  -14.0490 C.2     1  UNL1        0.1120
     35  N         26.7080  -19.6890  -12.8650 N.pl3   1  UNL1       -0.3390
     36  C         26.9580  -19.0040  -11.6200 C.3     1  UNL1        0.1580
@<TRIPOS>BOND
     1    33    32    1
     2    33    34    2
     3    32    31    2
     4    34    35    1
     5    31    35    1
     6    31    30    1
     7    35    36    1
     8    27    26    2
     9    29    30    1
    10    29    26    1
    11    24    23    1
    12    23    20    1
    13    26    25   am
    14    20    21    1
    15    20    19    1
    16    25    28    1
    17    25     4    1
    18    21    22    1
    19    19    18    1
    20     4     5    2
    21     4     3    1
    22    18    17    1
    23     5     6    1
    24     3     2    2
    25    22    17    1
    26    17    16    1
    27     6     1    2
    28     2     1    1
    29     1     7    1
    30     9     8    1
    31    16    15    1
    32    16    11    2
    33     8     7   am
    34     8    11    1
    35     7    10    2
    36    15    14    2
    37    11    12    1
    38    14    13    1
    39    12    13    2
