@<TRIPOS>MOLECULE
75340_out_ligand_01.pdbqt
 37 40 0 0 0
SMALL
GASTEIGER

@<TRIPOS>ATOM
      1  C         17.5020  -22.6830   -5.5880 C.2     1  UNL1        0.0540
      2  C         17.4820  -23.2760   -4.3170 C.2     1  UNL1        0.0190
      3  C         16.2650  -23.6390   -3.7370 C.2     1  UNL1        0.0010
      4  C         15.0690  -23.4050   -4.4170 C.2     1  UNL1        0.0020
      5  C         15.0820  -22.8020   -5.6750 C.2     1  UNL1        0.0250
      6  C         16.2930  -22.4260   -6.2600 C.2     1  UNL1        0.0380
      7  N         16.2750  -21.8830   -7.5890 N.pl3   1  UNL1       -0.1800
      8  H         17.0190  -21.1860   -7.7560 H       1  UNL1        0.1460
      9  S         16.3250  -23.0130   -8.8550 S.O2    1  UNL1        0.2460
     10  O         15.0050  -23.1300   -9.4390 O.2     1  UNL1       -0.2060
     11  O         17.0450  -24.1690   -8.3680 O.2     1  UNL1       -0.2060
     12  C         17.3940  -22.2070  -10.0260 C.2     1  UNL1        0.0770
     13  C         16.9510  -21.0350  -10.6880 C.2     1  UNL1        0.0270
     14  C         17.7770  -20.3870  -11.6150 C.2     1  UNL1        0.0330
     15  C         19.0120  -20.9500  -11.8400 C.ar    1  UNL1        0.0630
     16  N         20.0320  -20.5380  -12.6890 N.ar    1  UNL1       -0.3070
     17  C         19.4370  -22.1090  -11.1890 C.ar    1  UNL1        0.0640
     18  C         21.1050  -21.4360  -12.5760 C.ar    1  UNL1        0.3250
     19  H         20.0370  -19.7390  -13.3020 H       1  UNL1        0.1700
     20  O         22.1640  -21.3820  -13.1730 O.2     1  UNL1       -0.2470
     21  N         20.7180  -22.4060  -11.6390 N.ar    1  UNL1       -0.3060
     22  H         21.3000  -23.1830  -11.3670 H       1  UNL1        0.1700
     23  C         18.6530  -22.7710  -10.2770 C.2     1  UNL1        0.0560
     24  C         18.7920  -22.2770   -6.2090 C.2     1  UNL1        0.2580
     25  O         19.2140  -21.1520   -5.9620 O.2     1  UNL1       -0.2670
     26  N         19.3620  -23.2220   -7.0420 N.am    1  UNL1       -0.3230
     27  H         18.8000  -24.0350   -7.2620 H       1  UNL1        0.1690
     28  C         20.5870  -23.1230   -7.7320 C.2     1  UNL1        0.0350
     29  C         21.4160  -22.0020   -7.6980 C.2     1  UNL1        0.0310
     30  C         22.6240  -21.9870   -8.4070 C.2     1  UNL1        0.0210
     31  C         23.0280  -23.1020   -9.1430 C.2     1  UNL1        0.0050
     32  C         22.1970  -24.2240   -9.1890 C.2     1  UNL1        0.0210
     33  C         20.9880  -24.2340   -8.4850 C.2     1  UNL1        0.0310
     34  S         24.5690  -23.0610  -10.0330 S.3     1  UNL1       -0.0610
     35  C         24.5090  -21.3620  -10.6340 C.3     1  UNL1        0.4200
     36  F         25.6100  -20.6700  -10.2390 F       1  UNL1       -0.2020
     37  F         24.5200  -21.3520  -11.9920 F       1  UNL1       -0.2020
@<TRIPOS>BOND
     1    19    16    1
     2    20    18    2
     3    16    18   ar
     4    16    15   ar
     5    18    21   ar
     6    37    35    1
     7    15    14    2
     8    15    17   ar
     9    21    22    1
    10    21    17   ar
    11    14    13    1
    12    17    23    2
    13    13    12    2
    14    35    36    1
    15    35    34    1
    16    23    12    1
    17    34    31    1
    18    12     9    1
    19    10     9    2
    20    32    31    2
    21    32    33    1
    22    31    30    1
    23     9    11    2
    24     9     7    1
    25    33    28    2
    26    30    29    2
    27     8     7    1
    28    28    29    1
    29    28    26    1
    30     7     6    1
    31    27    26    1
    32    26    24   am
    33     6     5    1
    34     6     1    2
    35    24    25    2
    36    24     1    1
    37     5     4    2
    38     1     2    1
    39     4     3    1
    40     2     3    2
