@<TRIPOS>MOLECULE
75347_out_ligand_01.pdbqt
 34 38 0 0 0
SMALL
GASTEIGER

@<TRIPOS>ATOM
      1  C         21.8480  -21.9500  -11.7630 C.2     1  UNL1        0.0330
      2  C         20.7670  -21.3330  -12.4010 C.2     1  UNL1        0.0180
      3  C         19.4770  -21.4360  -11.8660 C.2     1  UNL1        0.0180
      4  C         19.2460  -22.1500  -10.6790 C.2     1  UNL1        0.0370
      5  C         20.3320  -22.7410  -10.0490 C.2     1  UNL1        0.0790
      6  C         21.6320  -22.6460  -10.5710 C.2     1  UNL1        0.0410
      7  S         20.1120  -23.6440   -8.5690 S.O2    1  UNL1        0.2080
      8  O         20.3900  -25.0260   -8.9050 O.2     1  UNL1       -0.2170
      9  O         20.8670  -22.9420   -7.5510 O.2     1  UNL1       -0.2170
     10  C         18.4330  -23.5650   -8.0970 C.2     1  UNL1        0.0780
     11  C         18.0550  -24.1860   -6.8980 C.2     1  UNL1        0.0250
     12  C         16.7230  -24.1440   -6.4910 C.2     1  UNL1        0.0020
     13  C         15.7800  -23.4870   -7.2780 C.2     1  UNL1        0.0010
     14  C         16.1700  -22.8710   -8.4710 C.2     1  UNL1        0.0170
     15  C         17.5090  -22.9030   -8.8940 C.2     1  UNL1        0.0370
     16  C         17.8570  -22.2290  -10.1670 C.2     1  UNL1        0.1950
     17  O         16.9580  -21.7140  -10.8270 O.2     1  UNL1       -0.2870
     18  C         23.2060  -21.8130  -12.3640 C.2     1  UNL1        0.2560
     19  O         24.1550  -21.6520  -11.6080 O.2     1  UNL1       -0.2670
     20  N         23.2420  -21.8320  -13.7470 N.am    1  UNL1       -0.3230
     21  H         22.3570  -21.7870  -14.2350 H       1  UNL1        0.1690
     22  C         24.3900  -21.7920  -14.5670 C.2     1  UNL1        0.0350
     23  C         25.2040  -22.9350  -14.5790 C.2     1  UNL1        0.0290
     24  C         26.3640  -22.9810  -15.3550 C.2     1  UNL1        0.0030
     25  C         26.7250  -21.8830  -16.1320 C.2     1  UNL1        0.0170
     26  C         25.9200  -20.7380  -16.1290 C.2     1  UNL1        0.0340
     27  C         24.7630  -20.6890  -15.3370 C.2     1  UNL1        0.0460
     28  C         26.2890  -19.5410  -16.9290 C.2     1  UNL1        0.2520
     29  O         26.2510  -19.5830  -18.1530 O.2     1  UNL1       -0.2680
     30  N         26.6870  -18.4360  -16.1990 N.am    1  UNL1       -0.3520
     31  H         26.8650  -18.5440  -15.2090 H       1  UNL1        0.1630
     32  C         27.1200  -17.2310  -16.8310 C.3     1  UNL1        0.0840
     33  C         27.0660  -15.9180  -16.0990 C.3     1  UNL1        0.0270
     34  C         26.1210  -16.1820  -17.2340 C.3     1  UNL1        0.0270
@<TRIPOS>BOND
     1    29    28    2
     2    34    32    1
     3    34    33    1
     4    28    30   am
     5    28    26    1
     6    32    30    1
     7    32    33    1
     8    30    31    1
     9    25    26    2
    10    25    24    1
    11    26    27    1
    12    24    23    2
    13    27    22    2
    14    23    22    1
    15    22    20    1
    16    21    20    1
    17    20    18   am
    18     2     3    1
    19     2     1    2
    20    18     1    1
    21    18    19    2
    22     3     4    2
    23     1     6    1
    24    17    16    2
    25     4    16    1
    26     4     5    1
    27     6     5    2
    28    16    15    1
    29     5     7    1
    30     8     7    2
    31    15    14    1
    32    15    10    2
    33     7    10    1
    34     7     9    2
    35    14    13    2
    36    10    11    1
    37    13    12    1
    38    11    12    2
