@<TRIPOS>MOLECULE
75346_out_ligand_01.pdbqt
 34 37 0 0 0
SMALL
GASTEIGER

@<TRIPOS>ATOM
      1  N         18.2640  -22.1020  -10.6330 N.am    1  UNL1       -0.3510
      2  C         19.0350  -21.2640  -11.4080 C.2     1  UNL1        0.2720
      3  O         18.5980  -20.2790  -11.9970 O.2     1  UNL1       -0.2660
      4  H         18.7890  -22.8010  -10.1170 H       1  UNL1        0.1630
      5  C         16.9150  -21.7820  -10.2550 C.3     1  UNL1        0.1610
      6  C         16.4040  -22.7450   -9.2120 C.2     1  UNL1       -0.0390
      7  C         15.6830  -23.8900   -9.5940 C.2     1  UNL1        0.0090
      8  C         15.2350  -24.8040   -8.6380 C.2     1  UNL1        0.0020
      9  C         15.4990  -24.5840   -7.2860 C.2     1  UNL1        0.0250
     10  C         16.2110  -23.4440   -6.9000 C.2     1  UNL1        0.0800
     11  C         16.6780  -22.5340   -7.8520 C.2     1  UNL1        0.0340
     12  S         16.5070  -23.1600   -5.1730 S.O2    1  UNL1        0.2590
     13  O         16.5500  -24.4280   -4.4830 O.2     1  UNL1       -0.2010
     14  O         15.6390  -22.0850   -4.7510 O.2     1  UNL1       -0.2010
     15  N         18.0580  -22.5340   -5.1920 N.3     1  UNL1       -0.3110
     16  H         18.6990  -22.9690   -5.8530 H       1  UNL1        0.1720
     17  C         18.3390  -21.2080   -4.6380 C.3     1  UNL1        0.0850
     18  C         19.5210  -20.5910   -5.3770 C.3     1  UNL1        0.0320
     19  C         18.6440  -21.3660   -3.1530 C.3     1  UNL1        0.0320
     20  C         20.4490  -21.6640  -11.4470 C.ar    1  UNL1        0.1530
     21  N         21.2270  -21.4470  -12.5380 N.ar    1  UNL1       -0.1610
     22  N         22.4700  -21.9450  -12.2200 N.ar    1  UNL1       -0.2370
     23  C         22.4400  -22.4880  -10.9680 C.ar    1  UNL1        0.0450
     24  C         21.1880  -22.3080  -10.4560 C.ar    1  UNL1        0.0030
     25  C         23.3590  -23.1930  -10.0570 C.3     1  UNL1        0.0600
     26  C         21.0480  -22.8490   -9.0950 C.3     1  UNL1        0.0430
     27  C         22.3560  -23.7000   -8.9610 C.3     1  UNL1        0.0110
     28  C         23.5420  -21.8320  -13.1530 C.2     1  UNL1        0.0580
     29  C         23.5010  -20.9280  -14.2240 C.2     1  UNL1        0.0340
     30  C         24.5740  -20.8520  -15.1200 C.2     1  UNL1        0.0440
     31  C         25.6800  -21.6760  -14.9490 C.2     1  UNL1        0.1160
     32  F         26.7000  -21.6010  -15.8130 F       1  UNL1       -0.2060
     33  C         25.7380  -22.5800  -13.8970 C.2     1  UNL1        0.0440
     34  C         24.6710  -22.6600  -12.9990 C.2     1  UNL1        0.0340
@<TRIPOS>BOND
     1    32    31    1
     2    30    31    2
     3    30    29    1
     4    31    33    1
     5    29    28    2
     6    33    34    2
     7    28    34    1
     8    28    22    1
     9    21    22   ar
    10    21    20   ar
    11    22    23   ar
    12     3     2    2
    13    20     2    1
    14    20    24   ar
    15     2     1   am
    16    23    24   ar
    17    23    25    1
    18     1     5    1
    19     1     4    1
    20    24    26    1
    21     5     6    1
    22    25    27    1
    23     7     6    2
    24     7     8    1
    25     6    11    1
    26    26    27    1
    27     8     9    2
    28    11    10    2
    29     9    10    1
    30    10    12    1
    31    16    15    1
    32    18    17    1
    33    15    12    1
    34    15    17    1
    35    12    14    2
    36    12    13    2
    37    17    19    1
