@<TRIPOS>MOLECULE
75363_out_ligand_01.pdbqt
 35 38 0 0 0
SMALL
GASTEIGER

@<TRIPOS>ATOM
      1  N         24.2200  -23.2070  -11.3900 N.pl3   1  UNL1       -0.2830
      2  H         24.4180  -24.1380  -11.7900 H       1  UNL1        0.1280
      3  C         24.2980  -23.2280   -9.9130 C.3     1  UNL1        0.1950
      4  C         23.0930  -22.5220   -9.2690 C.2     1  UNL1        0.2350
      5  O         22.9980  -21.2990   -9.2740 O.2     1  UNL1       -0.2720
      6  N         22.2060  -23.4220   -8.7050 N.am    1  UNL1       -0.3260
      7  H         22.4830  -24.3940   -8.8540 H       1  UNL1        0.1690
      8  C         21.0050  -23.1690   -8.0290 C.2     1  UNL1        0.0340
      9  C         20.7770  -22.0410   -7.2440 C.2     1  UNL1        0.0300
     10  C         19.5430  -21.8610   -6.6040 C.2     1  UNL1        0.0140
     11  C         18.5110  -22.8040   -6.7300 C.2     1  UNL1       -0.0260
     12  C         18.7550  -23.9360   -7.5190 C.2     1  UNL1        0.0140
     13  C         19.9850  -24.1170   -8.1610 C.2     1  UNL1        0.0300
     14  C         17.2170  -22.6090   -6.0570 C.2     1  UNL1       -0.0260
     15  C         16.0450  -22.3750   -6.7980 C.2     1  UNL1        0.0120
     16  C         14.8150  -22.1940   -6.1600 C.2     1  UNL1        0.0010
     17  C         14.7360  -22.2400   -4.7710 C.2     1  UNL1        0.0000
     18  C         15.8850  -22.4690   -4.0190 C.2     1  UNL1        0.0010
     19  C         17.1140  -22.6520   -4.6580 C.2     1  UNL1        0.0120
     20  C         24.9850  -22.2280  -12.0640 C.2     1  UNL1        0.0240
     21  C         26.3520  -22.0840  -11.7680 C.2     1  UNL1        0.0240
     22  C         27.1210  -21.0720  -12.3460 C.2     1  UNL1        0.0020
     23  C         26.5330  -20.1630  -13.2160 C.2     1  UNL1        0.0010
     24  C         25.1760  -20.2720  -13.5220 C.2     1  UNL1        0.0190
     25  C         24.3970  -21.3060  -12.9690 C.2     1  UNL1        0.0530
     26  C         22.9490  -21.4320  -13.3450 C.2     1  UNL1        0.2530
     27  O         22.6090  -21.4440  -14.5240 O.2     1  UNL1       -0.2680
     28  N         22.0310  -21.4830  -12.3120 N.am    1  UNL1       -0.3540
     29  H         22.3220  -21.2670  -11.3710 H       1  UNL1        0.1620
     30  C         20.6020  -21.5510  -12.5620 C.3     1  UNL1        0.1550
     31  C         19.7580  -20.8650  -11.4730 C.3     1  UNL1        0.1390
     32  C         19.2330  -21.7980  -10.3920 C.3     1  UNL1        0.0350
     33  C         17.9330  -22.2840  -10.9820 C.3     1  UNL1        0.0290
     34  C         17.4350  -21.0500  -11.7000 C.3     1  UNL1        0.1680
     35  O         18.5900  -20.2950  -12.1000 O.3     1  UNL1       -0.3840
@<TRIPOS>BOND
     1    27    26    2
     2    24    23    2
     3    24    25    1
     4    26    25    1
     5    26    28   am
     6    23    22    1
     7    25    20    2
     8    30    28    1
     9    30    31    1
    10    22    21    2
    11    28    29    1
    12    35    34    1
    13    35    31    1
    14    20    21    1
    15    20     1    1
    16     2     1    1
    17    34    33    1
    18    31    32    1
    19     1     3    1
    20    33    32    1
    21     3     4    1
    22     5     4    2
    23     4     6   am
    24     7     6    1
    25     6     8    1
    26    13     8    2
    27    13    12    1
    28     8     9    1
    29    12    11    2
    30     9    10    2
    31    15    16    1
    32    15    14    2
    33    11    10    1
    34    11    14    1
    35    16    17    2
    36    14    19    1
    37    17    18    1
    38    19    18    2
