@<TRIPOS>MOLECULE
75369_out_ligand_01.pdbqt
 29 31 0 0 0
SMALL
GASTEIGER

@<TRIPOS>ATOM
      1  C         22.5040  -23.2730   -9.1660 C.2     1  UNL1        0.2450
      2  O         22.3930  -22.2430   -8.5180 O.2     1  UNL1       -0.2680
      3  N         23.2210  -23.4730  -10.3270 N.am    1  UNL1       -0.3240
      4  H         23.1670  -24.3920  -10.7460 H       1  UNL1        0.1690
      5  C         21.7910  -24.5100   -8.7580 C.2     1  UNL1        0.0750
      6  C         20.4590  -24.6540   -8.7990 C.2     1  UNL1        0.0200
      7  C         19.4800  -23.6750   -9.1420 C.ar    1  UNL1        0.0070
      8  C         19.4860  -22.7300  -10.2120 C.ar    1  UNL1        0.0100
      9  C         20.3470  -22.3900  -11.2750 C.2     1  UNL1        0.0150
     10  C         18.3100  -22.0000  -10.0680 C.ar    1  UNL1        0.0860
     11  C         19.9780  -21.3560  -12.1490 C.2     1  UNL1        0.0010
     12  C         18.7820  -20.6590  -11.9730 C.2     1  UNL1        0.0030
     13  C         17.9180  -20.9670  -10.9190 C.2     1  UNL1        0.0380
     14  O         17.6110  -22.4260   -8.9830 O.2     1  UNL1       -0.3130
     15  C         18.3250  -23.4420   -8.4170 C.ar    1  UNL1        0.0640
     16  C         17.7200  -24.0560   -7.2070 C.3     1  UNL1        0.0610
     17  C         16.2760  -24.4610   -7.4510 C.3     1  UNL1        0.0120
     18  C         24.0680  -22.5470  -10.9720 C.2     1  UNL1        0.0360
     19  C         25.1850  -21.9620  -10.3710 C.2     1  UNL1        0.0290
     20  C         25.9980  -21.0690  -11.0810 C.2     1  UNL1        0.0040
     21  C         25.6960  -20.7450  -12.4000 C.2     1  UNL1        0.0250
     22  C         24.5730  -21.3160  -12.9970 C.2     1  UNL1        0.0760
     23  C         23.7650  -22.2210  -12.2980 C.2     1  UNL1        0.0540
     24  S         24.1840  -20.9020  -14.6750 S.O2    1  UNL1        0.2390
     25  O         25.1310  -19.9130  -15.1290 O.2     1  UNL1       -0.2060
     26  O         23.9240  -22.1250  -15.4000 O.2     1  UNL1       -0.2060
     27  N         22.6850  -20.1560  -14.5030 N.3     1  UNL1       -0.2250
     28  H         22.0890  -20.4200  -15.2890 H       1  UNL1        0.1360
     29  H         22.2390  -20.3390  -13.6050 H       1  UNL1        0.1360
@<TRIPOS>BOND
     1    26    24    2
     2    28    27    1
     3    25    24    2
     4    24    27    1
     5    24    22    1
     6    27    29    1
     7    22    21    2
     8    22    23    1
     9    21    20    1
    10    23    18    2
    11    11    12    2
    12    11     9    1
    13    12    13    1
    14     9     8    2
    15    20    19    2
    16    18    19    1
    17    18     3    1
    18    13    10    2
    19     4     3    1
    20     3     1   am
    21     8    10   ar
    22     8     7   ar
    23    10    14   ar
    24     1     5    1
    25     1     2    2
    26     7     6    1
    27     7    15   ar
    28    14    15   ar
    29     6     5    2
    30    15    16    1
    31    17    16    1
