@<TRIPOS>MOLECULE
75378_out_ligand_01.pdbqt
 35 38 0 0 0
SMALL
GASTEIGER

@<TRIPOS>ATOM
      1  C         20.4430  -23.0410   -8.6080 C.2     1  UNL1        0.0420
      2  C         19.7590  -24.2350   -8.3760 C.2     1  UNL1        0.0310
      3  C         18.9180  -24.3540   -7.2670 C.2     1  UNL1        0.0200
      4  C         18.7580  -23.2770   -6.3820 C.2     1  UNL1        0.0390
      5  C         19.4640  -22.0890   -6.6120 C.2     1  UNL1        0.0200
      6  C         20.3030  -21.9720   -7.7250 C.2     1  UNL1        0.0310
      7  C         17.8390  -23.3360   -5.2140 C.2     1  UNL1        0.2940
      8  O         17.7710  -24.2830   -4.4490 O.2     1  UNL1       -0.2590
      9  O         17.1490  -22.1760   -5.1100 O.3     1  UNL1       -0.3080
     10  C         15.7680  -22.2140   -5.5230 C.3     1  UNL1        0.1610
     11  C         14.9620  -22.9260   -4.4380 C.3     1  UNL1        0.0450
     12  C         15.7660  -22.8640   -6.9000 C.2     1  UNL1       -0.0270
     13  C         15.2030  -24.1200   -7.1630 C.2     1  UNL1        0.0100
     14  C         15.2450  -24.6670   -8.4470 C.2     1  UNL1        0.0030
     15  C         15.8530  -23.9740   -9.4920 C.2     1  UNL1        0.0310
     16  C         16.4240  -22.7170   -9.2570 C.2     1  UNL1        0.0560
     17  C         16.3700  -22.1660   -7.9680 C.2     1  UNL1        0.0410
     18  N         17.0570  -22.0260  -10.3180 N.pl3   1  UNL1       -0.2340
     19  C         16.7840  -20.7860  -10.8410 C.2     1  UNL1        0.2490
     20  N         17.6310  -20.5230  -11.8090 N.2     1  UNL1       -0.1560
     21  N         18.4470  -21.6200  -11.8950 N.2     1  UNL1        0.0170
     22  N         18.1090  -22.5370  -10.9970 N.2     1  UNL1        0.0020
     23  N         21.2360  -22.9200   -9.7810 N.pl3   1  UNL1       -0.2810
     24  H         20.8290  -22.4580  -10.5920 H       1  UNL1        0.1790
     25  S         22.8830  -22.5640   -9.6260 S.O2    1  UNL1        0.2630
     26  O         23.0310  -21.2700   -8.9940 O.2     1  UNL1       -0.2000
     27  O         23.4980  -23.7500   -9.0660 O.2     1  UNL1       -0.2000
     28  C         23.4240  -22.4260  -11.3160 C.2     1  UNL1        0.0800
     29  C         22.6590  -21.7060  -12.2330 C.2     1  UNL1        0.0260
     30  C         23.0940  -21.6030  -13.5530 C.2     1  UNL1        0.0090
     31  C         24.2950  -22.2050  -13.9660 C.2     1  UNL1       -0.0560
     32  C         24.7350  -22.0600  -15.3990 C.3     1  UNL1        0.0490
     33  C         25.0690  -22.9250  -13.0300 C.2     1  UNL1       -0.0550
     34  C         24.6290  -23.0200  -11.7010 C.2     1  UNL1        0.0320
     35  C         26.3720  -23.5670  -13.4220 C.3     1  UNL1        0.0490
@<TRIPOS>BOND
     1    32    31    1
     2    31    30    2
     3    31    33    1
     4    30    29    1
     5    35    33    1
     6    33    34    2
     7    29    28    2
     8    21    20    1
     9    21    22    2
    10    20    19    2
    11    34    28    1
    12    28    25    1
    13    22    18    1
    14    19    18    1
    15    24    23    1
    16    18    16    1
    17    23    25    1
    18    23     1    1
    19    25    27    2
    20    25    26    2
    21    15    16    2
    22    15    14    1
    23    16    17    1
    24     1     2    2
    25     1     6    1
    26    14    13    2
    27     2     3    1
    28    17    12    2
    29     6     5    2
    30     3     4    2
    31    13    12    1
    32    12    10    1
    33     5     4    1
    34     4     7    1
    35    10     9    1
    36    10    11    1
    37     7     9    1
    38     7     8    2
