@<TRIPOS>MOLECULE
75386_out_ligand_01.pdbqt
 30 33 0 0 0
SMALL
GASTEIGER

@<TRIPOS>ATOM
      1  O         15.5040  -22.4760   -9.8730 O.2     1  UNL1       -0.2730
      2  C         16.2250  -23.2790   -9.2870 C.2     1  UNL1        0.2230
      3  N         17.5990  -23.3900   -9.4050 N.am    1  UNL1       -0.3270
      4  H         18.0550  -24.0970   -8.8400 H       1  UNL1        0.1690
      5  C         15.6360  -24.2700   -8.3050 C.3     1  UNL1        0.1230
      6  C         16.5600  -24.4960   -7.1070 C.3     1  UNL1        0.1410
      7  N         16.3850  -23.5050   -6.0300 N.am    1  UNL1       -0.3160
      8  C         15.2280  -23.6320   -5.2530 C.2     1  UNL1        0.2340
      9  O         14.3920  -24.5190   -5.4650 O.2     1  UNL1       -0.2720
     10  C         14.9340  -22.5630   -4.2230 C.3     1  UNL1        0.1820
     11  S         16.3410  -22.2690   -3.1530 S.3     1  UNL1       -0.1180
     12  C         17.5210  -21.9520   -4.4500 C.2     1  UNL1        0.0280
     13  C         18.5870  -21.0920   -4.1390 C.2     1  UNL1        0.0210
     14  C         17.4380  -22.5710   -5.7170 C.2     1  UNL1        0.0540
     15  C         19.5700  -20.8070   -5.0830 C.2     1  UNL1        0.0020
     16  C         19.4940  -21.3900   -6.3400 C.2     1  UNL1        0.0020
     17  C         18.4450  -22.2670   -6.6490 C.2     1  UNL1        0.0310
     18  C         18.4540  -22.6190  -10.2210 C.2     1  UNL1        0.0350
     19  C         18.0240  -21.5740  -11.0410 C.2     1  UNL1        0.0290
     20  C         18.9360  -20.8540  -11.8200 C.2     1  UNL1        0.0030
     21  C         20.2960  -21.1700  -11.7820 C.2     1  UNL1        0.0170
     22  C         20.7400  -22.2110  -10.9620 C.2     1  UNL1        0.0340
     23  C         19.8180  -22.9410  -10.1960 C.2     1  UNL1        0.0460
     24  C         22.1740  -22.6000  -10.8970 C.2     1  UNL1        0.2520
     25  O         22.5410  -23.4510  -10.0900 O.2     1  UNL1       -0.2680
     26  N         23.0210  -21.9270  -11.7580 N.am    1  UNL1       -0.3520
     27  H         22.6810  -21.0980  -12.2340 H       1  UNL1        0.1630
     28  C         24.4290  -22.1730  -11.7750 C.3     1  UNL1        0.0840
     29  C         25.3640  -21.3470  -10.9350 C.3     1  UNL1        0.0270
     30  C         25.3600  -21.1880  -12.4300 C.3     1  UNL1        0.0270
@<TRIPOS>BOND
     1    30    28    1
     2    30    29    1
     3    27    26    1
     4    20    21    2
     5    20    19    1
     6    21    22    1
     7    28    26    1
     8    28    29    1
     9    26    24   am
    10    19    18    2
    11    22    24    1
    12    22    23    2
    13    24    25    2
    14    18    23    1
    15    18     3    1
    16     1     2    2
    17     3     2   am
    18     3     4    1
    19     2     5    1
    20     5     6    1
    21     6     7    1
    22    17    16    2
    23    17    14    1
    24    16    15    1
    25     7    14    1
    26     7     8   am
    27    14    12    2
    28     9     8    2
    29     8    10    1
    30    15    13    2
    31    12    13    1
    32    12    11    1
    33    10    11    1
