@<TRIPOS>MOLECULE
75381_out_ligand_01.pdbqt
 31 34 0 0 0
SMALL
GASTEIGER

@<TRIPOS>ATOM
      1  O         20.6550  -21.5980  -11.6980 O.2     1  UNL1       -0.2670
      2  C         20.8980  -22.2820  -10.7110 C.2     1  UNL1        0.2560
      3  N         22.1360  -22.7440  -10.3040 N.am    1  UNL1       -0.3230
      4  H         22.1520  -23.4140   -9.5450 H       1  UNL1        0.1690
      5  C         19.7530  -22.7110   -9.8560 C.2     1  UNL1        0.0320
      6  C         20.0120  -23.5640   -8.7750 C.2     1  UNL1        0.0180
      7  C         18.9680  -24.0000   -7.9520 C.2     1  UNL1        0.0160
      8  C         17.6550  -23.6000   -8.2240 C.2     1  UNL1        0.0150
      9  C         17.3950  -22.7440   -9.3030 C.2     1  UNL1        0.0160
     10  C         18.4390  -22.3090  -10.1250 C.2     1  UNL1        0.0180
     11  C         16.5160  -24.0250   -7.3710 C.2     1  UNL1        0.1920
     12  O         15.7080  -24.8350   -7.8190 O.2     1  UNL1       -0.2870
     13  C         16.3340  -23.5000   -5.9960 C.2     1  UNL1        0.0150
     14  C         15.1600  -22.7990   -5.6990 C.2     1  UNL1        0.0150
     15  C         14.9500  -22.3000   -4.4130 C.2     1  UNL1        0.0010
     16  C         15.9050  -22.5130   -3.4180 C.2     1  UNL1        0.0000
     17  C         17.0670  -23.2300   -3.7040 C.2     1  UNL1        0.0010
     18  C         17.2820  -23.7290   -4.9900 C.2     1  UNL1        0.0150
     19  C         23.3900  -22.4530  -10.8810 C.2     1  UNL1        0.0350
     20  C         24.3240  -21.5800  -10.3200 C.2     1  UNL1        0.0290
     21  C         25.5570  -21.3590  -10.9420 C.2     1  UNL1        0.0030
     22  C         25.8670  -22.0040  -12.1380 C.2     1  UNL1        0.0170
     23  C         24.9350  -22.8710  -12.7180 C.2     1  UNL1        0.0340
     24  C         23.7070  -23.1000  -12.0800 C.2     1  UNL1        0.0460
     25  C         25.2080  -23.5950  -13.9900 C.2     1  UNL1        0.2520
     26  O         25.6540  -24.7370  -13.9550 O.2     1  UNL1       -0.2680
     27  N         24.9020  -22.9200  -15.1570 N.am    1  UNL1       -0.3520
     28  H         24.3830  -22.0520  -15.1020 H       1  UNL1        0.1630
     29  C         25.0510  -23.5260  -16.4420 C.3     1  UNL1        0.0840
     30  C         23.8910  -23.5790  -17.3970 C.3     1  UNL1        0.0270
     31  C         25.0620  -22.6870  -17.6900 C.3     1  UNL1        0.0270
@<TRIPOS>BOND
     1    31    30    1
     2    31    29    1
     3    30    29    1
     4    29    27    1
     5    27    28    1
     6    27    25   am
     7    25    26    2
     8    25    23    1
     9    23    22    2
    10    23    24    1
    11    22    21    1
    12    24    19    2
    13     1     2    2
    14    21    20    2
    15    19    20    1
    16    19     3    1
    17     2     3   am
    18     2     5    1
    19     3     4    1
    20    10     5    2
    21    10     9    1
    22     5     6    1
    23     9     8    2
    24     6     7    2
    25     8     7    1
    26     8    11    1
    27    12    11    2
    28    11    13    1
    29    13    14    2
    30    13    18    1
    31    14    15    1
    32    18    17    2
    33    15    16    2
    34    17    16    1
