@<TRIPOS>MOLECULE
75398_out_ligand_01.pdbqt
 34 38 0 0 0
SMALL
GASTEIGER

@<TRIPOS>ATOM
      1  C         21.2230  -22.7250   -9.5700 C.2     1  UNL1        0.0340
      2  C         20.2140  -22.8680  -10.5320 C.2     1  UNL1        0.0180
      3  C         18.8740  -22.8330  -10.1400 C.2     1  UNL1        0.0200
      4  C         18.5520  -22.6620   -8.7870 C.ar    1  UNL1        0.0610
      5  C         17.1520  -22.6260   -8.3350 C.ar    1  UNL1        0.2610
      6  O         16.2560  -22.8030   -9.1570 O.2     1  UNL1       -0.2670
      7  N         16.9410  -22.4050   -6.9730 N.ar    1  UNL1       -0.3010
      8  C         18.0030  -22.3190   -6.0970 C.ar    1  UNL1        0.1090
      9  N         19.2440  -22.3790   -6.4670 N.ar    1  UNL1       -0.2340
     10  C         19.5440  -22.5370   -7.8210 C.ar    1  UNL1        0.0750
     11  C         20.8830  -22.5760   -8.2170 C.2     1  UNL1        0.0490
     12  C         17.7440  -22.1400   -4.6100 C.3     1  UNL1        0.0790
     13  C         17.2180  -23.4020   -3.9180 C.3     1  UNL1        0.0070
     14  C         15.7220  -23.3400   -3.5990 C.3     1  UNL1        0.0000
     15  C         14.7850  -23.9820   -4.6220 C.3     1  UNL1        0.0020
     16  C         15.1350  -23.8320   -6.1000 C.3     1  UNL1        0.0200
     17  C         15.5480  -22.4210   -6.5230 C.3     1  UNL1        0.1330
     18  C         22.6660  -22.7630   -9.9370 C.2     1  UNL1        0.2560
     19  O         23.4220  -23.4300   -9.2420 O.2     1  UNL1       -0.2670
     20  N         23.0050  -21.9980  -11.0380 N.am    1  UNL1       -0.3230
     21  H         22.2800  -21.4090  -11.4320 H       1  UNL1        0.1690
     22  C         24.2800  -21.8640  -11.6270 C.2     1  UNL1        0.0350
     23  C         25.3610  -21.2280  -11.0150 C.2     1  UNL1        0.0290
     24  C         26.5930  -21.1280  -11.6700 C.2     1  UNL1        0.0030
     25  C         26.7620  -21.6740  -12.9420 C.2     1  UNL1        0.0170
     26  C         25.6940  -22.3350  -13.5560 C.2     1  UNL1        0.0340
     27  C         24.4550  -22.4150  -12.9020 C.2     1  UNL1        0.0460
     28  C         25.8100  -22.9440  -14.9100 C.2     1  UNL1        0.2520
     29  O         26.9100  -23.2890  -15.3310 O.2     1  UNL1       -0.2680
     30  N         24.6390  -23.0460  -15.6390 N.am    1  UNL1       -0.3520
     31  H         23.8080  -22.5750  -15.3090 H       1  UNL1        0.1630
     32  C         24.6200  -23.5730  -16.9670 C.3     1  UNL1        0.0840
     33  C         23.3520  -23.5550  -17.7730 C.3     1  UNL1        0.0270
     34  C         24.4930  -22.6580  -18.1530 C.3     1  UNL1        0.0270
@<TRIPOS>BOND
     1    34    33    1
     2    34    32    1
     3    33    32    1
     4    32    30    1
     5    30    31    1
     6    30    28   am
     7    29    28    2
     8    28    26    1
     9    26    25    2
    10    26    27    1
    11    25    24    1
    12    27    22    2
    13    24    23    2
    14    22    20    1
    15    22    23    1
    16    21    20    1
    17    20    18   am
    18     2     3    1
    19     2     1    2
    20     3     4    2
    21    18     1    1
    22    18    19    2
    23     1    11    1
    24     6     5    2
    25     4     5   ar
    26     4    10   ar
    27     5     7   ar
    28    11    10    2
    29    10     9   ar
    30     7    17    1
    31     7     8   ar
    32    17    16    1
    33     9     8   ar
    34    16    15    1
    35     8    12    1
    36    15    14    1
    37    12    13    1
    38    13    14    1
