@<TRIPOS>MOLECULE
75390_out_ligand_01.pdbqt
 37 41 0 0 0
SMALL
GASTEIGER

@<TRIPOS>ATOM
      1  C         23.8950  -21.8040  -10.6160 C.2     1  UNL1        0.0840
      2  C         25.2390  -22.2030  -10.6790 C.2     1  UNL1        0.0390
      3  C         25.7540  -22.8150  -11.8250 C.2     1  UNL1        0.0280
      4  C         24.9300  -23.0190  -12.9300 C.2     1  UNL1        0.0810
      5  C         23.5820  -22.6630  -12.8730 C.2     1  UNL1        0.0450
      6  C         23.0500  -22.0430  -11.7250 C.2     1  UNL1        0.0670
      7  C         21.5860  -21.6820  -11.7880 C.2     1  UNL1        0.2590
      8  O         21.1930  -21.0130  -12.7390 O.2     1  UNL1       -0.2670
      9  N         20.7920  -22.1450  -10.7600 N.am    1  UNL1       -0.3230
     10  H         21.2760  -22.6520  -10.0250 H       1  UNL1        0.1690
     11  C         19.4010  -21.9950  -10.5920 C.2     1  UNL1        0.0350
     12  C         18.5750  -21.3060  -11.4790 C.2     1  UNL1        0.0290
     13  C         17.1970  -21.2230  -11.2500 C.2     1  UNL1        0.0030
     14  C         16.6320  -21.8220  -10.1240 C.2     1  UNL1        0.0170
     15  C         17.4540  -22.5000   -9.2170 C.2     1  UNL1        0.0340
     16  C         18.8310  -22.5940   -9.4620 C.2     1  UNL1        0.0460
     17  C         16.9120  -23.1630   -7.9980 C.2     1  UNL1        0.2520
     18  O         17.3900  -24.2280   -7.6200 O.2     1  UNL1       -0.2680
     19  N         15.9000  -22.4930   -7.3360 N.am    1  UNL1       -0.3520
     20  H         15.6770  -21.5440   -7.6050 H       1  UNL1        0.1630
     21  C         15.2990  -23.0070   -6.1450 C.3     1  UNL1        0.0840
     22  C         15.6770  -22.4590   -4.7960 C.3     1  UNL1        0.0270
     23  C         14.3210  -22.1670   -5.3700 C.3     1  UNL1        0.0270
     24  O         23.3460  -21.1920   -9.5180 O.2     1  UNL1       -0.3550
     25  C         22.9750  -22.0070   -8.4080 C.3     1  UNL1        0.2100
     26  S         25.5750  -23.8360  -14.3830 S.O2    1  UNL1        0.2650
     27  O         27.0040  -23.5830  -14.4020 O.2     1  UNL1       -0.2000
     28  O         25.0770  -25.1950  -14.3650 O.2     1  UNL1       -0.2000
     29  N         24.8890  -22.9770  -15.6710 N.pl3   1  UNL1       -0.2710
     30  C         24.5210  -23.7550  -16.8920 C.3     1  UNL1        0.1460
     31  C         24.5530  -22.7610  -18.0640 C.3     1  UNL1        0.0620
     32  C         25.2780  -21.5920  -17.4800 C.2     1  UNL1       -0.0290
     33  C         25.7060  -20.4520  -18.1420 C.2     1  UNL1        0.0090
     34  C         25.4410  -21.7340  -16.1020 C.2     1  UNL1        0.0510
     35  C         26.2900  -19.4310  -17.3910 C.2     1  UNL1        0.0010
     36  C         26.4060  -19.5500  -15.9990 C.2     1  UNL1        0.0020
     37  C         25.9590  -20.7020  -15.3430 C.2     1  UNL1        0.0310
@<TRIPOS>BOND
     1    33    32    2
     2    33    35    1
     3    31    32    1
     4    31    30    1
     5    32    34    1
     6    35    36    2
     7    30    29    1
     8    34    29    1
     9    34    37    2
    10    36    37    1
    11    29    26    1
    12    27    26    2
    13    26    28    2
    14    26     4    1
    15     4     5    2
    16     4     3    1
    17     5     6    1
    18     8     7    2
    19     3     2    2
    20     7     6    1
    21     7     9   am
    22     6     1    2
    23    12    13    1
    24    12    11    2
    25    13    14    2
    26     9    11    1
    27     9    10    1
    28     2     1    1
    29     1    24    1
    30    11    16    1
    31    14    15    1
    32    24    25    1
    33    16    15    2
    34    15    17    1
    35    17    18    2
    36    17    19   am
    37    20    19    1
    38    19    21    1
    39    21    23    1
    40    21    22    1
    41    23    22    1
