@<TRIPOS>MOLECULE
753_out_ligand_01.pdbqt
 34 36 0 0 0
SMALL
GASTEIGER

@<TRIPOS>ATOM
      1  C         22.6080  -22.7310  -11.3330 C.2     1  UNL1        0.0240
      2  C         21.9160  -21.9700  -12.2780 C.2     1  UNL1        0.0240
      3  C         20.6290  -21.5030  -11.9980 C.2     1  UNL1        0.0030
      4  C         20.0370  -21.7930  -10.7710 C.2     1  UNL1        0.0250
      5  C         20.7420  -22.5510   -9.8290 C.2     1  UNL1        0.0760
      6  C         22.0330  -23.0130  -10.0960 C.2     1  UNL1        0.0490
      7  S         19.9760  -22.9060   -8.2690 S.O2    1  UNL1        0.2450
      8  O         20.7310  -22.2130   -7.2500 O.2     1  UNL1       -0.2060
      9  O         19.7090  -24.3280   -8.2120 O.2     1  UNL1       -0.2060
     10  N         18.4530  -22.1580   -8.4890 N.pl3   1  UNL1       -0.1810
     11  H         18.2470  -22.2200   -9.4890 H       1  UNL1        0.1460
     12  C         17.4020  -22.7650   -7.7250 C.2     1  UNL1        0.0230
     13  C         16.6110  -23.7670   -8.2860 C.2     1  UNL1        0.0240
     14  C         15.6230  -24.3810   -7.5160 C.2     1  UNL1        0.0030
     15  C         15.4410  -24.0030   -6.1850 C.2     1  UNL1        0.0160
     16  C         16.2530  -23.0160   -5.6040 C.2     1  UNL1        0.0490
     17  C         17.2380  -22.3980   -6.3900 C.2     1  UNL1        0.0400
     18  C         16.0470  -22.6060   -4.1670 C.3     1  UNL1        0.4170
     19  F         14.8840  -21.9200   -3.9920 F       1  UNL1       -0.1660
     20  F         15.9840  -23.6690   -3.3160 F       1  UNL1       -0.1660
     21  F         17.0320  -21.8000   -3.6850 F       1  UNL1       -0.1660
     22  N         23.9460  -23.1640  -11.6200 N.pl3   1  UNL1       -0.1810
     23  H         24.1660  -24.0310  -11.1270 H       1  UNL1        0.1460
     24  S         25.1530  -22.0360  -11.1510 S.O2    1  UNL1        0.2460
     25  O         26.2820  -22.8520  -10.7610 O.2     1  UNL1       -0.2060
     26  O         24.5780  -21.0320  -10.2850 O.2     1  UNL1       -0.2060
     27  C         25.5250  -21.2310  -12.7020 C.2     1  UNL1        0.0810
     28  C         26.2710  -20.0410  -12.7680 C.2     1  UNL1       -0.0390
     29  C         26.5690  -19.5170  -14.0370 C.2     1  UNL1        0.0090
     30  C         26.7770  -19.3090  -11.5570 C.3     1  UNL1        0.0500
     31  C         26.1100  -20.1360  -15.2020 C.2     1  UNL1        0.0070
     32  C         25.3280  -21.2910  -15.1320 C.2     1  UNL1       -0.0600
     33  C         24.8470  -21.9640  -16.3840 C.3     1  UNL1        0.0480
     34  C         25.0490  -21.8420  -13.8770 C.2     1  UNL1        0.0320
@<TRIPOS>BOND
     1    33    32    1
     2    31    32    2
     3    31    29    1
     4    32    34    1
     5    29    28    2
     6    34    27    2
     7    28    27    1
     8    28    30    1
     9    27    24    1
    10     2     3    1
    11     2     1    2
    12     3     4    2
    13    22     1    1
    14    22    24    1
    15    22    23    1
    16     1     6    1
    17    24    25    2
    18    24    26    2
    19     4     5    1
    20     6     5    2
    21     5     7    1
    22    11    10    1
    23    10     7    1
    24    10    12    1
    25    13    12    2
    26    13    14    1
    27     7     9    2
    28     7     8    2
    29    12    17    1
    30    14    15    2
    31    17    16    2
    32    15    16    1
    33    16    18    1
    34    18    19    1
    35    18    21    1
    36    18    20    1
