@<TRIPOS>MOLECULE
75405_out_ligand_01.pdbqt
 36 39 0 0 0
SMALL
GASTEIGER

@<TRIPOS>ATOM
      1  C         24.4350  -22.3380  -11.2610 C.2     1  UNL1        0.1090
      2  N         25.5060  -23.0950  -10.8810 N.2     1  UNL1       -0.2530
      3  C         26.1020  -23.8580  -11.8290 C.2     1  UNL1        0.1180
      4  C         25.6780  -23.9250  -13.1460 C.2     1  UNL1        0.0200
      5  C         24.5790  -23.1620  -13.5200 C.2     1  UNL1        0.0210
      6  C         23.9460  -22.3580  -12.5660 C.2     1  UNL1        0.0670
      7  S         23.6410  -21.4360   -9.9410 S.3     1  UNL1       -0.1000
      8  C         22.6520  -22.7680   -9.1870 C.3     1  UNL1        0.1840
      9  C         21.7830  -22.2330   -8.0560 C.2     1  UNL1        0.2310
     10  O         22.1920  -21.3360   -7.3200 O.2     1  UNL1       -0.2720
     11  N         20.5670  -22.8830   -7.9470 N.am    1  UNL1       -0.3260
     12  H         20.3550  -23.5340   -8.7080 H       1  UNL1        0.1690
     13  C         19.5500  -22.6820   -6.9930 C.2     1  UNL1        0.0370
     14  C         19.4230  -21.5160   -6.2170 C.2     1  UNL1        0.0320
     15  C         18.3840  -21.3790   -5.2870 C.2     1  UNL1        0.0420
     16  C         17.4980  -22.4230   -5.1510 C.2     1  UNL1        0.1050
     17  C         17.6190  -23.5670   -5.9030 C.2     1  UNL1        0.1070
     18  O         16.4370  -22.4660   -4.3090 O.2     1  UNL1       -0.3230
     19  C         18.6290  -23.7260   -6.8280 C.2     1  UNL1        0.0690
     20  O         16.6490  -24.4780   -5.6230 O.2     1  UNL1       -0.3230
     21  C         15.8960  -23.7670   -4.6170 C.3     1  UNL1        0.3520
     22  C         22.8040  -21.5320  -12.9920 C.2     1  UNL1        0.2540
     23  O         22.9250  -20.7400  -13.9150 O.2     1  UNL1       -0.2680
     24  N         21.6380  -21.7600  -12.3020 N.am    1  UNL1       -0.3530
     25  H         21.6440  -22.3440  -11.4760 H       1  UNL1        0.1630
     26  C         20.4700  -20.9480  -12.5530 C.3     1  UNL1        0.1610
     27  C         19.3030  -21.4350  -11.7370 C.2     1  UNL1       -0.0410
     28  C         18.1490  -20.6500  -11.6100 C.2     1  UNL1        0.0090
     29  C         17.0810  -21.0800  -10.8210 C.2     1  UNL1        0.0170
     30  C         17.1440  -22.3070  -10.1420 C.2     1  UNL1        0.0470
     31  C         18.2950  -23.0960  -10.2780 C.2     1  UNL1        0.0170
     32  C         19.3710  -22.6560  -11.0560 C.2     1  UNL1        0.0090
     33  C         15.9810  -22.7750   -9.3050 C.3     1  UNL1        0.4170
     34  F         14.7770  -22.6080   -9.9200 F       1  UNL1       -0.1660
     35  F         15.8900  -22.1150   -8.1190 F       1  UNL1       -0.1660
     36  F         16.0530  -24.1000   -8.9920 F       1  UNL1       -0.1660
@<TRIPOS>BOND
     1    23    22    2
     2     5     4    2
     3     5     6    1
     4     4     3    1
     5    22     6    1
     6    22    24   am
     7     6     1    2
     8    26    24    1
     9    26    27    1
    10    24    25    1
    11     3     2    2
    12    27    28    2
    13    27    32    1
    14    28    29    1
    15     1     2    1
    16     1     7    1
    17    32    31    2
    18    29    30    2
    19    31    30    1
    20    30    33    1
    21     7     8    1
    22    34    33    1
    23    33    36    1
    24    33    35    1
    25     8     9    1
    26    12    11    1
    27     9    11   am
    28     9    10    2
    29    11    13    1
    30    13    19    2
    31    13    14    1
    32    19    17    1
    33    14    15    2
    34    17    20    1
    35    17    16    2
    36    20    21    1
    37    15    16    1
    38    16    18    1
    39    21    18    1
