@<TRIPOS>MOLECULE
75402_out_ligand_01.pdbqt
 36 39 0 0 0
SMALL
GASTEIGER

@<TRIPOS>ATOM
      1  C         17.0270  -23.0280   -8.8410 C.2     1  UNL1        0.0810
      2  C         16.3600  -22.1220   -9.6660 C.2     1  UNL1        0.0270
      3  C         17.0630  -21.4740  -10.6820 C.2     1  UNL1        0.0260
      4  C         18.4310  -21.7200  -10.8740 C.2     1  UNL1        0.0490
      5 CL         19.2020  -20.8280  -12.1360 Cl      1  UNL1       -0.0830
      6  C         19.1050  -22.6280  -10.0410 C.2     1  UNL1        0.0550
      7  C         18.3930  -23.2720   -9.0110 C.2     1  UNL1        0.0440
      8  C         20.5560  -22.9640  -10.1410 C.2     1  UNL1        0.2570
      9  O         20.9320  -24.0130   -9.6290 O.2     1  UNL1       -0.2670
     10  N         21.3440  -22.0770  -10.8480 N.am    1  UNL1       -0.3230
     11  H         20.9000  -21.2230  -11.1680 H       1  UNL1        0.1690
     12  C         22.7230  -22.1850  -11.1280 C.2     1  UNL1        0.0350
     13  C         23.6100  -21.6680  -10.1730 C.2     1  UNL1        0.0290
     14  C         24.9900  -21.7240  -10.3750 C.2     1  UNL1        0.0030
     15  C         25.4980  -22.3100  -11.5320 C.2     1  UNL1        0.0170
     16  C         24.6260  -22.8450  -12.4870 C.2     1  UNL1        0.0340
     17  C         23.2390  -22.7620  -12.2900 C.2     1  UNL1        0.0460
     18  C         25.2150  -23.4740  -13.7030 C.2     1  UNL1        0.2520
     19  O         25.7990  -24.5490  -13.6090 O.2     1  UNL1       -0.2680
     20  N         25.0200  -22.8030  -14.8970 N.am    1  UNL1       -0.3520
     21  H         24.4070  -21.9990  -14.9200 H       1  UNL1        0.1630
     22  C         25.4660  -23.3320  -16.1460 C.3     1  UNL1        0.0840
     23  C         25.7960  -22.4150  -17.2890 C.3     1  UNL1        0.0270
     24  C         24.5740  -23.2810  -17.3560 C.3     1  UNL1        0.0270
     25  S         16.1430  -23.8320   -7.5250 S.O2    1  UNL1        0.2630
     26  O         15.5510  -25.0440   -8.0470 O.2     1  UNL1       -0.2000
     27  O         15.3310  -22.8290   -6.8700 O.2     1  UNL1       -0.2000
     28  N         17.3830  -24.2110   -6.4430 N.pl3   1  UNL1       -0.2810
     29  H         18.1530  -24.6850   -6.9120 H       1  UNL1        0.1790
     30  C         17.7160  -23.2570   -5.4440 C.2     1  UNL1        0.0430
     31  C         17.3320  -23.4550   -4.1210 C.2     1  UNL1        0.0300
     32  C         17.6810  -22.5150   -3.1530 C.2     1  UNL1        0.0030
     33  C         18.4110  -21.3810   -3.5120 C.2     1  UNL1        0.0070
     34  C         18.8080  -21.1820   -4.8400 C.2     1  UNL1       -0.0600
     35  C         19.5630  -19.9450   -5.2320 C.3     1  UNL1        0.0480
     36  C         18.4420  -22.1250   -5.8090 C.2     1  UNL1        0.0370
@<TRIPOS>BOND
     1    24    23    1
     2    24    22    1
     3    23    22    1
     4    22    20    1
     5    21    20    1
     6    20    18   am
     7    18    19    2
     8    18    16    1
     9    16    17    1
    10    16    15    2
    11    17    12    2
    12     5     4    1
    13    15    14    1
    14    11    10    1
    15    12    10    1
    16    12    13    1
    17     4     3    2
    18     4     6    1
    19    10     8   am
    20     3     2    1
    21    14    13    2
    22     8     6    1
    23     8     9    2
    24     6     7    2
    25     2     1    2
    26     7     1    1
    27     1    25    1
    28    26    25    2
    29    25    27    2
    30    25    28    1
    31    29    28    1
    32    28    30    1
    33    36    30    2
    34    36    34    1
    35    30    31    1
    36    35    34    1
    37    34    33    2
    38    31    32    2
    39    33    32    1
