@<TRIPOS>MOLECULE
75400_out_ligand_01.pdbqt
 33 36 0 0 0
SMALL
GASTEIGER

@<TRIPOS>ATOM
      1  C         20.9700  -23.2250   -9.8380 C.2     1  UNL1        0.2560
      2  O         21.4320  -24.3020   -9.4870 O.2     1  UNL1       -0.2670
      3  N         21.6170  -22.1980  -10.4970 N.am    1  UNL1       -0.3230
      4  H         21.0480  -21.4070  -10.7750 H       1  UNL1        0.1690
      5  C         19.5290  -22.9650   -9.5930 C.2     1  UNL1        0.0390
      6  C         18.9800  -23.5100   -8.4250 C.2     1  UNL1        0.0420
      7  C         17.6220  -23.3320   -8.1640 C.2     1  UNL1        0.0750
      8  C         16.8140  -22.6070   -9.0420 C.2     1  UNL1        0.0250
      9  C         17.3720  -22.0450  -10.1920 C.2     1  UNL1        0.0090
     10  C         18.7390  -22.2010  -10.4760 C.2     1  UNL1       -0.0460
     11  C         19.3050  -21.5450  -11.7060 C.3     1  UNL1        0.0490
     12  S         16.8940  -24.0190   -6.6980 S.O2    1  UNL1        0.2430
     13  O         17.6360  -25.2210   -6.3820 O.2     1  UNL1       -0.2060
     14  O         15.4550  -24.0390   -6.8600 O.2     1  UNL1       -0.2060
     15  N         17.2550  -22.8310   -5.5120 N.3     1  UNL1       -0.2060
     16  C         17.1600  -23.3140   -4.1040 C.3     1  UNL1        0.1070
     17  C         17.2550  -22.1240   -3.1530 C.3     1  UNL1        0.0150
     18  C         18.5460  -21.3420   -3.3740 C.3     1  UNL1        0.0020
     19  C         18.6920  -20.9450   -4.8400 C.3     1  UNL1        0.0150
     20  C         18.5610  -22.1560   -5.7600 C.3     1  UNL1        0.1070
     21  C         22.9740  -22.1440  -10.8740 C.2     1  UNL1        0.0350
     22  C         23.9550  -21.4530  -10.1620 C.2     1  UNL1        0.0290
     23  C         25.2850  -21.4580  -10.5940 C.2     1  UNL1        0.0030
     24  C         25.6470  -22.1460  -11.7520 C.2     1  UNL1        0.0170
     25  C         24.6700  -22.8250  -12.4870 C.2     1  UNL1        0.0340
     26  C         23.3400  -22.8310  -12.0380 C.2     1  UNL1        0.0460
     27  C         24.9910  -23.5770  -13.7310 C.2     1  UNL1        0.2520
     28  O         25.2960  -24.7640  -13.6620 O.2     1  UNL1       -0.2680
     29  N         24.8860  -22.8750  -14.9160 N.am    1  UNL1       -0.3520
     30  H         24.4600  -21.9580  -14.9120 H       1  UNL1        0.1630
     31  C         25.1340  -23.4880  -16.1830 C.3     1  UNL1        0.0840
     32  C         24.0530  -23.5600  -17.2260 C.3     1  UNL1        0.0270
     33  C         25.2260  -22.6480  -17.4270 C.3     1  UNL1        0.0270
@<TRIPOS>BOND
     1    33    32    1
     2    33    31    1
     3    32    31    1
     4    31    29    1
     5    29    30    1
     6    29    27   am
     7    27    28    2
     8    27    25    1
     9    25    26    1
    10    25    24    2
    11    26    21    2
    12    24    23    1
    13    11    10    1
    14    21     3    1
    15    21    22    1
    16     4     3    1
    17    23    22    2
    18     3     1   am
    19    10     9    1
    20    10     5    2
    21     9     8    2
    22     1     5    1
    23     1     2    2
    24     5     6    1
    25     8     7    1
    26     6     7    2
    27     7    12    1
    28    14    12    2
    29    12    13    2
    30    12    15    1
    31    20    15    1
    32    20    19    1
    33    15    16    1
    34    19    18    1
    35    16    17    1
    36    18    17    1
