@<TRIPOS>MOLECULE
75436_out_ligand_01.pdbqt
 26 29 0 0 0
SMALL
GASTEIGER

@<TRIPOS>ATOM
      1  O         18.8080  -22.0620  -10.4460 O.2     1  UNL1       -0.2670
      2  C         19.9420  -22.3690  -10.0890 C.2     1  UNL1        0.2630
      3  N         20.2390  -22.8950   -8.8370 N.am    1  UNL1       -0.3220
      4  H         21.1870  -23.2210   -8.7070 H       1  UNL1        0.1690
      5  C         19.3620  -23.1070   -7.7520 C.2     1  UNL1        0.0360
      6  C         18.5470  -24.2520   -7.6080 C.2     1  UNL1        0.0300
      7  C         17.6860  -24.4070   -6.5100 C.2     1  UNL1        0.0200
      8  C         17.6630  -23.3960   -5.5770 C.2     1  UNL1        0.0480
      9  C         18.4550  -22.2710   -5.7100 C.2     1  UNL1        0.0500
     10  C         16.8930  -23.2470   -4.3420 C.2     1  UNL1        0.2590
     11  C         19.3110  -22.0940   -6.7810 C.2     1  UNL1        0.0470
     12  C         18.1900  -21.4070   -4.5620 C.2     1  UNL1        0.2590
     13  O         18.7170  -20.3320   -4.3580 O.2     1  UNL1       -0.2670
     14  N         17.2600  -22.0500   -3.8050 N.am    1  UNL1       -0.2890
     15  H         16.8860  -21.6860   -2.9440 H       1  UNL1        0.1720
     16  O         16.0930  -24.0480   -3.9070 O.2     1  UNL1       -0.2670
     17  C         21.1110  -22.2320  -10.9590 C.2     1  UNL1        0.0730
     18  C         21.2530  -21.5850  -12.1720 C.2     1  UNL1        0.0320
     19  C         22.5800  -21.6760  -12.7190 C.2     1  UNL1       -0.0430
     20  C         23.4110  -22.3970  -11.8770 C.2     1  UNL1       -0.0100
     21  C         22.9750  -21.0540  -14.0320 C.3     1  UNL1        0.0400
     22  S         22.5810  -22.9750  -10.4960 S.3     1  UNL1       -0.0890
     23  C         24.8680  -22.7390  -12.0410 C.3     1  UNL1        0.0460
     24  C         25.6480  -21.6610  -12.7890 C.3     1  UNL1        0.0050
     25  C         25.4500  -21.6770  -14.3070 C.3     1  UNL1        0.0010
     26  C         24.0150  -21.8590  -14.8070 C.3     1  UNL1        0.0050
@<TRIPOS>BOND
     1    26    25    1
     2    26    21    1
     3    25    24    1
     4    21    19    1
     5    24    23    1
     6    19    18    1
     7    19    20    2
     8    18    17    2
     9    23    20    1
    10    20    22    1
    11    17    22    1
    12    17     2    1
    13     1     2    2
    14     2     3   am
    15     3     4    1
    16     3     5    1
    17     5     6    2
    18     5    11    1
    19     6     7    1
    20    11     9    2
    21     7     8    2
    22     9     8    1
    23     9    12    1
    24     8    10    1
    25    12    13    2
    26    12    14   am
    27    10    16    2
    28    10    14   am
    29    14    15    1
