@<TRIPOS>MOLECULE
75430_out_ligand_01.pdbqt
 37 40 0 0 0
SMALL
GASTEIGER

@<TRIPOS>ATOM
      1  C         23.4110  -22.8140   -9.4190 C.2     1  UNL1        0.2510
      2  O         23.8070  -23.7930   -8.7980 O.2     1  UNL1       -0.2680
      3  N         22.2970  -22.0720   -9.0840 N.am    1  UNL1       -0.3560
      4  H         21.9190  -21.4630   -9.7990 H       1  UNL1        0.1620
      5  C         24.0860  -22.3930  -10.6690 C.2     1  UNL1        0.0320
      6  C         23.7460  -23.0270  -11.8630 C.2     1  UNL1        0.0190
      7  C         24.3110  -22.5970  -13.0670 C.2     1  UNL1        0.0300
      8  C         25.2370  -21.5510  -13.0850 C.2     1  UNL1        0.0340
      9  C         25.6150  -20.9540  -11.8710 C.2     1  UNL1        0.0300
     10  C         25.0340  -21.3630  -10.6670 C.2     1  UNL1        0.0190
     11  N         25.8310  -21.0490  -14.2620 N.am    1  UNL1       -0.3270
     12  C         25.1790  -20.5870  -15.3910 C.2     1  UNL1        0.2310
     13  O         23.9640  -20.4890  -15.5520 O.2     1  UNL1       -0.2720
     14  H         26.8460  -20.9900  -14.2550 H       1  UNL1        0.1690
     15  C         26.1180  -20.1550  -16.5020 C.3     1  UNL1        0.1850
     16  S         26.4280  -21.4750  -17.6980 S.3     1  UNL1       -0.0800
     17  C         26.1990  -22.9120  -16.7700 C.ar    1  UNL1        0.1980
     18  N         27.1100  -23.4600  -16.0000 N.ar    1  UNL1       -0.1350
     19  N         26.5110  -24.5650  -15.4410 N.ar    1  UNL1        0.0180
     20  N         25.2720  -24.7140  -15.8830 N.ar    1  UNL1       -0.0030
     21  N         25.0670  -23.6740  -16.7130 N.ar    1  UNL1       -0.2590
     22  C         23.7990  -23.5290  -17.3690 C.3     1  UNL1        0.1770
     23  C         21.3940  -22.4710   -8.0060 C.3     1  UNL1        0.1410
     24  C         20.0630  -23.1650   -8.4830 C.3     1  UNL1        0.0260
     25  C         20.4340  -24.6180   -8.9080 C.3     1  UNL1        0.0270
     26  C         19.3970  -22.4620   -9.7080 C.2     1  UNL1       -0.0440
     27  C         18.0040  -22.2400   -9.7300 C.2     1  UNL1        0.0080
     28  C         17.3800  -21.6110  -10.8110 C.2     1  UNL1        0.0010
     29  C         18.1350  -21.1700  -11.8920 C.2     1  UNL1        0.0000
     30  C         19.5140  -21.3450  -11.8830 C.2     1  UNL1        0.0010
     31  C         20.1380  -21.9750  -10.8020 C.2     1  UNL1        0.0080
     32  C         19.1080  -23.1630   -7.2550 C.2     1  UNL1       -0.0440
     33  C         19.0120  -22.0540   -6.3920 C.2     1  UNL1        0.0080
     34  C         18.1320  -22.0520   -5.3060 C.2     1  UNL1        0.0010
     35  C         17.3180  -23.1530   -5.0610 C.2     1  UNL1        0.0000
     36  C         17.3770  -24.2530   -5.9080 C.2     1  UNL1        0.0010
     37  C         18.2560  -24.2540   -6.9940 C.2     1  UNL1        0.0080
@<TRIPOS>BOND
     1    16    17    1
     2    16    15    1
     3    22    21    1
     4    17    21   ar
     5    17    18   ar
     6    21    20   ar
     7    15    12    1
     8    18    19   ar
     9    20    19   ar
    10    13    12    2
    11    12    11   am
    12    11    14    1
    13    11     8    1
    14     8     7    2
    15     8     9    1
    16     7     6    1
    17    29    30    2
    18    29    28    1
    19    30    31    1
    20     9    10    2
    21     6     5    2
    22    28    27    2
    23    31    26    2
    24     5    10    1
    25     5     1    1
    26     4     3    1
    27    27    26    1
    28    26    24    1
    29     1     3   am
    30     1     2    2
    31     3    23    1
    32    25    24    1
    33    24    23    1
    34    24    32    1
    35    32    37    2
    36    32    33    1
    37    37    36    1
    38    33    34    2
    39    36    35    2
    40    34    35    1
