@<TRIPOS>MOLECULE
75440_out_ligand_01.pdbqt
 37 40 0 0 0
SMALL
GASTEIGER

@<TRIPOS>ATOM
      1  C         20.0480  -22.3220  -10.4790 C.2     1  UNL1        0.0540
      2  C         19.1340  -21.3980  -11.0030 C.2     1  UNL1        0.0190
      3  C         19.4740  -20.6480  -12.1310 C.2     1  UNL1        0.0010
      4  C         20.7190  -20.8200  -12.7370 C.2     1  UNL1        0.0020
      5  C         21.6310  -21.7440  -12.2200 C.2     1  UNL1        0.0250
      6  C         21.2960  -22.5060  -11.1000 C.2     1  UNL1        0.0380
      7  N         22.2890  -23.3790  -10.5410 N.pl3   1  UNL1       -0.1800
      8  H         21.9060  -24.0450   -9.8520 H       1  UNL1        0.1460
      9  S         23.6300  -22.6150   -9.8290 S.O2    1  UNL1        0.2460
     10  O         24.2710  -23.5890   -8.9730 O.2     1  UNL1       -0.2060
     11  O         23.2310  -21.3160   -9.3280 O.2     1  UNL1       -0.2060
     12  C         24.7050  -22.3790  -11.2250 C.2     1  UNL1        0.0770
     13  C         25.5830  -21.2660  -11.2520 C.2     1  UNL1        0.0270
     14  C         26.4400  -21.0630  -12.3400 C.2     1  UNL1        0.0330
     15  C         26.3820  -21.9920  -13.3530 C.ar    1  UNL1        0.0630
     16  N         27.1010  -22.0540  -14.5410 N.ar    1  UNL1       -0.3070
     17  C         25.5210  -23.0900  -13.3140 C.ar    1  UNL1        0.0640
     18  C         26.6980  -23.1930  -15.2540 C.ar    1  UNL1        0.3250
     19  H         27.8070  -21.4150  -14.8640 H       1  UNL1        0.1700
     20  O         27.1200  -23.5590  -16.3350 O.2     1  UNL1       -0.2470
     21  N         25.7140  -23.8240  -14.4780 N.ar    1  UNL1       -0.3060
     22  H         25.2520  -24.6770  -14.7500 H       1  UNL1        0.1700
     23  C         24.6690  -23.3200  -12.2630 C.2     1  UNL1        0.0560
     24  C         19.6930  -23.1330   -9.2880 C.2     1  UNL1        0.2530
     25  N         19.2020  -22.4340   -8.2030 N.am    1  UNL1       -0.3520
     26  H         19.4090  -21.4420   -8.1920 H       1  UNL1        0.1630
     27  O         19.8930  -24.3430   -9.3000 O.2     1  UNL1       -0.2680
     28  C         19.0260  -23.0980   -6.9100 C.3     1  UNL1        0.0870
     29  C         18.5300  -22.0880   -5.8680 C.3     1  UNL1        0.0450
     30  C         17.8750  -22.7860   -4.6860 C.3     1  UNL1        0.1370
     31  N         16.7050  -23.5750   -5.1270 N.3     1  UNL1       -0.3110
     32  C         16.6870  -24.0060   -6.5430 C.3     1  UNL1        0.1370
     33  C         18.1020  -24.3230   -7.0100 C.3     1  UNL1        0.0450
     34  S         15.2250  -23.3340   -4.3510 S.O2    1  UNL1        0.2240
     35  C         14.3630  -22.2870   -5.5070 C.3     1  UNL1        0.1860
     36  O         14.5280  -24.6010   -4.3020 O.2     1  UNL1       -0.2060
     37  O         15.4700  -22.5610   -3.1530 O.2     1  UNL1       -0.2060
@<TRIPOS>BOND
     1    20    18    2
     2    18    16   ar
     3    18    21   ar
     4    19    16    1
     5    22    21    1
     6    16    15   ar
     7    21    17   ar
     8    15    17   ar
     9    15    14    1
    10    17    23    1
    11     4     5    2
    12     4     3    1
    13    14    13    2
    14    23    12    2
    15     5     6    1
    16     3     2    2
    17    13    12    1
    18    12     9    1
    19     6     7    1
    20     6     1    2
    21     2     1    1
    22     7     8    1
    23     7     9    1
    24     1    24    1
    25     9    11    2
    26     9    10    2
    27    27    24    2
    28    24    25   am
    29    25    26    1
    30    25    28    1
    31    33    28    1
    32    33    32    1
    33    28    29    1
    34    32    31    1
    35    29    30    1
    36    35    34    1
    37    31    30    1
    38    31    34    1
    39    34    36    2
    40    34    37    2
