@<TRIPOS>MOLECULE
7544_out_ligand_01.pdbqt
 35 38 0 0 0
SMALL
GASTEIGER

@<TRIPOS>ATOM
      1  S         16.0370  -22.5720   -9.7180 S.O2    1  UNL1        0.2680
      2  O         14.8080  -21.9420  -10.1540 O.2     1  UNL1       -0.2040
      3  O         16.2400  -23.9990   -9.8490 O.2     1  UNL1       -0.2040
      4  C         17.3600  -21.8560  -10.6420 C.ar    1  UNL1        0.2330
      5  N         17.3800  -20.6080  -11.0660 N.ar    1  UNL1       -0.1270
      6  N         18.5170  -20.3560  -11.8150 N.ar    1  UNL1       -0.1220
      7  C         19.2850  -21.4160  -11.9010 C.ar    1  UNL1        0.1970
      8  S         18.7210  -22.7940  -11.0600 S.2     1  UNL1       -0.0150
      9  N         20.4630  -21.6080  -12.5680 N.am    1  UNL1       -0.3000
     10  C         21.6780  -21.5180  -11.9310 C.2     1  UNL1        0.2570
     11  O         21.8680  -21.3340  -10.7360 O.2     1  UNL1       -0.2670
     12  H         20.3990  -21.8660  -13.5400 H       1  UNL1        0.1710
     13  C         22.8610  -21.7060  -12.8170 C.2     1  UNL1        0.0320
     14  C         23.9070  -22.5200  -12.3700 C.2     1  UNL1        0.0170
     15  C         25.0330  -22.7190  -13.1710 C.2     1  UNL1        0.0070
     16  C         25.1260  -22.1060  -14.4270 C.2     1  UNL1       -0.0620
     17  C         26.3540  -22.2890  -15.2710 C.3     1  UNL1        0.0480
     18  C         24.0920  -21.2650  -14.8560 C.2     1  UNL1        0.0070
     19  C         22.9630  -21.0640  -14.0570 C.2     1  UNL1        0.0170
     20  N         16.2860  -22.2000   -8.0850 N.3     1  UNL1       -0.2000
     21  H         15.3920  -22.0020   -7.6340 H       1  UNL1        0.1410
     22  C         17.1230  -23.1360   -7.2960 C.3     1  UNL1        0.1370
     23  C         16.6850  -23.1930   -5.8350 C.2     1  UNL1       -0.0350
     24  C         17.4690  -23.8810   -4.8930 C.2     1  UNL1        0.0090
     25  C         17.0650  -23.9720   -3.5600 C.2     1  UNL1        0.0010
     26  C         15.8720  -23.3810   -3.1530 C.2     1  UNL1        0.0000
     27  C         15.0850  -22.6930   -4.0750 C.2     1  UNL1        0.0010
     28  C         15.4900  -22.5930   -5.4060 C.2     1  UNL1        0.0090
     29  C         18.6240  -22.8440   -7.4460 C.2     1  UNL1       -0.0350
     30  C         19.1850  -21.7140   -6.8230 C.2     1  UNL1        0.0090
     31  C         20.5480  -21.4310   -6.9320 C.2     1  UNL1        0.0010
     32  C         21.3820  -22.2830   -7.6530 C.2     1  UNL1        0.0070
     33  C         20.8620  -23.4300   -8.2600 C.2     1  UNL1       -0.0610
     34  C         21.7490  -24.3600   -9.0340 C.3     1  UNL1        0.0480
     35  C         19.4900  -23.7040   -8.1480 C.2     1  UNL1        0.0150
@<TRIPOS>BOND
     1    17    16    1
     2    18    16    2
     3    18    19    1
     4    16    15    1
     5    19    13    2
     6    12     9    1
     7    15    14    2
     8    13    14    1
     9    13    10    1
    10     9    10   am
    11     9     7    1
    12    10    11    2
    13     7     6   ar
    14     7     8   ar
    15     6     5   ar
    16     5     4   ar
    17     8     4   ar
    18     4     1    1
    19     2     1    2
    20     3     1    2
    21     1    20    1
    22    34    33    1
    23    33    35    1
    24    33    32    2
    25    35    29    2
    26    20    21    1
    27    20    22    1
    28    32    31    1
    29    29    22    1
    30    29    30    1
    31    22    23    1
    32    31    30    2
    33    23    28    2
    34    23    24    1
    35    28    27    1
    36    24    25    2
    37    27    26    2
    38    25    26    1
