@<TRIPOS>MOLECULE
75441_out_ligand_01.pdbqt
 30 32 0 0 0
SMALL
GASTEIGER

@<TRIPOS>ATOM
      1  N         19.1950  -23.3040   -6.9280 N.am    1  UNL1       -0.3230
      2  C         18.5270  -22.3370   -6.2040 C.2     1  UNL1        0.2560
      3  O         18.8740  -21.1900   -5.9690 O.2     1  UNL1       -0.2670
      4  H         18.7870  -24.2310   -6.9220 H       1  UNL1        0.1690
      5  C         17.2460  -22.8190   -5.6370 C.2     1  UNL1        0.0380
      6  C         17.2860  -23.3640   -4.3470 C.2     1  UNL1        0.0170
      7  C         16.1200  -23.8630   -3.7700 C.2     1  UNL1        0.0010
      8  C         14.9190  -23.8120   -4.4750 C.2     1  UNL1        0.0010
      9  C         14.8770  -23.2530   -5.7560 C.2     1  UNL1        0.0080
     10  C         16.0380  -22.7400   -6.3560 C.2     1  UNL1       -0.0420
     11  C         15.9400  -22.1070   -7.7260 C.3     1  UNL1        0.0440
     12  C         16.3070  -23.0880   -8.8440 C.3     1  UNL1        0.0430
     13  C         17.1490  -22.4340   -9.9120 C.2     1  UNL1       -0.0580
     14  C         18.3740  -22.9990  -10.2920 C.2     1  UNL1        0.0070
     15  C         19.1620  -22.3910  -11.2690 C.2     1  UNL1        0.0010
     16  C         18.7340  -21.2110  -11.8740 C.2     1  UNL1        0.0000
     17  C         17.5190  -20.6380  -11.5010 C.2     1  UNL1        0.0010
     18  C         16.7300  -21.2450  -10.5230 C.2     1  UNL1        0.0070
     19  C         20.3840  -23.1510   -7.6650 C.2     1  UNL1        0.0350
     20  C         20.7580  -24.2060   -8.5060 C.2     1  UNL1        0.0300
     21  C         21.9150  -24.1230   -9.2860 C.2     1  UNL1        0.0100
     22  C         22.7190  -22.9800   -9.2400 C.2     1  UNL1       -0.0490
     23  C         22.3410  -21.9230   -8.4020 C.2     1  UNL1        0.0100
     24  C         21.1840  -22.0100   -7.6210 C.2     1  UNL1        0.0300
     25  C         23.9780  -22.8860  -10.0700 C.3     1  UNL1        0.1410
     26  C         23.7520  -22.9010  -11.5700 C.2     1  UNL1        0.2190
     27  N         24.5090  -23.7720  -12.3030 N.am    1  UNL1       -0.3700
     28  H         25.4070  -24.0840  -11.9550 H       1  UNL1        0.1590
     29  H         24.4080  -23.7000  -13.3070 H       1  UNL1        0.1590
     30  O         22.8800  -22.2310  -12.1170 O.2     1  UNL1       -0.2730
@<TRIPOS>BOND
     1    29    27    1
     2    27    28    1
     3    27    26   am
     4    30    26    2
     5    16    17    2
     6    16    15    1
     7    26    25    1
     8    17    18    1
     9    15    14    2
    10    18    13    2
    11    14    13    1
    12    25    22    1
    13    13    12    1
    14    21    22    2
    15    21    20    1
    16    22    23    1
    17    12    11    1
    18    20    19    2
    19    23    24    2
    20    11    10    1
    21    19    24    1
    22    19     1    1
    23     1     4    1
    24     1     2   am
    25    10     9    1
    26    10     5    2
    27     2     3    2
    28     2     5    1
    29     9     8    2
    30     5     6    1
    31     8     7    1
    32     6     7    2
