@<TRIPOS>MOLECULE
75454_out_ligand_01.pdbqt
 34 37 0 0 0
SMALL
GASTEIGER

@<TRIPOS>ATOM
      1  N         21.9550  -23.2410   -9.9380 N.3     1  UNL1       -0.3140
      2  H         21.4320  -23.0060  -10.7840 H       1  UNL1        0.1720
      3  S         23.5130  -22.6220   -9.9430 S.O2    1  UNL1        0.2580
      4  O         23.4240  -21.2740   -9.4290 O.2     1  UNL1       -0.2010
      5  O         24.3980  -23.6050   -9.3630 O.2     1  UNL1       -0.2010
      6  C         23.8440  -22.5050  -11.6850 C.2     1  UNL1        0.0790
      7  C         24.9380  -23.1810  -12.2340 C.2     1  UNL1        0.0270
      8  C         25.1920  -23.0770  -13.6030 C.2     1  UNL1        0.0260
      9  C         24.3610  -22.2830  -14.4010 C.2     1  UNL1        0.0740
     10  C         23.2670  -21.6050  -13.8520 C.2     1  UNL1        0.0260
     11  C         23.0120  -21.7110  -12.4840 C.2     1  UNL1        0.0270
     12  S         24.6850  -22.1710  -16.1430 S.O2    1  UNL1        0.2390
     13  O         23.6680  -22.9190  -16.8460 O.2     1  UNL1       -0.2060
     14  O         26.0960  -22.3890  -16.3550 O.2     1  UNL1       -0.2060
     15  N         24.3500  -20.5500  -16.4460 N.3     1  UNL1       -0.2250
     16  H         25.1980  -20.0010  -16.2950 H       1  UNL1        0.1360
     17  H         23.9470  -20.3820  -17.3680 H       1  UNL1        0.1360
     18  C         21.2060  -23.2550   -8.6620 C.3     1  UNL1        0.1470
     19  C         19.6940  -23.4390   -8.9170 C.3     1  UNL1        0.0790
     20  C         19.0920  -22.4680   -9.9240 C.2     1  UNL1       -0.0070
     21  C         19.7810  -21.5560  -10.7060 C.2     1  UNL1        0.0160
     22  C         18.9220  -20.7870  -11.5430 C.2     1  UNL1        0.0080
     23  C         17.6020  -21.1370  -11.3820 C.2     1  UNL1        0.0500
     24  S         17.4050  -22.3810  -10.2300 S.3     1  UNL1       -0.1060
     25  C         18.8780  -23.5160   -7.6430 C.2     1  UNL1       -0.0200
     26  C         18.0170  -24.5540   -7.3240 C.2     1  UNL1        0.0970
     27  N         17.4590  -24.3010   -6.1030 N.pl3   1  UNL1       -0.3650
     28  C         17.9370  -23.1160   -5.5990 C.2     1  UNL1        0.0420
     29  H         16.7920  -24.8950   -5.6310 H       1  UNL1        0.1650
     30  C         17.6440  -22.4790   -4.3870 C.2     1  UNL1        0.0300
     31  C         18.8260  -22.5920   -6.5410 C.2     1  UNL1       -0.0010
     32  C         18.2770  -21.2630   -4.1210 C.2     1  UNL1        0.0020
     33  C         19.1660  -20.7080   -5.0350 C.2     1  UNL1        0.0010
     34  C         19.4460  -21.3600   -6.2430 C.2     1  UNL1        0.0140
@<TRIPOS>BOND
     1    17    15    1
     2    13    12    2
     3    15    16    1
     4    15    12    1
     5    14    12    2
     6    12     9    1
     7     9    10    2
     8     9     8    1
     9    10    11    1
    10     8     7    2
    11    11     6    2
    12     7     6    1
    13     6     3    1
    14    22    23    2
    15    22    21    1
    16    23    24    1
    17     2     1    1
    18    21    20    2
    19    24    20    1
    20     3     1    1
    21     3     4    2
    22     3     5    2
    23     1    18    1
    24    20    19    1
    25    19    18    1
    26    19    25    1
    27    25    26    2
    28    25    31    1
    29    26    27    1
    30    31    34    1
    31    31    28    2
    32    34    33    2
    33    27    29    1
    34    27    28    1
    35    28    30    1
    36    33    32    1
    37    30    32    2
