@<TRIPOS>MOLECULE
75465_out_ligand_01.pdbqt
 33 36 0 0 0
SMALL
GASTEIGER

@<TRIPOS>ATOM
      1  N         16.3980  -21.8610   -7.7630 N.pl3   1  UNL1       -0.1800
      2  H         15.6630  -21.1600   -7.9410 H       1  UNL1        0.1460
      3  C         16.3190  -22.4510   -6.4570 C.2     1  UNL1        0.0380
      4  C         15.0640  -22.8220   -5.9670 C.2     1  UNL1        0.0250
      5  C         14.9390  -23.3260   -4.6710 C.2     1  UNL1        0.0020
      6  C         16.0650  -23.4570   -3.8570 C.2     1  UNL1        0.0010
      7  C         17.3220  -23.0800   -4.3330 C.2     1  UNL1        0.0190
      8  C         17.4510  -22.5610   -5.6310 C.2     1  UNL1        0.0540
      9  C         18.7870  -22.1740   -6.1540 C.2     1  UNL1        0.2580
     10  O         19.2620  -21.1100   -5.7720 O.2     1  UNL1       -0.2670
     11  N         19.3740  -23.0990   -6.9950 N.am    1  UNL1       -0.3220
     12  H         18.9220  -24.0020   -7.0690 H       1  UNL1        0.1690
     13  C         20.6150  -22.9750   -7.6570 C.2     1  UNL1        0.0520
     14  C         21.4170  -21.8370   -7.6230 C.2     1  UNL1        0.0320
     15  C         22.6230  -21.8180   -8.3250 C.2     1  UNL1        0.0210
     16  C         22.9890  -22.9430   -9.0460 C.2     1  UNL1        0.1160
     17  N         22.2410  -24.0630   -9.1120 N.2     1  UNL1       -0.2710
     18  C         21.0800  -24.0510   -8.4150 C.2     1  UNL1        0.1450
     19  S         16.4160  -22.9480   -9.0690 S.O2    1  UNL1        0.2460
     20  O         15.1180  -22.8710   -9.7030 O.2     1  UNL1       -0.2060
     21  O         16.9730  -24.2110   -8.6290 O.2     1  UNL1       -0.2060
     22  C         17.5700  -22.1730  -10.1770 C.2     1  UNL1        0.0770
     23  C         17.2010  -20.9840  -10.8530 C.2     1  UNL1        0.0270
     24  C         18.0950  -20.3560  -11.7280 C.2     1  UNL1        0.0330
     25  C         19.3260  -20.9490  -11.8810 C.ar    1  UNL1        0.0630
     26  N         20.4060  -20.5620  -12.6680 N.ar    1  UNL1       -0.3070
     27  C         19.6870  -22.1150  -11.2030 C.ar    1  UNL1        0.0640
     28  C         21.4490  -21.4810  -12.4870 C.ar    1  UNL1        0.3250
     29  H         20.4690  -19.7580  -13.2700 H       1  UNL1        0.1700
     30  O         22.5440  -21.4510  -13.0180 O.2     1  UNL1       -0.2470
     31  N         20.9860  -22.4410  -11.5750 N.ar    1  UNL1       -0.3060
     32  H         21.5380  -23.2200  -11.2550 H       1  UNL1        0.1700
     33  C         18.8350  -22.7550  -10.3380 C.2     1  UNL1        0.0560
@<TRIPOS>BOND
     1    29    26    1
     2    30    28    2
     3    26    28   ar
     4    26    25   ar
     5    28    31   ar
     6    25    24    2
     7    25    27   ar
     8    24    23    1
     9    31    32    1
    10    31    27   ar
    11    27    33    2
    12    23    22    2
    13    33    22    1
    14    22    19    1
    15    20    19    2
    16    17    16    2
    17    17    18    1
    18    19    21    2
    19    19     1    1
    20    16    15    1
    21    18    13    2
    22    15    14    2
    23     2     1    1
    24     1     3    1
    25    13    14    1
    26    13    11    1
    27    12    11    1
    28    11     9   am
    29     3     4    2
    30     3     8    1
    31     9    10    2
    32     9     8    1
    33     4     5    1
    34     8     7    2
    35     5     6    2
    36     7     6    1
