@<TRIPOS>MOLECULE
75461_out_ligand_01.pdbqt
 36 39 0 0 0
SMALL
GASTEIGER

@<TRIPOS>ATOM
      1  N         27.0110  -24.3800  -12.1830 N.1     1  UNL1       -0.1910
      2  C         26.2120  -23.6490  -12.6020 C.1     1  UNL1        0.1010
      3  C         25.2100  -22.7510  -13.0980 C.2     1  UNL1        0.0680
      4  C         23.9190  -22.8070  -12.5470 C.2     1  UNL1        0.0540
      5  C         22.9110  -21.9480  -12.9950 C.2     1  UNL1        0.0360
      6  C         23.2100  -21.0190  -13.9990 C.2     1  UNL1        0.0310
      7  C         24.4920  -20.9580  -14.5530 C.2     1  UNL1        0.0280
      8  C         25.4930  -21.8220  -14.1040 C.2     1  UNL1        0.0540
      9 CL         27.0550  -21.6890  -14.8280 Cl      1  UNL1       -0.0830
     10  N         21.5960  -21.9440  -12.4860 N.am    1  UNL1       -0.3230
     11  C         21.1840  -21.4780  -11.2530 C.2     1  UNL1        0.2580
     12  O         21.8910  -21.0430  -10.3510 O.2     1  UNL1       -0.2670
     13  H         20.9060  -22.4450  -13.0320 H       1  UNL1        0.1690
     14  C         19.7250  -21.5810  -11.0000 C.2     1  UNL1        0.0540
     15  C         18.8860  -20.4840  -11.2430 C.2     1  UNL1        0.0190
     16  C         17.5180  -20.5870  -10.9890 C.2     1  UNL1        0.0010
     17  C         16.9860  -21.7760  -10.4900 C.2     1  UNL1        0.0020
     18  C         17.8190  -22.8680  -10.2380 C.2     1  UNL1        0.0250
     19  C         19.1910  -22.7710  -10.4780 C.2     1  UNL1        0.0380
     20  N         20.0030  -23.9400  -10.2910 N.pl3   1  UNL1       -0.1800
     21  H         19.5230  -24.8200  -10.5360 H       1  UNL1        0.1460
     22  S         20.6960  -24.1240   -8.7510 S.O2    1  UNL1        0.2460
     23  O         21.7920  -23.1840   -8.6640 O.2     1  UNL1       -0.2060
     24  O         20.8840  -25.5340   -8.4800 O.2     1  UNL1       -0.2060
     25  C         19.4070  -23.5080   -7.6930 C.2     1  UNL1        0.0770
     26  C         19.5250  -22.2140   -7.1280 C.2     1  UNL1        0.0270
     27  C         18.5210  -21.7070   -6.2960 C.2     1  UNL1        0.0330
     28  C         17.4370  -22.5240   -6.0700 C.ar    1  UNL1        0.0630
     29  N         16.3020  -22.2970   -5.3010 N.ar    1  UNL1       -0.3070
     30  C         17.3240  -23.7940   -6.6380 C.ar    1  UNL1        0.0640
     31  C         15.4680  -23.4240   -5.3820 C.ar    1  UNL1        0.3250
     32  H         16.0740  -21.4740   -4.7690 H       1  UNL1        0.1700
     33  O         14.3910  -23.5710   -4.8350 O.2     1  UNL1       -0.2470
     34  N         16.1190  -24.3450   -6.2150 N.ar    1  UNL1       -0.3060
     35  H         15.7400  -25.2460   -6.4560 H       1  UNL1        0.1700
     36  C         18.2890  -24.3210   -7.4590 C.2     1  UNL1        0.0560
@<TRIPOS>BOND
     1     9     8    1
     2     7     8    1
     3     7     6    2
     4     8     3    2
     5     6     5    1
     6     3     2    1
     7     3     4    1
     8    13    10    1
     9     5     4    2
    10     5    10    1
    11     2     1    3
    12    10    11   am
    13    11    14    1
    14    11    12    2
    15    15    14    2
    16    15    16    1
    17    14    19    1
    18    16    17    2
    19    21    20    1
    20    17    18    1
    21    19    20    1
    22    19    18    2
    23    20    22    1
    24    22    23    2
    25    22    24    2
    26    22    25    1
    27    25    36    2
    28    25    26    1
    29    36    30    1
    30    26    27    2
    31    30    34   ar
    32    30    28   ar
    33    35    34    1
    34    27    28    1
    35    34    31   ar
    36    28    29   ar
    37    31    29   ar
    38    31    33    2
    39    29    32    1
