@<TRIPOS>MOLECULE
7546_out_ligand_01.pdbqt
 38 41 0 0 0
SMALL
GASTEIGER

@<TRIPOS>ATOM
      1  C         21.1540  -22.2120  -11.3970 C.2     1  UNL1        0.0330
      2  C         20.5590  -21.2230  -12.1800 C.2     1  UNL1        0.0170
      3  C         19.2460  -20.8230  -11.9220 C.2     1  UNL1        0.0090
      4  C         18.5050  -21.3800  -10.8620 C.2     1  UNL1       -0.0390
      5  C         17.0870  -20.9190  -10.6850 C.3     1  UNL1        0.0500
      6  C         19.1300  -22.3470  -10.0510 C.2     1  UNL1        0.0860
      7  C         20.4450  -22.7690  -10.3300 C.2     1  UNL1        0.0420
      8  C         22.5480  -22.6270  -11.7070 C.2     1  UNL1        0.2520
      9  N         23.0490  -22.1960  -12.9150 N.am    1  UNL1       -0.3480
     10  H         22.5520  -21.4770  -13.4240 H       1  UNL1        0.1630
     11  O         23.1830  -23.2880  -10.8940 O.2     1  UNL1       -0.2680
     12  C         24.4370  -22.4190  -13.3060 C.3     1  UNL1        0.1230
     13  C         24.5030  -22.5240  -14.8290 C.3     1  UNL1        0.0680
     14  C         25.9510  -22.4290  -15.3420 C.3     1  UNL1        0.0690
     15  O         26.5180  -21.1580  -14.9500 O.2     1  UNL1       -0.3400
     16  C         26.3010  -20.7520  -13.6630 C.2     1  UNL1        0.0780
     17  C         27.1210  -19.7140  -13.2160 C.2     1  UNL1        0.0370
     18  C         25.3330  -21.3070  -12.8180 C.2     1  UNL1       -0.0020
     19  C         27.0160  -19.2470  -11.9070 C.2     1  UNL1        0.0030
     20  C         26.0880  -19.8200  -11.0420 C.2     1  UNL1        0.0010
     21  C         25.2560  -20.8450  -11.4920 C.2     1  UNL1        0.0120
     22  C         26.8800  -23.5600  -14.8210 C.3     1  UNL1        0.0340
     23  C         26.2490  -24.9430  -14.7490 C.3     1  UNL1        0.0080
     24  C         25.8920  -22.3990  -16.8950 C.3     1  UNL1        0.0340
     25  C         24.6520  -23.0420  -17.5090 C.3     1  UNL1        0.0080
     26  S         18.3340  -23.1570   -8.6660 S.O2    1  UNL1        0.2630
     27  O         17.0930  -23.7600   -9.0940 O.2     1  UNL1       -0.2000
     28  O         19.3540  -23.9620   -8.0220 O.2     1  UNL1       -0.2000
     29  N         18.0230  -21.8890   -7.6050 N.pl3   1  UNL1       -0.2800
     30  H         17.7100  -21.0310   -8.0510 H       1  UNL1        0.1790
     31  C         17.6800  -22.1330   -6.2480 C.2     1  UNL1        0.0490
     32  C         16.5790  -22.9510   -5.9700 C.2     1  UNL1        0.0370
     33  C         16.1860  -23.2050   -4.6500 C.2     1  UNL1       -0.0600
     34  C         14.9860  -24.0620   -4.3780 C.3     1  UNL1        0.0480
     35  C         16.9030  -22.6160   -3.6080 C.2     1  UNL1        0.0070
     36  C         18.0120  -21.8110   -3.8810 C.2     1  UNL1        0.0090
     37  C         18.4280  -21.5740   -5.2010 C.2     1  UNL1       -0.0350
     38  C         19.6160  -20.6830   -5.4250 C.3     1  UNL1        0.0500
@<TRIPOS>BOND
     1    25    24    1
     2    24    14    1
     3    14    15    1
     4    14    13    1
     5    14    22    1
     6    15    16    1
     7    13    12    1
     8    22    23    1
     9    16    17    2
    10    16    18    1
    11    10     9    1
    12    12     9    1
    13    12    18    1
    14    17    19    1
    15     9     8   am
    16    18    21    2
    17     2     3    1
    18     2     1    2
    19     3     4    2
    20    19    20    2
    21     8     1    1
    22     8    11    2
    23    21    20    1
    24     1     7    1
    25     4     5    1
    26     4     6    1
    27     7     6    2
    28     6    26    1
    29    27    26    2
    30    26    28    2
    31    26    29    1
    32    30    29    1
    33    29    31    1
    34    31    32    2
    35    31    37    1
    36    32    33    1
    37    38    37    1
    38    37    36    2
    39    33    34    1
    40    33    35    2
    41    36    35    1
