@<TRIPOS>MOLECULE
75469_out_ligand_01.pdbqt
 35 38 0 0 0
SMALL
GASTEIGER

@<TRIPOS>ATOM
      1  C         19.9020  -22.8340   -9.5130 C.2     1  UNL1        0.0320
      2  C         20.8620  -23.6260   -8.8690 C.2     1  UNL1        0.0190
      3  C         22.1380  -23.7680   -9.4170 C.2     1  UNL1        0.0310
      4  C         22.4550  -23.1240  -10.6110 C.2     1  UNL1        0.0420
      5  C         21.5000  -22.3500  -11.2700 C.2     1  UNL1        0.0310
      6  C         20.2200  -22.2060  -10.7250 C.2     1  UNL1        0.0190
      7  N         23.7400  -23.3120  -11.1850 N.pl3   1  UNL1       -0.2810
      8  H         24.1490  -24.2450  -11.1300 H       1  UNL1        0.1790
      9  S         24.9170  -22.1320  -10.8900 S.O2    1  UNL1        0.2630
     10  O         26.1360  -22.8520  -10.5870 O.2     1  UNL1       -0.2000
     11  O         24.3910  -21.1420   -9.9770 O.2     1  UNL1       -0.2000
     12  C         25.1250  -21.3870  -12.4890 C.2     1  UNL1        0.0820
     13  C         25.9670  -20.2540  -12.6150 C.2     1  UNL1        0.0280
     14  C         26.1450  -19.6330  -13.8570 C.2     1  UNL1        0.0330
     15  C         25.4600  -20.1740  -14.9200 C.ar    1  UNL1        0.0630
     16  N         25.4390  -19.7820  -16.2520 N.ar    1  UNL1       -0.3070
     17  C         24.6240  -21.2840  -14.7860 C.ar    1  UNL1        0.0640
     18  C         24.5880  -20.6420  -16.9630 C.ar    1  UNL1        0.3250
     19  H         25.9310  -19.0120  -16.6740 H       1  UNL1        0.1700
     20  O         24.3320  -20.5900  -18.1520 O.2     1  UNL1       -0.2470
     21  N         24.0910  -21.5710  -16.0370 N.ar    1  UNL1       -0.3060
     22  H         23.4510  -22.3110  -16.2760 H       1  UNL1        0.1700
     23  C         24.4250  -21.9140  -13.5830 C.2     1  UNL1        0.0570
     24  C         18.5470  -22.7220   -8.9010 C.2     1  UNL1        0.2560
     25  N         18.4350  -23.2690   -7.6360 N.am    1  UNL1       -0.3220
     26  H         19.2340  -23.7870   -7.3050 H       1  UNL1        0.1690
     27  O         17.6610  -22.1990   -9.5680 O.2     1  UNL1       -0.2670
     28  C         17.3000  -23.2730   -6.7850 C.2     1  UNL1        0.0410
     29  C         16.1640  -24.0410   -7.0740 C.2     1  UNL1        0.0300
     30  C         15.0510  -24.0290   -6.2330 C.2     1  UNL1        0.0020
     31  C         15.0560  -23.2450   -5.0890 C.2     1  UNL1        0.0010
     32  C         16.1740  -22.4690   -4.7860 C.2     1  UNL1        0.0090
     33  C         17.3110  -22.4620   -5.6190 C.2     1  UNL1       -0.0320
     34  C         18.5200  -21.6110   -5.2730 C.3     1  UNL1        0.0360
     35  C         18.5930  -21.0110   -3.8730 C.3     1  UNL1        0.0100
@<TRIPOS>BOND
     1    20    18    2
     2    18    16   ar
     3    18    21   ar
     4    19    16    1
     5    22    21    1
     6    16    15   ar
     7    21    17   ar
     8    15    17   ar
     9    15    14    1
    10    17    23    1
    11    14    13    2
    12    23    12    2
    13    13    12    1
    14    12     9    1
    15     5     6    1
    16     5     4    2
    17     7     8    1
    18     7     9    1
    19     7     4    1
    20     9    10    2
    21     9    11    2
    22     6     1    2
    23     4     3    1
    24    27    24    2
    25     1    24    1
    26     1     2    1
    27     3     2    2
    28    24    25   am
    29    25    26    1
    30    25    28    1
    31    29    28    2
    32    29    30    1
    33    28    33    1
    34    30    31    2
    35    33    34    1
    36    33    32    2
    37    34    35    1
    38    31    32    1
