@<TRIPOS>MOLECULE
75479_out_ligand_01.pdbqt
 31 34 0 0 0
SMALL
GASTEIGER

@<TRIPOS>ATOM
      1  C         19.3670  -22.0130   -9.7630 C.3     1  UNL1        0.1370
      2  N         20.4470  -22.2820  -10.7020 N.am    1  UNL1       -0.3560
      3  C         20.8470  -21.3280  -11.6120 C.2     1  UNL1        0.2510
      4  O         20.2750  -20.2570  -11.7700 O.2     1  UNL1       -0.2680
      5  H         21.1320  -22.9700  -10.4140 H       1  UNL1        0.1620
      6  C         22.0700  -21.6450  -12.4050 C.2     1  UNL1        0.0320
      7  C         22.9950  -22.5500  -11.8660 C.2     1  UNL1        0.0180
      8  C         24.1590  -22.8780  -12.5700 C.2     1  UNL1        0.0180
      9  C         24.4120  -22.2880  -13.8140 C.2     1  UNL1        0.0310
     10  C         23.4890  -21.3830  -14.3530 C.2     1  UNL1        0.0180
     11  C         22.3250  -21.0540  -13.6490 C.2     1  UNL1        0.0180
     12  C         25.6320  -22.6020  -14.6050 C.2     1  UNL1        0.2490
     13  N         25.4770  -23.3450  -15.7430 N.am    1  UNL1       -0.3660
     14  H         26.3330  -23.6500  -16.1890 H       1  UNL1        0.1590
     15  H         24.6460  -23.8920  -15.9190 H       1  UNL1        0.1590
     16  O         26.7440  -22.2420  -14.2400 O.2     1  UNL1       -0.2680
     17  C         19.4870  -22.8330   -8.4330 C.3     1  UNL1        0.0030
     18  C         20.6640  -22.2660   -7.5880 C.3     1  UNL1        0.0160
     19  C         22.0350  -22.3780   -8.2630 C.3     1  UNL1        0.0010
     20  C         22.2300  -23.6730   -9.0470 C.3     1  UNL1        0.0000
     21  C         21.2580  -24.7540   -8.6070 C.3     1  UNL1        0.0010
     22  C         19.7950  -24.3290   -8.7730 C.3     1  UNL1        0.0160
     23  C         18.1200  -22.7630   -7.7010 C.2     1  UNL1       -0.0450
     24  C         16.9150  -22.8950   -8.4480 C.2     1  UNL1        0.0110
     25  C         15.6550  -22.8130   -7.8430 C.2     1  UNL1        0.0400
     26  C         15.6110  -22.5970   -6.4880 C.2     1  UNL1        0.1050
     27  C         16.7580  -22.4670   -5.7450 C.2     1  UNL1        0.1050
     28  O         14.4860  -22.4860   -5.7330 O.2     1  UNL1       -0.3230
     29  C         18.0140  -22.5440   -6.3150 C.2     1  UNL1        0.0470
     30  O         16.5000  -22.2530   -4.4270 O.2     1  UNL1       -0.3230
     31  C         15.0570  -22.2750   -4.4250 C.3     1  UNL1        0.3520
@<TRIPOS>BOND
     1    14    13    1
     2    15    13    1
     3    13    12   am
     4    12    16    2
     5    12     9    1
     6    10     9    2
     7    10    11    1
     8     9     8    1
     9    11     6    2
    10     8     7    2
    11     6     7    1
    12     6     3    1
    13     4     3    2
    14     3     2   am
    15     2     5    1
    16     2     1    1
    17     1    17    1
    18    20    21    1
    19    20    19    1
    20    22    21    1
    21    22    17    1
    22    24    25    1
    23    24    23    2
    24    17    23    1
    25    17    18    1
    26    19    18    1
    27    25    26    2
    28    23    29    1
    29    26    27    1
    30    26    28    1
    31    29    27    2
    32    27    30    1
    33    28    31    1
    34    30    31    1
