@<TRIPOS>MOLECULE
75470_out_ligand_01.pdbqt
 33 36 0 0 0
SMALL
GASTEIGER

@<TRIPOS>ATOM
      1  C         19.1710  -22.2560  -10.0640 C.2     1  UNL1        0.0390
      2  C         18.6710  -23.0420   -9.0150 C.2     1  UNL1        0.0420
      3  C         17.2930  -23.0990   -8.7950 C.2     1  UNL1        0.0800
      4  C         16.4090  -22.3950   -9.6140 C.2     1  UNL1        0.0260
      5  C         16.9110  -21.6050  -10.6500 C.2     1  UNL1        0.0090
      6  C         18.2930  -21.5280  -10.8910 C.2     1  UNL1       -0.0460
      7  C         18.7930  -20.6540  -12.0090 C.3     1  UNL1        0.0490
      8  C         20.6460  -22.1980  -10.2650 C.2     1  UNL1        0.2560
      9  N         21.0290  -22.1940  -11.5940 N.am    1  UNL1       -0.3230
     10  H         20.2850  -22.1780  -12.2820 H       1  UNL1        0.1690
     11  O         21.3730  -22.1450   -9.2830 O.2     1  UNL1       -0.2670
     12  C         22.3430  -22.1520  -12.1080 C.2     1  UNL1        0.0370
     13  C         22.7110  -21.4020  -13.2370 C.2     1  UNL1        0.0640
     14  C         24.0490  -21.4360  -13.6600 C.ar    1  UNL1        0.0950
     15  N         24.6830  -20.8160  -14.7090 N.ar    1  UNL1       -0.2260
     16  C         24.9590  -22.2020  -12.9540 C.ar    1  UNL1        0.1060
     17  C         25.9320  -21.2250  -14.6030 C.ar    1  UNL1        0.1420
     18  C         27.0890  -20.8890  -15.4540 C.3     1  UNL1        0.1000
     19  O         26.1760  -22.0730  -13.5550 O.2     1  UNL1       -0.2940
     20  C         24.6530  -22.9580  -11.8320 C.2     1  UNL1        0.0420
     21  C         23.3120  -22.9120  -11.4230 C.2     1  UNL1        0.0320
     22  S         16.6490  -24.1200   -7.4950 S.O2    1  UNL1        0.2630
     23  O         15.5010  -24.8150   -8.0390 O.2     1  UNL1       -0.2000
     24  O         17.7470  -24.8530   -6.9020 O.2     1  UNL1       -0.2000
     25  N         16.0370  -23.0120   -6.3780 N.pl3   1  UNL1       -0.2780
     26  H         15.1290  -23.3150   -6.0280 H       1  UNL1        0.1790
     27  C         16.9510  -22.4470   -5.4380 C.2     1  UNL1        0.0810
     28  C         17.9960  -21.6480   -5.9050 C.2     1  UNL1        0.0330
     29  C         18.8690  -21.0400   -4.9970 C.2     1  UNL1        0.0020
     30  C         18.6940  -21.2230   -3.6230 C.2     1  UNL1        0.0030
     31  C         17.6440  -22.0120   -3.1550 C.2     1  UNL1        0.0440
     32  C         16.7770  -22.6140   -4.0620 C.2     1  UNL1        0.1430
     33  F         15.7870  -23.3840   -3.5890 F       1  UNL1       -0.2040
@<TRIPOS>BOND
     1    18    17    1
     2    15    17   ar
     3    15    14   ar
     4    17    19   ar
     5    14    13    1
     6    14    16   ar
     7    19    16   ar
     8    13    12    2
     9    16    20    1
    10    10     9    1
    11    12     9    1
    12    12    21    1
    13     7     6    1
    14    20    21    2
    15     9     8   am
    16     6     5    1
    17     6     1    2
    18     5     4    2
    19     8     1    1
    20     8    11    2
    21     1     2    1
    22     4     3    1
    23     2     3    2
    24     3    22    1
    25    23    22    2
    26    22    24    2
    27    22    25    1
    28    25    26    1
    29    25    27    1
    30    28    27    2
    31    28    29    1
    32    27    32    1
    33    29    30    2
    34    32    33    1
    35    32    31    2
    36    30    31    1
