@<TRIPOS>MOLECULE
75473_out_ligand_01.pdbqt
 36 39 0 0 0
SMALL
GASTEIGER

@<TRIPOS>ATOM
      1  C         17.0470  -22.8730   -8.9830 C.2     1  UNL1        0.0820
      2  C         16.3520  -22.0370   -9.8510 C.2     1  UNL1        0.0260
      3  C         17.0460  -21.4030  -10.8790 C.2     1  UNL1        0.0100
      4  C         18.4340  -21.5810  -11.0330 C.2     1  UNL1       -0.0350
      5  C         19.1230  -20.8460  -12.1530 C.3     1  UNL1        0.0500
      6  C         19.1350  -22.4160  -10.1340 C.2     1  UNL1        0.0420
      7  C         18.4230  -23.0790   -9.1310 C.2     1  UNL1        0.0550
      8  N         20.5380  -22.5490  -10.2700 N.am    1  UNL1       -0.3220
      9  C         21.4870  -22.5150   -9.2620 C.2     1  UNL1        0.2560
     10  O         21.2850  -22.3750   -8.0610 O.2     1  UNL1       -0.2670
     11  H         20.8790  -22.6770  -11.2110 H       1  UNL1        0.1690
     12  C         22.8940  -22.6680   -9.7220 C.2     1  UNL1        0.0320
     13  C         23.4420  -21.8460  -10.7130 C.2     1  UNL1        0.0200
     14  C         24.7730  -22.0180  -11.1150 C.2     1  UNL1        0.0380
     15  C         25.5650  -23.0050  -10.5230 C.2     1  UNL1        0.0690
     16  C         25.0170  -23.8120   -9.5220 C.2     1  UNL1        0.0380
     17  C         23.6910  -23.6440   -9.1150 C.2     1  UNL1        0.0200
     18  O         26.8710  -23.2790  -10.8200 O.2     1  UNL1       -0.3450
     19  C         27.1210  -24.3210  -11.7680 C.3     1  UNL1        0.2350
     20  C         26.5920  -23.9800  -13.1310 C.2     1  UNL1        0.0650
     21  C         26.9870  -22.9310  -13.9430 C.2     1  UNL1        0.0800
     22  S         26.0930  -22.9400  -15.4060 S.3     1  UNL1       -0.0920
     23  C         25.2490  -24.3260  -14.8560 C.2     1  UNL1        0.1660
     24  N         25.5870  -24.7770  -13.6680 N.2     1  UNL1       -0.2560
     25  S         16.1970  -23.6840   -7.6510 S.O2    1  UNL1        0.2630
     26  O         15.6550  -24.9170   -8.1840 O.2     1  UNL1       -0.2000
     27  O         15.3440  -22.7100   -7.0020 O.2     1  UNL1       -0.2000
     28  N         17.4370  -24.1220   -6.5880 N.pl3   1  UNL1       -0.2810
     29  H         18.2120  -24.5650   -7.0830 H       1  UNL1        0.1790
     30  C         17.7640  -23.2620   -5.5010 C.2     1  UNL1        0.0430
     31  C         17.4100  -23.5830   -4.1930 C.2     1  UNL1        0.0300
     32  C         17.7300  -22.7100   -3.1530 C.2     1  UNL1        0.0030
     33  C         18.4000  -21.5150   -3.4200 C.2     1  UNL1        0.0070
     34  C         18.7490  -21.1780   -4.7330 C.2     1  UNL1       -0.0600
     35  C         19.4900  -19.9080   -5.0270 C.3     1  UNL1        0.0480
     36  C         18.4420  -22.0690   -5.7700 C.2     1  UNL1        0.0370
@<TRIPOS>BOND
     1    22    23    1
     2    22    21    1
     3    23    24    2
     4    21    20    2
     5    24    20    1
     6    20    19    1
     7     5     4    1
     8    19    18    1
     9    11     8    1
    10    14    13    1
    11    14    15    2
    12     4     3    2
    13     4     6    1
    14     3     2    1
    15    18    15    1
    16    13    12    2
    17    15    16    1
    18     8     6    1
    19     8     9   am
    20     6     7    2
    21     2     1    2
    22    12     9    1
    23    12    17    1
    24    16    17    2
    25     9    10    2
    26     7     1    1
    27     1    25    1
    28    26    25    2
    29    25    27    2
    30    25    28    1
    31    29    28    1
    32    28    30    1
    33    36    30    2
    34    36    34    1
    35    30    31    1
    36    35    34    1
    37    34    33    2
    38    31    32    2
    39    33    32    1
