@<TRIPOS>MOLECULE
75483_out_ligand_01.pdbqt
 35 37 0 0 0
SMALL
GASTEIGER

@<TRIPOS>ATOM
      1  C         17.5480  -23.5550   -8.6970 C.2     1  UNL1        0.0870
      2  C         18.9240  -23.8500   -8.7520 C.2     1  UNL1        0.0550
      3  C         19.7460  -23.2610   -9.7090 C.2     1  UNL1        0.0360
      4  C         19.1690  -22.4080  -10.6520 C.2     1  UNL1        0.0300
      5  C         17.8000  -22.1260  -10.6160 C.2     1  UNL1        0.0100
      6  C         16.9640  -22.6910   -9.6380 C.2     1  UNL1       -0.0390
      7  C         15.5050  -22.3360   -9.6640 C.3     1  UNL1        0.0500
      8  N         21.1350  -23.4790   -9.7910 N.am    1  UNL1       -0.3270
      9  C         22.1320  -22.8190   -9.0890 C.2     1  UNL1        0.2260
     10  O         21.9690  -21.8630   -8.3330 O.2     1  UNL1       -0.2730
     11  H         21.4360  -24.1830  -10.4560 H       1  UNL1        0.1690
     12  C         23.5330  -23.3330   -9.3900 C.3     1  UNL1        0.1490
     13  C         24.1440  -22.5780  -10.5350 C.2     1  UNL1       -0.0070
     14  C         25.4250  -22.0760  -10.6410 C.2     1  UNL1        0.0170
     15  C         25.6510  -21.4370  -11.8950 C.2     1  UNL1        0.0330
     16  C         24.5320  -21.4610  -12.7050 C.2     1  UNL1        0.1150
     17  S         23.2190  -22.2420  -11.9380 S.3     1  UNL1       -0.0810
     18  S         24.2280  -20.8370  -14.3410 S.O2    1  UNL1        0.2450
     19  O         24.2640  -21.9890  -15.2090 O.2     1  UNL1       -0.2060
     20  O         25.1180  -19.7090  -14.4790 O.2     1  UNL1       -0.2060
     21  N         22.6630  -20.2330  -14.3540 N.3     1  UNL1       -0.2250
     22  H         22.0160  -20.8100  -13.8210 H       1  UNL1        0.1360
     23  H         22.6310  -19.2340  -14.1620 H       1  UNL1        0.1360
     24  S         16.6390  -24.3500   -7.3750 S.O2    1  UNL1        0.2630
     25  O         15.4990  -25.0600   -7.9100 O.2     1  UNL1       -0.2000
     26  O         17.6170  -25.0310   -6.5510 O.2     1  UNL1       -0.2000
     27  N         16.0710  -23.0470   -6.4560 N.pl3   1  UNL1       -0.2810
     28  H         15.0880  -23.1630   -6.2060 H       1  UNL1        0.1790
     29  C         16.9290  -22.4330   -5.4990 C.2     1  UNL1        0.0430
     30  C         16.6550  -22.6150   -4.1430 C.2     1  UNL1        0.0300
     31  C         17.4830  -22.0360   -3.1810 C.2     1  UNL1        0.0030
     32  C         18.5820  -21.2710   -3.5740 C.2     1  UNL1        0.0070
     33  C         18.8650  -21.0840   -4.9300 C.2     1  UNL1       -0.0600
     34  C         20.0200  -20.2280   -5.3580 C.3     1  UNL1        0.0480
     35  C         18.0200  -21.6570   -5.8910 C.2     1  UNL1        0.0370
@<TRIPOS>BOND
     1    19    18    2
     2    20    18    2
     3    21    18    1
     4    21    23    1
     5    21    22    1
     6    18    16    1
     7    16    17    1
     8    16    15    2
     9    17    13    1
    10    15    14    1
    11     4     5    2
    12     4     3    1
    13    14    13    2
    14     5     6    1
    15    13    12    1
    16    11     8    1
    17     8     3    1
    18     8     9   am
    19     3     2    2
    20     7     6    1
    21     6     1    2
    22    12     9    1
    23     9    10    2
    24     2     1    1
    25     1    24    1
    26    25    24    2
    27    24    26    2
    28    24    27    1
    29    27    28    1
    30    27    29    1
    31    35    29    2
    32    35    33    1
    33    29    30    1
    34    34    33    1
    35    33    32    2
    36    30    31    2
    37    32    31    1
