@<TRIPOS>MOLECULE
75484_out_ligand_01.pdbqt
 35 38 0 0 0
SMALL
GASTEIGER

@<TRIPOS>ATOM
      1  C         19.6790  -22.6040   -9.9990 C.2     1  UNL1        0.0540
      2  C         18.5930  -21.7960  -10.3660 C.2     1  UNL1        0.0190
      3  C         18.7080  -20.9220  -11.4500 C.2     1  UNL1        0.0010
      4  C         19.9030  -20.8490  -12.1650 C.2     1  UNL1        0.0020
      5  C         20.9910  -21.6470  -11.8000 C.2     1  UNL1        0.0250
      6  C         20.8890  -22.5150  -10.7100 C.2     1  UNL1        0.0380
      7  N         22.0020  -23.3740  -10.4150 N.pl3   1  UNL1       -0.1800
      8  H         22.3330  -23.9020  -11.2380 H       1  UNL1        0.1460
      9  S         23.3570  -22.6220   -9.7160 S.O2    1  UNL1        0.2460
     10  O         23.9990  -23.5440   -8.8040 O.2     1  UNL1       -0.2060
     11  O         22.9400  -21.3030   -9.2910 O.2     1  UNL1       -0.2060
     12  C         24.4190  -22.3870  -11.1230 C.2     1  UNL1        0.0770
     13  C         25.3070  -21.2830  -11.1540 C.2     1  UNL1        0.0270
     14  C         26.1430  -21.0740  -12.2560 C.2     1  UNL1        0.0330
     15  C         26.0480  -21.9820  -13.2850 C.ar    1  UNL1        0.0630
     16  N         26.7350  -22.0310  -14.4930 N.ar    1  UNL1       -0.3070
     17  C         25.1660  -23.0630  -13.2500 C.ar    1  UNL1        0.0640
     18  C         26.2850  -23.1410  -15.2240 C.ar    1  UNL1        0.3250
     19  H         27.4320  -21.3880  -14.8280 H       1  UNL1        0.1700
     20  O         26.6660  -23.4870  -16.3280 O.2     1  UNL1       -0.2470
     21  N         25.3130  -23.7740  -14.4350 N.ar    1  UNL1       -0.3060
     22  H         24.8120  -24.6000  -14.7210 H       1  UNL1        0.1700
     23  C         24.3300  -23.2970  -12.1870 C.2     1  UNL1        0.0560
     24  C         19.5760  -23.5200   -8.8320 C.2     1  UNL1        0.2530
     25  O         20.0670  -24.6430   -8.8970 O.2     1  UNL1       -0.2680
     26  N         18.8890  -23.0390   -7.7400 N.am    1  UNL1       -0.3530
     27  H         18.2570  -22.2640   -7.8950 H       1  UNL1        0.1630
     28  C         18.5490  -23.9280   -6.6520 C.3     1  UNL1        0.1630
     29  C         17.3160  -23.4550   -5.9280 C.2     1  UNL1       -0.0190
     30  C         17.4650  -22.7210   -4.7380 C.2     1  UNL1        0.0100
     31  C         16.3490  -22.2610   -4.0340 C.2     1  UNL1        0.0010
     32  C         15.0680  -22.5190   -4.5130 C.2     1  UNL1        0.0020
     33  C         14.9010  -23.2320   -5.6990 C.2     1  UNL1        0.0240
     34  C         16.0160  -23.6960   -6.4040 C.2     1  UNL1        0.0420
     35 CL         15.7320  -24.5520   -7.8790 Cl      1  UNL1       -0.0840
@<TRIPOS>BOND
     1    20    18    2
     2    18    16   ar
     3    18    21   ar
     4    19    16    1
     5    22    21    1
     6    16    15   ar
     7    21    17   ar
     8    15    17   ar
     9    15    14    1
    10    17    23    1
    11    14    13    2
    12    23    12    2
    13     4     5    2
    14     4     3    1
    15     5     6    1
    16     3     2    2
    17     8     7    1
    18    13    12    1
    19    12     9    1
    20     6     7    1
    21     6     1    2
    22     7     9    1
    23     2     1    1
    24     1    24    1
    25     9    11    2
    26     9    10    2
    27    25    24    2
    28    24    26   am
    29    27    26    1
    30    35    34    1
    31    26    28    1
    32    28    29    1
    33    34    29    2
    34    34    33    1
    35    29    30    1
    36    33    32    2
    37    30    31    2
    38    32    31    1
