@<TRIPOS>MOLECULE
75481_out_ligand_01.pdbqt
 36 39 0 0 0
SMALL
GASTEIGER

@<TRIPOS>ATOM
      1  C         19.5030  -22.6430   -9.9830 C.2     1  UNL1        0.0550
      2  C         18.8170  -23.3530   -8.9800 C.2     1  UNL1        0.0430
      3  C         17.4370  -23.1910   -8.8200 C.2     1  UNL1        0.0750
      4  C         16.7170  -22.3460   -9.6620 C.2     1  UNL1        0.0260
      5  C         17.3890  -21.6550  -10.6700 C.2     1  UNL1        0.0260
      6  C         18.7750  -21.7990  -10.8360 C.2     1  UNL1        0.0490
      7 CL         19.4840  -20.9230  -12.1460 Cl      1  UNL1       -0.0830
      8  C         20.9780  -22.8710  -10.0520 C.2     1  UNL1        0.2570
      9  N         21.6740  -22.1010  -10.9610 N.am    1  UNL1       -0.3230
     10  H         21.1290  -21.4760  -11.5460 H       1  UNL1        0.1690
     11  O         21.4650  -23.6720   -9.2620 O.2     1  UNL1       -0.2670
     12  C         23.0660  -22.0820  -11.1910 C.2     1  UNL1        0.0350
     13  C         23.9960  -21.5050  -10.3280 C.2     1  UNL1        0.0290
     14  C         25.3590  -21.5110  -10.6410 C.2     1  UNL1        0.0030
     15  C         25.8090  -22.0990  -11.8230 C.2     1  UNL1        0.0170
     16  C         24.8890  -22.6950  -12.6890 C.2     1  UNL1        0.0340
     17  C         23.5230  -22.6790  -12.3720 C.2     1  UNL1        0.0460
     18  C         25.3030  -23.3180  -13.9760 C.2     1  UNL1        0.2520
     19  O         26.1420  -24.2140  -13.9750 O.2     1  UNL1       -0.2680
     20  N         24.7130  -22.8100  -15.1180 N.am    1  UNL1       -0.3520
     21  H         24.1680  -21.9600  -15.0530 H       1  UNL1        0.1630
     22  C         25.0520  -23.2840  -16.4240 C.3     1  UNL1        0.0840
     23  C         23.9800  -23.5220  -17.4530 C.3     1  UNL1        0.0270
     24  C         24.9350  -22.3760  -17.6170 C.3     1  UNL1        0.0270
     25  S         16.6000  -24.0980   -7.5410 S.O2    1  UNL1        0.2460
     26  O         15.4940  -24.8120   -8.1400 O.2     1  UNL1       -0.2060
     27  O         17.6220  -24.7820   -6.7790 O.2     1  UNL1       -0.2060
     28  N         16.0160  -22.8520   -6.5530 N.pl3   1  UNL1       -0.1780
     29  H         15.6400  -22.1150   -7.1540 H       1  UNL1        0.1460
     30  C         16.8930  -22.3940   -5.5170 C.2     1  UNL1        0.0610
     31  C         17.9990  -21.6040   -5.8270 C.2     1  UNL1        0.0270
     32  C         18.8120  -21.1170   -4.7970 C.2     1  UNL1        0.0020
     33  C         18.5130  -21.4110   -3.4640 C.2     1  UNL1        0.0030
     34  C         17.3980  -22.1920   -3.1530 C.2     1  UNL1        0.0440
     35  C         16.5940  -22.6730   -4.1800 C.2     1  UNL1        0.1380
     36  F         15.5260  -23.4290   -3.8800 F       1  UNL1       -0.2040
@<TRIPOS>BOND
     1    24    23    1
     2    24    22    1
     3    23    22    1
     4    22    20    1
     5    20    21    1
     6    20    18   am
     7    18    19    2
     8    18    16    1
     9    16    17    1
    10    16    15    2
    11    17    12    2
    12     7     6    1
    13    15    14    1
    14    10     9    1
    15    12     9    1
    16    12    13    1
    17     9     8   am
    18     6     5    1
    19     6     1    2
    20     5     4    2
    21    14    13    2
    22     8     1    1
    23     8    11    2
    24     1     2    1
    25     4     3    1
    26     2     3    2
    27     3    25    1
    28    26    25    2
    29    25    27    2
    30    25    28    1
    31    29    28    1
    32    28    30    1
    33    31    30    2
    34    31    32    1
    35    30    35    1
    36    32    33    2
    37    35    36    1
    38    35    34    2
    39    33    34    1
