@<TRIPOS>MOLECULE
75495_out_ligand_01.pdbqt
 33 36 0 0 0
SMALL
GASTEIGER

@<TRIPOS>ATOM
      1  C         19.5850  -22.3130  -10.3070 C.2     1  UNL1        0.0320
      2  C         18.2280  -21.9600  -10.3400 C.2     1  UNL1        0.0180
      3  C         17.3230  -22.5530   -9.4570 C.2     1  UNL1        0.0260
      4  C         17.7820  -23.5030   -8.5400 C.2     1  UNL1        0.0790
      5  C         19.1400  -23.8340   -8.4710 C.2     1  UNL1        0.0260
      6  C         20.0410  -23.2380   -9.3560 C.2     1  UNL1        0.0180
      7  C         20.5120  -21.6560  -11.2740 C.2     1  UNL1        0.2560
      8  O         20.1320  -20.6370  -11.8360 O.2     1  UNL1       -0.2670
      9  N         21.7160  -22.3090  -11.4680 N.am    1  UNL1       -0.3230
     10  H         21.8240  -23.2140  -11.0290 H       1  UNL1        0.1690
     11  C         22.7870  -21.8980  -12.2920 C.2     1  UNL1        0.0370
     12  C         24.0820  -21.9170  -11.7070 C.2     1  UNL1        0.0320
     13  C         25.2230  -21.5270  -12.4220 C.2     1  UNL1        0.0340
     14  C         25.0250  -21.1230  -13.7190 C.ar    1  UNL1        0.0630
     15  N         25.9430  -20.6850  -14.6660 N.ar    1  UNL1       -0.3070
     16  C         23.7610  -21.0990  -14.2990 C.ar    1  UNL1        0.0650
     17  C         25.2550  -20.3830  -15.8520 C.ar    1  UNL1        0.3250
     18  H         26.9380  -20.5880  -14.5590 H       1  UNL1        0.1700
     19  O         25.7440  -19.9720  -16.8880 O.2     1  UNL1       -0.2470
     20  N         23.9000  -20.6440  -15.6060 N.ar    1  UNL1       -0.3060
     21  H         23.1670  -20.5150  -16.2870 H       1  UNL1        0.1700
     22  C         22.6250  -21.4750  -13.6180 C.2     1  UNL1        0.0610
     23  S         16.6290  -24.2590   -7.4110 S.O2    1  UNL1        0.2630
     24  O         15.5380  -24.8080   -8.1870 O.2     1  UNL1       -0.2000
     25  O         17.3940  -25.0840   -6.5010 O.2     1  UNL1       -0.2000
     26  N         16.0750  -22.9470   -6.5050 N.pl3   1  UNL1       -0.2810
     27  H         15.0730  -22.9940   -6.3300 H       1  UNL1        0.1790
     28  C         16.9070  -22.3840   -5.4980 C.2     1  UNL1        0.0420
     29  C         16.6180  -22.6520   -4.1580 C.2     1  UNL1        0.0300
     30  C         17.4380  -22.1360   -3.1530 C.2     1  UNL1        0.0020
     31  C         18.5410  -21.3520   -3.4860 C.2     1  UNL1        0.0000
     32  C         18.8260  -21.0800   -4.8240 C.2     1  UNL1        0.0020
     33  C         18.0080  -21.5970   -5.8300 C.2     1  UNL1        0.0300
@<TRIPOS>BOND
     1    19    17    2
     2    21    20    1
     3    17    20   ar
     4    17    15   ar
     5    20    16   ar
     6    15    18    1
     7    15    14   ar
     8    16    14   ar
     9    16    22    1
    10    14    13    1
    11    22    11    2
    12    13    12    2
    13    11    12    1
    14    11     9    1
    15     8     7    2
    16     9     7   am
    17     9    10    1
    18     7     1    1
    19     2     1    2
    20     2     3    1
    21     1     6    1
    22     3     4    2
    23     6     5    2
    24     4     5    1
    25     4    23    1
    26    24    23    2
    27    23    26    1
    28    23    25    2
    29    26    27    1
    30    26    28    1
    31    33    28    2
    32    33    32    1
    33    28    29    1
    34    32    31    2
    35    29    30    2
    36    31    30    1
