@<TRIPOS>MOLECULE
75494_out_ligand_01.pdbqt
 27 30 0 0 0
SMALL
GASTEIGER

@<TRIPOS>ATOM
      1  C         20.4400  -22.7500  -10.3250 C.2     1  UNL1        0.0340
      2  C         19.5070  -22.0580  -11.1120 C.2     1  UNL1        0.0170
      3  C         19.9390  -21.2410  -12.1630 C.2     1  UNL1        0.0040
      4  C         21.2990  -21.1220  -12.4420 C.2     1  UNL1        0.0370
      5  C         22.2150  -21.8450  -11.6790 C.2     1  UNL1        0.0790
      6  C         21.8050  -22.6470  -10.6170 C.2     1  UNL1        0.0540
      7  C         20.0310  -23.6190   -9.1870 C.2     1  UNL1        0.2520
      8  O         20.7830  -24.4990   -8.7800 O.2     1  UNL1       -0.2680
      9  N         18.8090  -23.3460   -8.6120 N.am    1  UNL1       -0.3530
     10  H         18.3530  -22.4670   -8.8090 H       1  UNL1        0.1630
     11  C         18.3860  -24.0570   -7.4290 C.3     1  UNL1        0.1610
     12  C         18.3400  -23.1320   -6.2430 C.2     1  UNL1       -0.0410
     13  C         17.7220  -23.5310   -5.0490 C.2     1  UNL1        0.0090
     14  C         17.7100  -22.6810   -3.9410 C.2     1  UNL1        0.0010
     15  C         18.3200  -21.4300   -4.0130 C.2     1  UNL1        0.0000
     16  C         18.9450  -21.0270   -5.1920 C.2     1  UNL1        0.0010
     17  C         18.9600  -21.8750   -6.3010 C.2     1  UNL1        0.0090
     18  O         23.5890  -21.7190  -11.9190 O.2     1  UNL1       -0.2910
     19  C         24.0550  -22.2880  -13.0930 C.2     1  UNL1        0.1900
     20  C         24.7940  -23.5240  -12.7270 C.2     1  UNL1        0.0640
     21  C         25.3310  -24.2270  -13.7360 C.2     1  UNL1        0.0590
     22  C         25.1600  -23.7520  -15.0530 C.ar    1  UNL1        0.1840
     23  N         25.5490  -24.1800  -16.2320 N.ar    1  UNL1       -0.1410
     24  N         24.4410  -22.5830  -15.2230 N.ar    1  UNL1       -0.1370
     25  N         25.0640  -23.2620  -17.1370 N.ar    1  UNL1        0.0200
     26  N         24.3910  -22.2900  -16.5300 N.ar    1  UNL1        0.0200
     27  N         23.8660  -21.8040  -14.2760 N.2     1  UNL1       -0.1260
@<TRIPOS>BOND
     1    25    26   ar
     2    25    23   ar
     3    26    24   ar
     4    23    22   ar
     5    24    22   ar
     6    24    27    1
     7    22    21    1
     8    27    19    2
     9    21    20    2
    10    19    20    1
    11    19    18    1
    12     4     3    2
    13     4     5    1
    14     3     2    1
    15    18     5    1
    16     5     6    2
    17     2     1    2
    18     6     1    1
    19     1     7    1
    20     7     8    2
    21     7     9   am
    22    10     9    1
    23     9    11    1
    24    11    12    1
    25    17    12    2
    26    17    16    1
    27    12    13    1
    28    16    15    2
    29    13    14    2
    30    15    14    1
