@<TRIPOS>MOLECULE
75500_out_ligand_01.pdbqt
 32 35 0 0 0
SMALL
GASTEIGER

@<TRIPOS>ATOM
      1  C         19.3720  -21.9990  -10.8860 C.2     1  UNL1        0.0330
      2  C         18.5880  -21.2260  -11.7560 C.2     1  UNL1        0.0170
      3  C         17.2360  -21.0140  -11.4770 C.2     1  UNL1        0.0030
      4  C         16.6600  -21.5790  -10.3390 C.2     1  UNL1        0.0250
      5  C         17.4390  -22.3710   -9.4890 C.2     1  UNL1        0.0800
      6  C         18.7960  -22.5770   -9.7500 C.2     1  UNL1        0.0420
      7  C         20.8100  -22.2610  -11.1620 C.2     1  UNL1        0.2560
      8  N         21.3060  -21.6350  -12.2910 N.am    1  UNL1       -0.3230
      9  H         20.6900  -20.9830  -12.7580 H       1  UNL1        0.1690
     10  O         21.4250  -22.9670  -10.3730 O.2     1  UNL1       -0.2670
     11  C         22.6130  -21.7330  -12.8150 C.2     1  UNL1        0.0370
     12  C         23.6520  -22.4270  -12.1930 C.2     1  UNL1        0.0320
     13  C         24.9220  -22.4820  -12.7780 C.2     1  UNL1        0.0410
     14  C         25.1620  -21.8560  -13.9970 C.2     1  UNL1        0.0960
     15  O         26.4350  -21.9410  -14.4820 O.2     1  UNL1       -0.3400
     16  C         24.1300  -21.1610  -14.6260 C.2     1  UNL1        0.0700
     17  C         26.6110  -21.4740  -15.8100 C.3     1  UNL1        0.2780
     18  C         25.5680  -20.5720  -16.4700 C.2     1  UNL1        0.2460
     19  O         25.7670  -19.9730  -17.5230 O.2     1  UNL1       -0.2710
     20  N         24.3610  -20.5070  -15.8340 N.am    1  UNL1       -0.3230
     21  H         23.6440  -19.9480  -16.2790 H       1  UNL1        0.1690
     22  C         22.8620  -21.0980  -14.0410 C.2     1  UNL1        0.0620
     23  S         16.7090  -23.0780   -8.0340 S.O2    1  UNL1        0.2590
     24  O         17.3070  -24.3810   -7.8360 O.2     1  UNL1       -0.2010
     25  O         15.2770  -22.9010   -8.1020 O.2     1  UNL1       -0.2010
     26  N         17.3240  -22.0960   -6.8260 N.3     1  UNL1       -0.3110
     27  H         17.1850  -21.1020   -6.9990 H       1  UNL1        0.1720
     28  C         18.4870  -22.5350   -6.0450 C.3     1  UNL1        0.0930
     29  C         19.6600  -21.5840   -6.2420 C.3     1  UNL1        0.0260
     30  C         19.3790  -20.4050   -5.3120 C.3     1  UNL1        0.0020
     31  C         18.4230  -20.9240   -4.2380 C.3     1  UNL1        0.0020
     32  C         18.1860  -22.3970   -4.5570 C.3     1  UNL1        0.0260
@<TRIPOS>BOND
     1    19    18    2
     2    18    20   am
     3    18    17    1
     4    21    20    1
     5    20    16    1
     6    17    15    1
     7    16    22    1
     8    16    14    2
     9    15    14    1
    10    22    11    2
    11    14    13    1
    12    11     8    1
    13    11    12    1
    14    13    12    2
    15     9     8    1
    16     8     7   am
    17     2     3    1
    18     2     1    2
    19     3     4    2
    20     7     1    1
    21     7    10    2
    22     1     6    1
    23     4     5    1
    24     6     5    2
    25     5    23    1
    26    25    23    2
    27    23    24    2
    28    23    26    1
    29    27    26    1
    30    26    28    1
    31    29    28    1
    32    29    30    1
    33    28    32    1
    34    30    31    1
    35    32    31    1
