@<TRIPOS>MOLECULE
75517_out_ligand_01.pdbqt
 36 39 0 0 0
SMALL
GASTEIGER

@<TRIPOS>ATOM
      1  C         19.1110  -21.7370  -11.0100 C.2     1  UNL1        0.0340
      2  C         18.0490  -20.9190  -11.4090 C.2     1  UNL1        0.0170
      3  C         16.7720  -21.1460  -10.8980 C.2     1  UNL1        0.0030
      4  C         16.5610  -22.1780   -9.9810 C.2     1  UNL1        0.0300
      5  C         17.6310  -22.9670   -9.5570 C.2     1  UNL1        0.0430
      6  C         18.9100  -22.7540  -10.0690 C.2     1  UNL1        0.0470
      7  C         20.4530  -21.5080  -11.5980 C.2     1  UNL1        0.2560
      8  O         20.5520  -20.7480  -12.5510 O.2     1  UNL1       -0.2670
      9  N         21.4610  -22.2480  -11.0050 N.am    1  UNL1       -0.3230
     10  H         21.1790  -22.9760  -10.3600 H       1  UNL1        0.1690
     11  C         22.8360  -22.2050  -11.3170 C.2     1  UNL1        0.0350
     12  C         23.6990  -21.6740  -10.3510 C.2     1  UNL1        0.0290
     13  C         25.0720  -21.5910  -10.5920 C.2     1  UNL1        0.0030
     14  C         25.5930  -22.0420  -11.8030 C.2     1  UNL1        0.0170
     15  C         24.7420  -22.5820  -12.7750 C.2     1  UNL1        0.0340
     16  C         23.3620  -22.6430  -12.5350 C.2     1  UNL1        0.0460
     17  C         25.3420  -23.0480  -14.0560 C.2     1  UNL1        0.2520
     18  O         26.2930  -23.8240  -14.0360 O.2     1  UNL1       -0.2680
     19  N         24.7480  -22.5860  -15.2170 N.am    1  UNL1       -0.3520
     20  H         23.8870  -22.0560  -15.1620 H       1  UNL1        0.1630
     21  C         25.2130  -22.9690  -16.5120 C.3     1  UNL1        0.0840
     22  C         24.9500  -22.0890  -17.7020 C.3     1  UNL1        0.0270
     23  C         24.2430  -23.4060  -17.5750 C.3     1  UNL1        0.0270
     24  N         17.4090  -24.0410   -8.6530 N.pl3   1  UNL1       -0.2810
     25  H         16.9080  -24.8640   -8.9840 H       1  UNL1        0.1790
     26  S         17.1070  -23.6960   -7.0270 S.O2    1  UNL1        0.2630
     27  O         15.8840  -22.9230   -6.9940 O.2     1  UNL1       -0.2000
     28  O         17.2730  -24.8930   -6.2370 O.2     1  UNL1       -0.2000
     29  C         18.4400  -22.5850   -6.6220 C.2     1  UNL1        0.0830
     30  C         18.2350  -21.5840   -5.6620 C.2     1  UNL1        0.0280
     31  C         19.2690  -20.6930   -5.3660 C.2     1  UNL1        0.0470
     32  C         20.4900  -20.8170   -6.0230 C.2     1  UNL1        0.1540
     33  F         21.4660  -19.9390   -5.7610 F       1  UNL1       -0.2030
     34  C         20.6910  -21.8280   -6.9590 C.2     1  UNL1        0.1560
     35  F         21.8660  -21.9290   -7.5960 F       1  UNL1       -0.2030
     36  C         19.6750  -22.7260   -7.2620 C.2     1  UNL1        0.0700
@<TRIPOS>BOND
     1    22    23    1
     2    22    21    1
     3    23    21    1
     4    21    19    1
     5    19    20    1
     6    19    17   am
     7    17    18    2
     8    17    15    1
     9    15    16    1
    10    15    14    2
    11     8     7    2
    12    16    11    2
    13    14    13    1
    14     7     1    1
    15     7     9   am
    16     2     1    2
    17     2     3    1
    18    11     9    1
    19    11    12    1
    20     1     6    1
    21     9    10    1
    22     3     4    2
    23    13    12    2
    24     6     5    2
    25     4     5    1
    26     5    24    1
    27    25    24    1
    28    24    26    1
    29    35    34    1
    30    36    34    1
    31    36    29    2
    32    26    27    2
    33    26    29    1
    34    26    28    2
    35    34    32    2
    36    29    30    1
    37    32    33    1
    38    32    31    1
    39    30    31    2
