@<TRIPOS>MOLECULE
75518_out_ligand_01.pdbqt
 36 39 0 0 0
SMALL
GASTEIGER

@<TRIPOS>ATOM
      1  C         18.6890  -22.2050  -10.2090 C.2     1  UNL1        0.0870
      2  C         20.0180  -22.6440  -10.0810 C.2     1  UNL1        0.0550
      3  C         21.0120  -22.1980  -10.9560 C.2     1  UNL1        0.0360
      4  C         20.6670  -21.2800  -11.9440 C.2     1  UNL1        0.0300
      5  C         19.3480  -20.8260  -12.0670 C.2     1  UNL1        0.0100
      6  C         18.3320  -21.2870  -11.2140 C.2     1  UNL1       -0.0390
      7  C         16.9410  -20.7560  -11.4070 C.3     1  UNL1        0.0500
      8  N         22.3060  -22.7250  -10.7790 N.am    1  UNL1       -0.3270
      9  C         23.3830  -22.1220  -10.1450 C.2     1  UNL1        0.2230
     10  O         23.3740  -21.0420   -9.5650 O.2     1  UNL1       -0.2730
     11  H         22.4750  -23.6320  -11.2020 H       1  UNL1        0.1690
     12  C         24.6270  -22.9910  -10.2110 C.3     1  UNL1        0.1250
     13  C         25.7370  -22.3330  -11.0190 C.3     1  UNL1        0.1660
     14  N         25.8010  -22.8000  -12.3850 N.ar    1  UNL1       -0.2100
     15  N         25.1720  -22.1650  -13.4220 N.ar    1  UNL1       -0.1400
     16  C         25.4510  -22.9380  -14.4240 C.ar    1  UNL1        0.2100
     17  O         26.1870  -24.0460  -14.1440 O.2     1  UNL1       -0.2380
     18  C         26.3970  -23.9680  -12.8030 C.ar    1  UNL1        0.3900
     19  O         26.9840  -24.8050  -12.1380 O.2     1  UNL1       -0.2360
     20  C         25.0500  -22.7440  -15.7910 C.2     1  UNL1        0.0590
     21  C         24.5160  -23.6870  -16.6520 C.2     1  UNL1        0.0240
     22  C         24.2370  -23.1550  -17.9450 C.2     1  UNL1        0.0090
     23  C         24.5630  -21.8180  -18.0310 C.2     1  UNL1        0.0500
     24  S         25.2020  -21.2200  -16.5650 S.3     1  UNL1       -0.0980
     25  S         17.5000  -22.8730   -9.0500 S.O2    1  UNL1        0.2630
     26  O         16.7070  -21.7740   -8.5370 O.2     1  UNL1       -0.2000
     27  O         16.8590  -24.0170   -9.6570 O.2     1  UNL1       -0.2000
     28  N         18.4780  -23.4680   -7.8080 N.pl3   1  UNL1       -0.2810
     29  H         19.3660  -23.8260   -8.1570 H       1  UNL1        0.1790
     30  C         18.4840  -22.7940   -6.5560 C.2     1  UNL1        0.0430
     31  C         19.2640  -21.6470   -6.4080 C.2     1  UNL1        0.0300
     32  C         19.2460  -20.9450   -5.2010 C.2     1  UNL1        0.0030
     33  C         18.4460  -21.3860   -4.1450 C.2     1  UNL1        0.0070
     34  C         17.6490  -22.5300   -4.2920 C.2     1  UNL1       -0.0600
     35  C         16.8090  -23.0300   -3.1530 C.3     1  UNL1        0.0480
     36  C         17.6810  -23.2340   -5.5040 C.2     1  UNL1        0.0370
@<TRIPOS>BOND
     1    23    22    2
     2    23    24    1
     3    22    21    1
     4    21    20    2
     5    24    20    1
     6    20    16    1
     7    16    17   ar
     8    16    15   ar
     9    17    18   ar
    10    15    14   ar
    11    18    14   ar
    12    18    19    2
    13    14    13    1
    14     5     4    2
    15     5     6    1
    16     4     3    1
    17     7     6    1
    18     6     1    2
    19    11     8    1
    20    13    12    1
    21     3     8    1
    22     3     2    2
    23     8     9   am
    24    12     9    1
    25     1     2    1
    26     1    25    1
    27     9    10    2
    28    27    25    2
    29    25    26    2
    30    25    28    1
    31    29    28    1
    32    28    30    1
    33    30    31    2
    34    30    36    1
    35    31    32    1
    36    36    34    2
    37    32    33    2
    38    34    33    1
    39    34    35    1
