@<TRIPOS>MOLECULE
75515_out_ligand_01.pdbqt
 26 29 0 0 0
SMALL
GASTEIGER

@<TRIPOS>ATOM
      1  C         20.6550  -22.0670  -10.5820 C.3     1  UNL1        0.2560
      2  C         20.0530  -20.8920  -11.3890 C.3     1  UNL1        0.0420
      3  C         18.7420  -21.2160  -12.1100 C.3     1  UNL1        0.0290
      4  C         17.6330  -21.6640  -11.1740 C.3     1  UNL1        0.1760
      5  O         17.9450  -22.9480  -10.6310 O.2     1  UNL1       -0.3500
      6  C         18.5340  -22.8160   -9.3930 C.2     1  UNL1        0.0880
      7  C         19.8710  -22.3770   -9.3040 C.2     1  UNL1        0.0090
      8  C         20.4250  -22.2970   -8.0170 C.2     1  UNL1        0.0130
      9  C         19.6820  -22.6330   -6.8790 C.2     1  UNL1        0.0130
     10  C         18.3600  -23.0810   -6.9830 C.2     1  UNL1       -0.0230
     11  C         17.6240  -23.4310   -5.8380 C.2     1  UNL1        0.0120
     12  C         16.3100  -23.8880   -5.9450 C.2     1  UNL1        0.0010
     13  C         15.7180  -24.0050   -7.1980 C.2     1  UNL1        0.0010
     14  C         16.4410  -23.6600   -8.3410 C.2     1  UNL1        0.0150
     15  C         17.7690  -23.1890   -8.2580 C.2     1  UNL1        0.0080
     16  N         22.1090  -21.8990  -10.3920 N.3     1  UNL1        0.0980
     17  H         22.4320  -21.0700  -10.8860 H       1  UNL1        0.3170
     18  C         22.9440  -23.0580  -10.6890 C.3     1  UNL1        0.3350
     19  C         23.7150  -22.8360  -11.9450 C.2     1  UNL1        0.0810
     20  C         24.7690  -23.5010  -12.5370 C.2     1  UNL1        0.0370
     21  C         25.0630  -22.8020  -13.7320 C.2     1  UNL1        0.0370
     22  C         24.1740  -21.7490  -13.8010 C.2     1  UNL1        0.0760
     23  O         23.3520  -21.7650  -12.7100 O.2     1  UNL1       -0.3150
     24  C         23.9330  -20.6600  -14.7730 C.3     1  UNL1        0.2290
     25  O         22.6600  -20.0850  -14.4950 O.3     1  UNL1       -0.3940
     26  H         22.5530  -20.1180  -13.5300 H       1  UNL1        0.2090
@<TRIPOS>BOND
     1    24    25    1
     2    24    22    1
     3    25    26    1
     4    22    21    2
     5    22    23    1
     6    21    20    1
     7    23    19    1
     8    20    19    2
     9     3     2    1
    10     3     4    1
    11    19    18    1
    12     2     1    1
    13     4     5    1
    14    17    16    1
    15    18    16    1
    16     5     6    1
    17     1    16    1
    18     1     7    1
    19     6     7    2
    20     6    15    1
    21     7     8    1
    22    14    15    1
    23    14    13    2
    24    15    10    2
    25     8     9    2
    26    13    12    1
    27    10     9    1
    28    10    11    1
    29    12    11    2
