@<TRIPOS>MOLECULE
75512_out_ligand_01.pdbqt
 31 34 0 0 0
SMALL
GASTEIGER

@<TRIPOS>ATOM
      1  N         20.0240  -22.4530   -9.2030 N.am    1  UNL1       -0.3230
      2  C         20.2520  -22.3410   -7.8430 C.2     1  UNL1        0.2560
      3  O         21.2970  -22.0110   -7.2950 O.2     1  UNL1       -0.2670
      4  H         19.0720  -22.6050   -9.5020 H       1  UNL1        0.1690
      5  C         20.9650  -22.2900  -10.2460 C.2     1  UNL1        0.0350
      6  C         22.2840  -22.7510  -10.1820 C.2     1  UNL1        0.0440
      7  C         23.1620  -22.5530  -11.2730 C.ar    1  UNL1        0.0050
      8  C         24.5320  -22.8890  -11.5030 C.ar    1  UNL1        0.0030
      9  C         22.6900  -21.9000  -12.4110 C.ar    1  UNL1        0.0460
     10  C         25.5150  -23.5430  -10.7280 C.2     1  UNL1        0.0140
     11  C         24.8720  -22.4350  -12.7780 C.ar    1  UNL1        0.0460
     12  C         26.8020  -23.7180  -11.2460 C.2     1  UNL1        0.0010
     13  C         27.1200  -23.2530  -12.5160 C.2     1  UNL1        0.0020
     14  C         26.1650  -22.6040  -13.3050 C.2     1  UNL1        0.0300
     15  N         23.7390  -21.8470  -13.3100 N.ar    1  UNL1       -0.3460
     16  C         21.3720  -21.4290  -12.4970 C.2     1  UNL1        0.0330
     17  C         20.5250  -21.6380  -11.4010 C.2     1  UNL1        0.0320
     18  C         23.6610  -21.2620  -14.6400 C.3     1  UNL1        0.1250
     19  C         24.5530  -20.0410  -14.7840 C.3     1  UNL1        0.0270
     20  C         19.0670  -22.6160   -6.9800 C.2     1  UNL1        0.0320
     21  C         18.7870  -21.8500   -5.8380 C.2     1  UNL1        0.0180
     22  C         17.6600  -22.1370   -5.0590 C.2     1  UNL1        0.0260
     23  C         16.8140  -23.1860   -5.4320 C.2     1  UNL1        0.0740
     24  C         17.0660  -23.9350   -6.5850 C.2     1  UNL1        0.0260
     25  C         18.1930  -23.6470   -7.3570 C.2     1  UNL1        0.0180
     26  S         15.3710  -23.5500   -4.4640 S.O2    1  UNL1        0.2390
     27  O         14.3120  -23.9580   -5.3580 O.2     1  UNL1       -0.2060
     28  O         15.7770  -24.3340   -3.3240 O.2     1  UNL1       -0.2060
     29  N         14.9330  -22.0190   -3.9200 N.3     1  UNL1       -0.2250
     30  H         15.7170  -21.6110   -3.4080 H       1  UNL1        0.1360
     31  H         14.0710  -22.0070   -3.3770 H       1  UNL1        0.1360
@<TRIPOS>BOND
     1    19    18    1
     2    18    15    1
     3    15    11   ar
     4    15     9   ar
     5    14    11    1
     6    14    13    2
     7    11     8   ar
     8    13    12    1
     9    16     9    2
    10    16    17    1
    11     9     7   ar
    12     8     7   ar
    13     8    10    1
    14    17     5    2
    15     7     6    2
    16    12    10    2
    17     5     6    1
    18     5     1    1
    19     4     1    1
    20     1     2   am
    21     2     3    2
    22     2    20    1
    23    25    20    2
    24    25    24    1
    25    20    21    1
    26    24    23    2
    27    21    22    2
    28    23    22    1
    29    23    26    1
    30    27    26    2
    31    26    29    1
    32    26    28    2
    33    29    30    1
    34    29    31    1
