@<TRIPOS>MOLECULE
75528_out_ligand_01.pdbqt
 37 40 0 0 0
SMALL
GASTEIGER

@<TRIPOS>ATOM
      1  C         15.4610  -22.0580   -9.5380 C.3     1  UNL1        0.0500
      2  C         16.8390  -22.0830  -10.1340 C.2     1  UNL1       -0.0390
      3  C         17.0550  -21.3900  -11.3350 C.2     1  UNL1        0.0100
      4  C         18.3140  -21.3600  -11.9450 C.2     1  UNL1        0.0300
      5  C         19.3970  -22.0150  -11.3670 C.2     1  UNL1        0.0360
      6  C         19.2050  -22.6900  -10.1580 C.2     1  UNL1        0.0540
      7  C         17.9380  -22.7320   -9.5470 C.2     1  UNL1        0.0830
      8  N         20.6940  -22.0430  -11.9170 N.am    1  UNL1       -0.3220
      9  C         21.8880  -21.7450  -11.2950 C.2     1  UNL1        0.2730
     10  O         22.0030  -21.3310  -10.1450 O.2     1  UNL1       -0.2660
     11  H         20.7490  -22.2350  -12.9070 H       1  UNL1        0.1690
     12  C         23.0660  -21.8750  -12.1450 C.ar    1  UNL1        0.1080
     13  N         23.0350  -21.3470  -13.4230 N.ar    1  UNL1       -0.3540
     14  C         24.1920  -21.6340  -14.0800 C.ar    1  UNL1        0.0250
     15  H         22.2360  -20.8460  -13.7960 H       1  UNL1        0.1660
     16  C         25.0240  -22.3130  -13.2150 C.ar    1  UNL1        0.0410
     17  C         24.4850  -21.2560  -15.4900 C.3     1  UNL1        0.0670
     18  C         24.3400  -22.4210  -11.9610 C.ar    1  UNL1       -0.0140
     19  C         26.3480  -22.7510  -13.6480 C.2     1  UNL1        0.1620
     20  C         24.9270  -23.0020  -10.7170 C.3     1  UNL1        0.0520
     21  O         27.1210  -23.3530  -12.9050 O.2     1  UNL1       -0.2920
     22  C         26.6950  -22.5020  -15.1170 C.3     1  UNL1        0.0930
     23  C         26.0210  -21.2430  -15.7340 C.3     1  UNL1       -0.0360
     24  C         26.6500  -19.9660  -15.1390 C.3     1  UNL1        0.0150
     25  C         26.2780  -21.2370  -17.2520 C.3     1  UNL1        0.0150
     26  S         17.8110  -23.6270   -8.0010 S.O2    1  UNL1        0.2460
     27  O         19.0800  -24.2690   -7.7370 O.2     1  UNL1       -0.2060
     28  O         16.5890  -24.4040   -8.0360 O.2     1  UNL1       -0.2060
     29  N         17.6350  -22.3950   -6.8510 N.pl3   1  UNL1       -0.1780
     30  H         17.2570  -21.5490   -7.2770 H       1  UNL1        0.1460
     31  C         17.0730  -22.7420   -5.5830 C.2     1  UNL1        0.0610
     32  C         17.8500  -23.3490   -4.5960 C.2     1  UNL1        0.0270
     33  C         17.2620  -23.7280   -3.3860 C.2     1  UNL1        0.0020
     34  C         15.9010  -23.5020   -3.1620 C.2     1  UNL1        0.0030
     35  C         15.1230  -22.8930   -4.1460 C.2     1  UNL1        0.0440
     36  C         15.7140  -22.5160   -5.3470 C.2     1  UNL1        0.1380
     37  F         14.9630  -21.9390   -6.2960 F       1  UNL1       -0.2040
@<TRIPOS>BOND
     1    25    23    1
     2    23    17    1
     3    23    24    1
     4    23    22    1
     5    17    14    1
     6    22    19    1
     7    14    13   ar
     8    14    16   ar
     9    15    13    1
    10    19    16    1
    11    19    21    2
    12    13    12   ar
    13    16    18   ar
    14    11     8    1
    15    12    18   ar
    16    12     9    1
    17    18    20    1
    18     4     5    2
    19     4     3    1
    20     8     5    1
    21     8     9   am
    22     5     6    1
    23     3     2    2
    24     9    10    2
    25     6     7    2
    26     2     7    1
    27     2     1    1
    28     7    26    1
    29    28    26    2
    30    26    27    2
    31    26    29    1
    32    30    29    1
    33    29    31    1
    34    37    36    1
    35    31    36    2
    36    31    32    1
    37    36    35    1
    38    32    33    2
    39    35    34    2
    40    33    34    1
