@<TRIPOS>MOLECULE
7552_out_ligand_01.pdbqt
 26 28 0 0 0
SMALL
GASTEIGER

@<TRIPOS>ATOM
      1  N         19.3760  -22.4810   -8.5250 N.am    1  UNL1       -0.3260
      2  C         18.7910  -23.5450   -7.8500 C.2     1  UNL1        0.2350
      3  O         19.2260  -24.6930   -7.8290 O.2     1  UNL1       -0.2720
      4  H         18.8290  -21.6290   -8.5710 H       1  UNL1        0.1690
      5  C         20.5800  -22.4810   -9.2570 C.2     1  UNL1        0.0340
      6  C         21.7730  -22.4880   -8.5220 C.2     1  UNL1        0.0300
      7  C         23.0140  -22.4930   -9.1690 C.2     1  UNL1        0.0190
      8  C         23.0750  -22.4910  -10.5650 C.2     1  UNL1        0.0320
      9  C         21.8870  -22.5050  -11.3020 C.2     1  UNL1        0.0190
     10  C         20.6470  -22.4950  -10.6510 C.2     1  UNL1        0.0300
     11  C         24.3670  -22.5000  -11.3000 C.2     1  UNL1        0.2490
     12  N         24.6090  -23.5570  -12.1350 N.am    1  UNL1       -0.3660
     13  H         25.5480  -23.6050  -12.5090 H       1  UNL1        0.1590
     14  H         24.1030  -24.4250  -12.0500 H       1  UNL1        0.1590
     15  O         25.2040  -21.6200  -11.1460 O.2     1  UNL1       -0.2680
     16  C         17.4960  -23.1450   -7.0770 C.3     1  UNL1        0.0680
     17  C         16.6510  -22.1330   -7.8880 C.3     1  UNL1        0.0240
     18  C         15.8490  -22.9540   -8.9010 C.3     1  UNL1        0.0020
     19  C         15.9400  -24.4060   -8.4480 C.3     1  UNL1        0.0020
     20  C         16.5310  -24.3510   -7.0450 C.3     1  UNL1        0.0240
     21  C         17.8720  -22.5630   -5.7090 C.2     1  UNL1       -0.0400
     22  C         17.4990  -23.2520   -4.5400 C.2     1  UNL1        0.0080
     23  C         17.7960  -22.7420   -3.2750 C.2     1  UNL1        0.0010
     24  C         18.4690  -21.5310   -3.1530 C.2     1  UNL1        0.0000
     25  C         18.8420  -20.8290   -4.2950 C.2     1  UNL1        0.0010
     26  C         18.5440  -21.3370   -5.5630 C.2     1  UNL1        0.0080
@<TRIPOS>BOND
     1    13    12    1
     2    12    14    1
     3    12    11   am
     4     9    10    1
     5     9     8    2
     6    11    15    2
     7    11     8    1
     8    10     5    2
     9     8     7    1
    10     5     1    1
    11     5     6    1
    12     7     6    2
    13    18    19    1
    14    18    17    1
    15     4     1    1
    16     1     2   am
    17    19    20    1
    18    17    16    1
    19     2     3    2
    20     2    16    1
    21    16    20    1
    22    16    21    1
    23    21    26    2
    24    21    22    1
    25    26    25    1
    26    22    23    2
    27    25    24    2
    28    23    24    1
