@<TRIPOS>MOLECULE
75532_out_ligand_01.pdbqt
 30 33 0 0 0
SMALL
GASTEIGER

@<TRIPOS>ATOM
      1  C         18.3740  -22.3630   -8.9700 C.2     1  UNL1       -0.0010
      2  C         17.2860  -22.1610   -9.8010 C.2     1  UNL1        0.0650
      3  S         17.7470  -21.7080  -11.3840 S.3     1  UNL1       -0.0800
      4  C         19.4030  -21.7730  -10.9840 C.2     1  UNL1        0.1150
      5  N         20.3550  -21.4810  -11.9050 N.2     1  UNL1       -0.2350
      6  C         21.5660  -21.5530  -11.4550 C.2     1  UNL1        0.2140
      7  N         21.9330  -21.9040  -10.1700 N.am    1  UNL1       -0.3040
      8  C         20.9820  -22.2270   -9.2010 C.2     1  UNL1        0.2620
      9  O         21.2790  -22.5650   -8.0580 O.2     1  UNL1       -0.2670
     10  C         19.6080  -22.1390   -9.6690 C.2     1  UNL1        0.0800
     11  C         23.3400  -21.9320   -9.8080 C.3     1  UNL1        0.1710
     12  C         24.2300  -22.1460  -11.0140 C.2     1  UNL1       -0.0400
     13  C         24.0550  -23.2750  -11.8280 C.2     1  UNL1        0.0100
     14  C         24.8890  -23.4920  -12.9290 C.2     1  UNL1        0.0170
     15  C         25.9040  -22.5810  -13.2360 C.2     1  UNL1        0.0310
     16  C         26.0950  -21.4610  -12.4180 C.2     1  UNL1        0.0170
     17  C         25.2620  -21.2450  -11.3150 C.2     1  UNL1        0.0100
     18  C         26.7660  -22.8550  -14.4170 C.2     1  UNL1        0.2490
     19  N         27.1210  -21.7930  -15.2020 N.am    1  UNL1       -0.3660
     20  H         27.5930  -22.0290  -16.0660 H       1  UNL1        0.1590
     21  H         26.6190  -20.9180  -15.1760 H       1  UNL1        0.1590
     22  O         27.1210  -23.9910  -14.7070 O.2     1  UNL1       -0.2680
     23  C         18.1700  -22.7580   -7.5840 C.2     1  UNL1       -0.0240
     24  C         17.7230  -24.0420   -7.2740 C.2     1  UNL1        0.0130
     25  C         17.5150  -24.4120   -5.9450 C.2     1  UNL1        0.0080
     26  C         17.7470  -23.5040   -4.9010 C.2     1  UNL1       -0.0560
     27  C         17.5160  -23.9420   -3.4800 C.3     1  UNL1        0.0490
     28  C         18.1990  -22.2040   -5.2050 C.2     1  UNL1       -0.0550
     29  C         18.4060  -21.8450   -6.5480 C.2     1  UNL1        0.0190
     30  C         18.4720  -21.1950   -4.1230 C.3     1  UNL1        0.0490
@<TRIPOS>BOND
     1    20    19    1
     2    19    21    1
     3    19    18   am
     4    22    18    2
     5    18    15    1
     6    15    14    2
     7    15    16    1
     8    14    13    1
     9    16    17    2
    10     5     6    2
    11     5     4    1
    12    13    12    2
    13     6     7    1
    14     3     4    1
    15     3     2    1
    16    17    12    1
    17    12    11    1
    18     4    10    2
    19     7    11    1
    20     7     8   am
    21     2     1    2
    22    10     8    1
    23    10     1    1
    24     8     9    2
    25     1    23    1
    26    23    24    2
    27    23    29    1
    28    24    25    1
    29    29    28    2
    30    25    26    2
    31    28    26    1
    32    28    30    1
    33    26    27    1
