@<TRIPOS>MOLECULE
75555_out_ligand_01.pdbqt
 36 39 0 0 0
SMALL
GASTEIGER

@<TRIPOS>ATOM
      1  C         24.4680  -22.8290  -11.2280 C.2     1  UNL1        0.0750
      2  C         24.0230  -22.0570  -12.3030 C.2     1  UNL1        0.0250
      3  C         22.6690  -21.7290  -12.4080 C.2     1  UNL1        0.0090
      4  C         21.7480  -22.1630  -11.4410 C.2     1  UNL1       -0.0460
      5  C         20.3040  -21.7610  -11.5610 C.3     1  UNL1        0.0490
      6  C         22.2170  -22.9590  -10.3780 C.2     1  UNL1        0.0390
      7  C         23.5750  -23.2720  -10.2520 C.2     1  UNL1        0.0420
      8  C         21.3140  -23.4660   -9.3220 C.2     1  UNL1        0.2520
      9  O         21.1800  -24.6750   -9.1660 O.2     1  UNL1       -0.2680
     10  N         20.6570  -22.4900   -8.6090 N.am    1  UNL1       -0.3530
     11  H         20.8530  -21.5140   -8.8010 H       1  UNL1        0.1630
     12  C         19.7920  -22.7950   -7.4920 C.3     1  UNL1        0.1620
     13  C         18.3900  -23.0860   -7.9680 C.2     1  UNL1       -0.0330
     14  C         18.0210  -22.6330   -9.2530 C.2     1  UNL1        0.0090
     15  C         16.7430  -22.8650   -9.7630 C.2     1  UNL1        0.0010
     16  C         15.8070  -23.5520   -8.9970 C.2     1  UNL1        0.0010
     17  C         16.1470  -23.9890   -7.7170 C.2     1  UNL1        0.0090
     18  C         17.4290  -23.7570   -7.1770 C.2     1  UNL1       -0.0220
     19  C         17.6960  -24.2440   -5.7580 C.3     1  UNL1        0.3110
     20  N         17.7480  -23.1450   -4.7730 N.3     1  UNL1        0.0920
     21  C         16.6590  -22.1720   -4.9560 C.3     1  UNL1        0.2730
     22  C         15.4600  -22.7000   -4.1770 C.3     1  UNL1        0.0320
     23  C         16.0270  -23.7420   -3.2260 C.3     1  UNL1        0.0320
     24  C         17.5350  -23.6610   -3.4100 C.3     1  UNL1        0.2730
     25  S         26.2000  -23.2050  -11.0840 S.O2    1  UNL1        0.2450
     26  O         26.9270  -22.0200  -11.4840 O.2     1  UNL1       -0.2060
     27  O         26.4120  -23.8530   -9.8060 O.2     1  UNL1       -0.2060
     28  N         26.3380  -24.4220  -12.2760 N.pl3   1  UNL1       -0.1810
     29  H         27.2410  -24.8750  -12.1220 H       1  UNL1        0.1460
     30  C         26.2530  -23.9300  -13.6210 C.2     1  UNL1        0.0220
     31  C         27.1200  -22.9280  -14.0620 C.2     1  UNL1        0.0250
     32  C         26.9940  -22.4210  -15.3580 C.2     1  UNL1        0.0080
     33  C         26.0010  -22.9050  -16.2160 C.2     1  UNL1       -0.0620
     34  C         25.8320  -22.3310  -17.5920 C.3     1  UNL1        0.0480
     35  C         25.1190  -23.8910  -15.7520 C.2     1  UNL1        0.0080
     36  C         25.2440  -24.4000  -14.4590 C.2     1  UNL1        0.0250
@<TRIPOS>BOND
     1    34    33    1
     2    33    35    2
     3    33    32    1
     4    35    36    1
     5    32    31    2
     6    36    30    2
     7    31    30    1
     8    30    28    1
     9     3     2    1
    10     3     4    2
    11     2     1    2
    12    28    29    1
    13    28    25    1
    14     5     4    1
    15    26    25    2
    16     4     6    1
    17     1    25    1
    18     1     7    1
    19    25    27    2
    20     6     7    2
    21     6     8    1
    22    15    14    1
    23    15    16    2
    24     8     9    2
    25     8    10   am
    26    14    13    2
    27    16    17    1
    28    11    10    1
    29    10    12    1
    30    13    12    1
    31    13    18    1
    32    17    18    2
    33    18    19    1
    34    19    20    1
    35    21    20    1
    36    21    22    1
    37    20    24    1
    38    22    23    1
    39    24    23    1
