@<TRIPOS>MOLECULE
75571_out_ligand_01.pdbqt
 35 37 0 0 0
SMALL
GASTEIGER

@<TRIPOS>ATOM
      1  C         23.1720  -22.6230  -11.7520 C.2     1  UNL1        0.0230
      2  C         22.9890  -21.8180  -12.8760 C.2     1  UNL1        0.0240
      3  C         21.7630  -21.1890  -13.0970 C.2     1  UNL1        0.0030
      4  C         20.7090  -21.3790  -12.2020 C.2     1  UNL1        0.0170
      5  C         20.8800  -22.2110  -11.0860 C.2     1  UNL1        0.0340
      6  C         22.1220  -22.8190  -10.8560 C.2     1  UNL1        0.0410
      7  C         19.7850  -22.4510  -10.1040 C.2     1  UNL1        0.2560
      8  O         18.6350  -22.4900  -10.5230 O.2     1  UNL1       -0.2670
      9  N         20.1910  -22.5670   -8.7870 N.am    1  UNL1       -0.3230
     10  H         21.1640  -22.3820   -8.5850 H       1  UNL1        0.1690
     11  C         19.3800  -22.8290   -7.6610 C.2     1  UNL1        0.0350
     12  C         18.6940  -24.0270   -7.4540 C.2     1  UNL1        0.0310
     13  C         17.9130  -24.2120   -6.3070 C.2     1  UNL1        0.0260
     14  C         17.8250  -23.2000   -5.3520 C.2     1  UNL1        0.0220
     15  C         18.4970  -21.9980   -5.5510 C.2     1  UNL1        0.0260
     16  C         19.2740  -21.8160   -6.7000 C.2     1  UNL1        0.0310
     17  N         17.0080  -23.3930   -4.1990 N.pl3   1  UNL1       -0.1860
     18  H         17.1850  -24.2620   -3.6910 H       1  UNL1        0.1450
     19  S         15.3340  -23.2150   -4.3920 S.O2    1  UNL1        0.2100
     20  C         15.2590  -22.5570   -6.0430 C.3     1  UNL1        0.1800
     21  O         14.6760  -24.5020   -4.3770 O.2     1  UNL1       -0.2110
     22  O         14.9520  -22.1550   -3.4840 O.2     1  UNL1       -0.2110
     23  N         24.4370  -23.2510  -11.5060 N.pl3   1  UNL1       -0.1810
     24  H         24.3920  -23.9620  -10.7740 H       1  UNL1        0.1460
     25  S         25.7150  -22.1780  -11.1420 S.O2    1  UNL1        0.2460
     26  O         25.1970  -20.9880  -10.5010 O.2     1  UNL1       -0.2060
     27  O         26.7590  -22.9710  -10.5280 O.2     1  UNL1       -0.2060
     28  C         26.2530  -21.7360  -12.7890 C.2     1  UNL1        0.0810
     29  C         26.7180  -22.7020  -13.7000 C.2     1  UNL1       -0.0390
     30  C         27.1200  -22.2690  -14.9740 C.2     1  UNL1        0.0090
     31  C         26.7690  -24.1740  -13.3960 C.3     1  UNL1        0.0500
     32  C         27.0690  -20.9180  -15.3290 C.2     1  UNL1        0.0070
     33  C         26.5940  -19.9640  -14.4270 C.2     1  UNL1       -0.0600
     34  C         26.5590  -18.5110  -14.7970 C.3     1  UNL1        0.0480
     35  C         26.1950  -20.3800  -13.1500 C.2     1  UNL1        0.0320
@<TRIPOS>BOND
     1    32    30    2
     2    32    33    1
     3    30    29    1
     4    34    33    1
     5    33    35    2
     6    29    31    1
     7    29    28    2
     8    35    28    1
     9     3     2    1
    10     3     4    2
    11     2     1    2
    12    28    25    1
    13     4     5    1
    14     1    23    1
    15     1     6    1
    16    23    25    1
    17    23    24    1
    18    25    27    2
    19    25    26    2
    20     5     6    2
    21     5     7    1
    22     8     7    2
    23     7     9   am
    24     9    10    1
    25     9    11    1
    26    11    12    2
    27    11    16    1
    28    12    13    1
    29    16    15    2
    30    13    14    2
    31    20    19    1
    32    15    14    1
    33    14    17    1
    34    19    21    2
    35    19    17    1
    36    19    22    2
    37    17    18    1
