@<TRIPOS>MOLECULE
75585_out_ligand_01.pdbqt
 34 37 0 0 0
SMALL
GASTEIGER

@<TRIPOS>ATOM
      1  N         18.3650  -22.8470   -9.4680 N.pl3   1  UNL1       -0.3780
      2  C         18.0170  -21.6810  -10.3010 C.3     1  UNL1        0.1230
      3  C         18.8040  -21.7260  -11.6080 C.3     1  UNL1        0.0210
      4  C         20.3160  -21.6660  -11.3660 C.3     1  UNL1        0.0150
      5  C         20.7250  -22.2030   -9.9820 C.3     1  UNL1        0.0760
      6  C         19.7670  -23.3240   -9.5360 C.3     1  UNL1        0.1350
      7  C         17.7530  -22.8380   -8.2080 C.2     1  UNL1        0.0630
      8  C         18.4800  -22.5330   -7.0450 C.2     1  UNL1        0.0330
      9  C         17.8700  -22.5170   -5.7840 C.2     1  UNL1        0.0270
     10  C         16.5090  -22.8150   -5.6640 C.2     1  UNL1        0.0760
     11  C         15.7470  -23.1090   -6.7920 C.2     1  UNL1        0.0630
     12  C         16.3820  -23.1160   -8.0400 C.2     1  UNL1        0.1300
     13  S         15.7320  -22.7720   -4.0750 S.O2    1  UNL1        0.2390
     14  O         15.6980  -24.1130   -3.5420 O.2     1  UNL1       -0.2060
     15  O         14.5610  -21.9310   -4.1460 O.2     1  UNL1       -0.2060
     16  N         16.8590  -21.9280   -3.1670 N.3     1  UNL1       -0.2250
     17  H         16.7040  -22.0930   -2.1710 H       1  UNL1        0.1360
     18  H         16.8460  -20.9390   -3.4210 H       1  UNL1        0.1360
     19  N         15.5710  -23.4650   -9.1860 N.pl3   1  UNL1       -0.1130
     20  O         15.3820  -24.6720   -9.3930 O.2     1  UNL1       -0.5320
     21  O         15.0640  -22.5300   -9.8230 O.2     1  UNL1       -0.5320
     22  C         22.1480  -22.6670   -9.9860 C.ar    1  UNL1        0.1400
     23  N         22.7470  -23.3540   -9.0330 N.ar    1  UNL1       -0.1340
     24  N         24.0480  -23.5800   -9.4090 N.ar    1  UNL1       -0.1300
     25  C         24.2250  -23.0330  -10.5890 C.ar    1  UNL1        0.1570
     26  C         25.3490  -22.9550  -11.4550 C.2     1  UNL1        0.0540
     27  N         23.0460  -22.4360  -11.0090 N.ar    1  UNL1       -0.2900
     28  C         25.2360  -22.3160  -12.6360 C.2     1  UNL1        0.0210
     29  C         23.9770  -21.6910  -13.0630 C.2     1  UNL1        0.0640
     30  C         22.9170  -21.7720  -12.2290 C.2     1  UNL1        0.1160
     31  C         23.9480  -21.0010  -14.3980 C.3     1  UNL1        0.4180
     32  F         22.7890  -20.3230  -14.5860 F       1  UNL1       -0.1660
     33  F         24.0650  -21.8760  -15.4300 F       1  UNL1       -0.1660
     34  F         24.9590  -20.1060  -14.5230 F       1  UNL1       -0.1660
@<TRIPOS>BOND
     1    33    31    1
     2    32    31    1
     3    34    31    1
     4    31    29    1
     5    29    28    1
     6    29    30    2
     7    28    26    2
     8    30    27    1
     9     3     4    1
    10     3     2    1
    11    26    25    1
    12     4     5    1
    13    27    25   ar
    14    27    22   ar
    15    25    24   ar
    16     2     1    1
    17    22     5    1
    18    22    23   ar
    19     5     6    1
    20    21    19    2
    21     6     1    1
    22     1     7    1
    23    24    23   ar
    24    20    19    2
    25    19    12    1
    26     7    12    2
    27     7     8    1
    28    12    11    1
    29     8     9    2
    30    11    10    2
    31     9    10    1
    32    10    13    1
    33    15    13    2
    34    13    14    2
    35    13    16    1
    36    18    16    1
    37    16    17    1
