@<TRIPOS>MOLECULE
75584_out_ligand_01.pdbqt
 35 38 0 0 0
SMALL
GASTEIGER

@<TRIPOS>ATOM
      1  C         20.8030  -22.7650   -9.8230 C.2     1  UNL1        0.0320
      2  C         21.8560  -23.4000   -9.1520 C.2     1  UNL1        0.0190
      3  C         23.1210  -23.4750   -9.7400 C.2     1  UNL1        0.0310
      4  C         23.3320  -22.9200  -11.0000 C.2     1  UNL1        0.0420
      5  C         22.2840  -22.3040  -11.6850 C.2     1  UNL1        0.0310
      6  C         21.0170  -22.2290  -11.1000 C.2     1  UNL1        0.0190
      7  N         24.6090  -23.0430  -11.6110 N.pl3   1  UNL1       -0.2810
      8  H         25.0780  -23.9470  -11.5440 H       1  UNL1        0.1790
      9  S         25.7160  -21.7840  -11.3890 S.O2    1  UNL1        0.2630
     10  O         27.0100  -22.4140  -11.2300 O.2     1  UNL1       -0.2000
     11  O         25.2090  -20.8630  -10.3940 O.2     1  UNL1       -0.2000
     12  C         25.7080  -20.9800  -12.9730 C.2     1  UNL1        0.0820
     13  C         25.1650  -21.6650  -14.0890 C.2     1  UNL1        0.0280
     14  C         25.1540  -21.0680  -15.3540 C.2     1  UNL1        0.0330
     15  C         25.6960  -19.8070  -15.4460 C.ar    1  UNL1        0.0630
     16  N         25.8230  -18.9750  -16.5510 N.ar    1  UNL1       -0.3070
     17  C         26.2390  -19.1430  -14.3450 C.ar    1  UNL1        0.0640
     18  C         26.4480  -17.7840  -16.1510 C.ar    1  UNL1        0.3250
     19  H         25.5350  -19.1620  -17.4980 H       1  UNL1        0.1700
     20  O         26.7190  -16.8330  -16.8610 O.2     1  UNL1       -0.2470
     21  N         26.6980  -17.9050  -14.7770 N.ar    1  UNL1       -0.3060
     22  H         27.1430  -17.1890  -14.2250 H       1  UNL1        0.1700
     23  C         26.2700  -19.7000  -13.0910 C.2     1  UNL1        0.0570
     24  C         19.4660  -22.7220   -9.1650 C.2     1  UNL1        0.2560
     25  N         19.3980  -23.3670   -7.9430 N.am    1  UNL1       -0.3230
     26  H         20.2110  -23.8960   -7.6550 H       1  UNL1        0.1690
     27  O         18.5520  -22.1630   -9.7570 O.2     1  UNL1       -0.2670
     28  C         18.2860  -23.4550   -7.0800 C.2     1  UNL1        0.0350
     29  C         17.2090  -24.2390   -7.5030 C.2     1  UNL1        0.0300
     30  C         16.0730  -24.3820   -6.7030 C.2     1  UNL1        0.0090
     31  C         15.9870  -23.7440   -5.4590 C.2     1  UNL1       -0.0560
     32  C         14.7510  -23.9180   -4.6210 C.3     1  UNL1        0.0490
     33  C         17.0670  -22.9540   -5.0210 C.2     1  UNL1       -0.0540
     34  C         18.2060  -22.8210   -5.8380 C.2     1  UNL1        0.0370
     35  C         17.0330  -22.2480   -3.6930 C.3     1  UNL1        0.0490
@<TRIPOS>BOND
     1    19    16    1
     2    20    18    2
     3    16    18   ar
     4    16    15   ar
     5    18    21   ar
     6    15    14    2
     7    15    17   ar
     8    14    13    1
     9    21    17   ar
    10    21    22    1
    11    17    23    2
    12    13    12    2
    13    23    12    1
    14    12     9    1
    15     5     6    1
    16     5     4    2
    17     7     8    1
    18     7     9    1
    19     7     4    1
    20     9    10    2
    21     9    11    2
    22     6     1    2
    23     4     3    1
    24     1    24    1
    25     1     2    1
    26    27    24    2
    27     3     2    2
    28    24    25   am
    29    25    26    1
    30    25    28    1
    31    29    28    2
    32    29    30    1
    33    28    34    1
    34    30    31    2
    35    34    33    2
    36    31    33    1
    37    31    32    1
    38    33    35    1
