@<TRIPOS>MOLECULE
75587_out_ligand_01.pdbqt
 31 33 0 0 0
SMALL
GASTEIGER

@<TRIPOS>ATOM
      1  C         18.2690  -22.7690  -10.7780 C.3     1  UNL1        0.0270
      2  C         19.3770  -21.7480  -10.5030 C.3     1  UNL1        0.0640
      3  C         19.7760  -20.9850  -11.7920 C.3     1  UNL1        0.0600
      4  C         21.1470  -21.5210  -12.0520 C.2     1  UNL1       -0.0340
      5  C         21.9660  -21.2540  -13.1380 C.2     1  UNL1        0.0330
      6  C         23.2420  -21.8290  -13.1430 C.2     1  UNL1        0.0740
      7  C         23.6840  -22.6280  -12.0740 C.2     1  UNL1        0.0260
      8  C         22.8350  -22.8780  -10.9900 C.2     1  UNL1        0.0260
      9  C         21.5640  -22.3130  -10.9820 C.2     1  UNL1        0.0180
     10  N         20.5760  -22.4680  -10.0040 N.pl3   1  UNL1       -0.2700
     11  C         20.9300  -22.3240   -8.5850 C.3     1  UNL1        0.1990
     12  C         19.8410  -22.8470   -7.6290 C.2     1  UNL1        0.2350
     13  O         19.4810  -24.0240   -7.6720 O.2     1  UNL1       -0.2720
     14  N         19.3680  -21.8790   -6.7560 N.am    1  UNL1       -0.3260
     15  H         19.7500  -20.9480   -6.8730 H       1  UNL1        0.1690
     16  C         18.4110  -22.0310   -5.7310 C.2     1  UNL1        0.0350
     17  C         18.5850  -21.5640   -4.4270 C.2     1  UNL1        0.0290
     18  C         17.5780  -21.7410   -3.4730 C.2     1  UNL1        0.0030
     19  C         16.3800  -22.3670   -3.8180 C.2     1  UNL1        0.0160
     20  C         16.1860  -22.8460   -5.1190 C.2     1  UNL1        0.0500
     21  C         17.2130  -22.6790   -6.0650 C.2     1  UNL1        0.0450
     22  C         14.8720  -23.4870   -5.4980 C.3     1  UNL1        0.4170
     23  F         13.8800  -22.5830   -5.7290 F       1  UNL1       -0.1660
     24  F         14.4030  -24.3180   -4.5280 F       1  UNL1       -0.1660
     25  F         14.9580  -24.2420   -6.6280 F       1  UNL1       -0.1660
     26  S         24.3240  -21.5120  -14.5140 S.O2    1  UNL1        0.2390
     27  O         25.6600  -21.9220  -14.1470 O.2     1  UNL1       -0.2060
     28  O         23.6730  -21.9670  -15.7220 O.2     1  UNL1       -0.2060
     29  N         24.2920  -19.8300  -14.5850 N.3     1  UNL1       -0.2250
     30  H         24.1620  -19.5420  -15.5580 H       1  UNL1        0.1360
     31  H         23.5970  -19.4110  -13.9670 H       1  UNL1        0.1360
@<TRIPOS>BOND
     1    28    26    2
     2    30    29    1
     3    29    26    1
     4    29    31    1
     5    26    27    2
     6    26     6    1
     7     6     5    1
     8     6     7    2
     9     5     4    2
    10     7     8    1
    11     4     3    1
    12     4     9    1
    13     3     2    1
    14     8     9    2
    15     9    10    1
    16     1     2    1
    17     2    10    1
    18    10    11    1
    19    11    12    1
    20    13    12    2
    21    12    14   am
    22    15    14    1
    23    14    16    1
    24    25    22    1
    25    21    16    2
    26    21    20    1
    27    16    17    1
    28    23    22    1
    29    22    20    1
    30    22    24    1
    31    20    19    2
    32    17    18    2
    33    19    18    1
