@<TRIPOS>MOLECULE
75596_out_ligand_01.pdbqt
 31 34 0 0 0
SMALL
GASTEIGER

@<TRIPOS>ATOM
      1  C         16.6580  -23.2180   -5.7400 C.2     1  UNL1        0.0750
      2  C         16.9480  -24.3230   -6.5550 C.2     1  UNL1        0.0270
      3  C         18.1570  -24.3790   -7.2600 C.2     1  UNL1        0.0320
      4  C         19.0570  -23.3300   -7.1330 C.2     1  UNL1        0.0430
      5  C         18.7620  -22.2370   -6.3130 C.2     1  UNL1       -0.0280
      6  C         17.5710  -22.1630   -5.6050 C.2     1  UNL1        0.0340
      7  C         19.8640  -21.2230   -6.3270 C.2     1  UNL1        0.0610
      8  C         20.9030  -21.8940   -7.2330 C.2     1  UNL1        0.1370
      9  N         20.3320  -23.1690   -7.7150 N.am    1  UNL1       -0.3170
     10  C         20.9520  -24.0710   -8.5710 C.2     1  UNL1        0.2340
     11  O         20.4280  -25.1270   -8.9520 O.2     1  UNL1       -0.2720
     12  C         22.3870  -23.7440   -8.9860 C.3     1  UNL1        0.1850
     13  S         22.6480  -21.9500   -9.1190 S.3     1  UNL1       -0.0820
     14  C         22.7850  -21.7690  -10.8460 C.2     1  UNL1        0.1730
     15  N         23.9450  -21.8670  -11.4630 N.2     1  UNL1       -0.2350
     16  C         23.6500  -21.9070  -12.7930 C.2     1  UNL1        0.1370
     17  C         22.2920  -21.8320  -12.9910 C.2     1  UNL1        0.1180
     18  N         21.7170  -21.7090  -11.7370 N.pl3   1  UNL1       -0.3000
     19  C         20.3100  -21.5800  -11.5070 C.2     1  UNL1        0.0440
     20  C         19.6320  -20.3750  -11.7320 C.2     1  UNL1        0.0300
     21  C         18.2610  -20.2690  -11.4600 C.2     1  UNL1        0.0050
     22  C         17.5540  -21.3690  -10.9800 C.2     1  UNL1        0.0420
     23  C         18.2190  -22.5700  -10.7870 C.2     1  UNL1        0.1180
     24  F         17.5450  -23.6340  -10.3240 F       1  UNL1       -0.2060
     25  C         19.5800  -22.6910  -11.0540 C.2     1  UNL1        0.0720
     26  S         15.1510  -23.1890   -4.8120 S.O2    1  UNL1        0.2390
     27  O         14.8920  -24.5090   -4.2900 O.2     1  UNL1       -0.2060
     28  O         14.1540  -22.4330   -5.5380 O.2     1  UNL1       -0.2060
     29  N         15.5740  -22.2460   -3.4900 N.3     1  UNL1       -0.2250
     30  H         15.2840  -22.7130   -2.6320 H       1  UNL1        0.1360
     31  H         15.1990  -21.3000   -3.6070 H       1  UNL1        0.1360
@<TRIPOS>BOND
     1    17    16    2
     2    17    18    1
     3    16    15    1
     4    18    19    1
     5    18    14    1
     6    20    19    2
     7    20    21    1
     8    19    25    1
     9    15    14    2
    10    21    22    2
    11    25    23    2
    12    22    23    1
    13    14    13    1
    14    23    24    1
    15    13    12    1
    16    12    10    1
    17    11    10    2
    18    10     9   am
    19     9     8    1
    20     9     4    1
    21     3     4    2
    22     3     2    1
    23     8     7    2
    24     4     5    1
    25     2     1    2
    26     7     5    1
    27     5     6    2
    28     1     6    1
    29     1    26    1
    30    28    26    2
    31    26    27    2
    32    26    29    1
    33    31    29    1
    34    29    30    1
