@<TRIPOS>MOLECULE
75609_out_ligand_01.pdbqt
 27 29 0 0 0
SMALL
GASTEIGER

@<TRIPOS>ATOM
      1  N         21.6790  -22.7810   -9.8640 N.am    1  UNL1       -0.3490
      2  C         22.9870  -23.2170   -9.8350 C.2     1  UNL1        0.2520
      3  O         23.4760  -23.8600   -8.9150 O.2     1  UNL1       -0.2680
      4  H         21.4770  -22.0310  -10.5070 H       1  UNL1        0.1630
      5  C         20.7730  -22.8700   -8.7250 C.3     1  UNL1        0.1140
      6  C         21.2130  -22.0420   -7.5100 C.3     1  UNL1        0.0370
      7  C         19.3260  -22.6840   -9.1740 C.2     1  UNL1       -0.0250
      8  C         19.0640  -21.9450  -10.3450 C.2     1  UNL1        0.0100
      9  C         17.7680  -21.7570  -10.8080 C.2     1  UNL1        0.0020
     10  C         16.7000  -22.3160  -10.1180 C.2     1  UNL1        0.0120
     11  C         16.9120  -23.0800   -8.9640 C.2     1  UNL1       -0.0250
     12  C         15.8100  -23.6460   -8.3020 C.2     1  UNL1        0.0120
     13  C         18.2300  -23.2840   -8.4730 C.2     1  UNL1       -0.0180
     14  C         15.9760  -24.4210   -7.1590 C.2     1  UNL1        0.0010
     15  C         17.2520  -24.6440   -6.6630 C.2     1  UNL1        0.0010
     16  C         18.3590  -24.0850   -7.3090 C.2     1  UNL1        0.0130
     17  C         23.7970  -22.8370  -10.9990 C.2     1  UNL1        0.0400
     18  C         25.1450  -23.0960  -11.1760 C.2     1  UNL1        0.0680
     19  S         25.7560  -22.4900  -12.6560 S.3     1  UNL1       -0.0880
     20  C         24.2340  -21.8520  -13.0960 C.2     1  UNL1        0.1150
     21  C         23.2880  -22.0940  -12.1210 C.2     1  UNL1        0.0500
     22  S         24.1540  -21.0140  -14.6600 S.O2    1  UNL1        0.2450
     23  O         25.2800  -20.1120  -14.6780 O.2     1  UNL1       -0.2060
     24  O         23.9590  -22.0620  -15.6330 O.2     1  UNL1       -0.2060
     25  N         22.7550  -20.0870  -14.6540 N.3     1  UNL1       -0.2250
     26  H         22.8660  -19.2230  -14.1270 H       1  UNL1        0.1360
     27  H         21.9290  -20.6390  -14.4310 H       1  UNL1        0.1360
@<TRIPOS>BOND
     1    24    22    2
     2    23    22    2
     3    22    25    1
     4    22    20    1
     5    25    27    1
     6    25    26    1
     7    20    19    1
     8    20    21    2
     9    19    18    1
    10    21    17    1
    11    18    17    2
    12    17     2    1
    13     9     8    1
    14     9    10    2
    15     4     1    1
    16     8     7    2
    17    10    11    1
    18     1     2   am
    19     1     5    1
    20     2     3    2
    21     7     5    1
    22     7    13    1
    23    11    13    2
    24    11    12    1
    25     5     6    1
    26    13    16    1
    27    12    14    2
    28    16    15    2
    29    14    15    1
