@<TRIPOS>MOLECULE
75608_out_ligand_01.pdbqt
 35 38 0 0 0
SMALL
GASTEIGER

@<TRIPOS>ATOM
      1  C         20.0620  -22.3790   -8.3300 C.2     1  UNL1        0.0320
      2  C         21.4130  -22.5660   -8.0050 C.2     1  UNL1        0.0190
      3  C         22.3600  -22.7480   -9.0150 C.2     1  UNL1        0.0310
      4  C         21.9590  -22.7390  -10.3500 C.2     1  UNL1        0.0420
      5  C         20.6190  -22.5340  -10.6840 C.2     1  UNL1        0.0310
      6  C         19.6690  -22.3500   -9.6740 C.2     1  UNL1        0.0190
      7  N         22.9360  -22.8780  -11.3720 N.pl3   1  UNL1       -0.2810
      8  H         22.6320  -22.7430  -12.3360 H       1  UNL1        0.1790
      9  S         24.4480  -22.1600  -11.1210 S.O2    1  UNL1        0.2630
     10  O         24.2340  -21.1110  -10.1470 O.2     1  UNL1       -0.2000
     11  O         25.4410  -23.1890  -10.9020 O.2     1  UNL1       -0.2000
     12  C         24.7670  -21.3770  -12.6840 C.2     1  UNL1        0.0820
     13  C         24.1400  -21.8870  -13.8480 C.2     1  UNL1        0.0280
     14  C         24.3580  -21.2880  -15.0940 C.2     1  UNL1        0.0330
     15  C         25.1930  -20.1950  -15.1150 C.ar    1  UNL1        0.0630
     16  N         25.5930  -19.4060  -16.1860 N.ar    1  UNL1       -0.3070
     17  C         25.7980  -19.6930  -13.9620 C.ar    1  UNL1        0.0640
     18  C         26.4510  -18.4030  -15.7130 C.ar    1  UNL1        0.3250
     19  H         25.3280  -19.5020  -17.1530 H       1  UNL1        0.1700
     20  O         26.9880  -17.5330  -16.3750 O.2     1  UNL1       -0.2470
     21  N         26.5690  -18.5960  -14.3280 N.ar    1  UNL1       -0.3060
     22  H         27.1310  -18.0120  -13.7280 H       1  UNL1        0.1700
     23  C         25.6040  -20.2540  -12.7240 C.2     1  UNL1        0.0570
     24  C         19.0880  -22.1730   -7.2200 C.2     1  UNL1        0.2560
     25  N         17.8950  -22.8590   -7.3590 N.am    1  UNL1       -0.3230
     26  H         17.8240  -23.5110   -8.1270 H       1  UNL1        0.1690
     27  O         19.4280  -21.4600   -6.2830 O.2     1  UNL1       -0.2670
     28  C         16.7800  -22.8220   -6.4930 C.2     1  UNL1        0.0350
     29  C         15.6290  -22.0700   -6.7340 C.2     1  UNL1        0.0360
     30  C         14.5550  -22.0880   -5.8300 C.2     1  UNL1       -0.0590
     31  C         14.6500  -22.8570   -4.6650 C.2     1  UNL1        0.0130
     32  C         13.3440  -21.2400   -6.0850 C.3     1  UNL1        0.0480
     33  C         15.7870  -23.6340   -4.4150 C.2     1  UNL1       -0.0590
     34  C         15.8940  -24.4370   -3.1530 C.3     1  UNL1        0.0480
     35  C         16.8490  -23.6020   -5.3300 C.2     1  UNL1        0.0360
@<TRIPOS>BOND
     1    19    16    1
     2    20    18    2
     3    16    18   ar
     4    16    15   ar
     5    18    21   ar
     6    15    14    2
     7    15    17   ar
     8    14    13    1
     9    21    17   ar
    10    21    22    1
    11    17    23    2
    12    13    12    2
    13    23    12    1
    14    12     9    1
    15     8     7    1
    16     7     9    1
    17     7     4    1
    18     9    11    2
    19     9    10    2
    20     5     4    2
    21     5     6    1
    22     4     3    1
    23     6     1    2
    24     3     2    2
    25     1     2    1
    26     1    24    1
    27    26    25    1
    28    25    24   am
    29    25    28    1
    30    24    27    2
    31    29    28    2
    32    29    30    1
    33    28    35    1
    34    32    30    1
    35    30    31    2
    36    35    33    2
    37    31    33    1
    38    33    34    1
