@<TRIPOS>MOLECULE
75604_out_ligand_01.pdbqt
 35 38 0 0 0
SMALL
GASTEIGER

@<TRIPOS>ATOM
      1  C         20.0240  -23.0010   -9.5160 C.2     1  UNL1        0.0320
      2  C         20.2650  -22.3600  -10.7380 C.2     1  UNL1        0.0190
      3  C         21.5220  -22.4490  -11.3410 C.2     1  UNL1        0.0310
      4  C         22.5390  -23.1720  -10.7210 C.2     1  UNL1        0.0420
      5  C         22.3130  -23.7970   -9.4940 C.2     1  UNL1        0.0310
      6  C         21.0560  -23.7100   -8.8870 C.2     1  UNL1        0.0190
      7  N         23.8260  -23.2170  -11.3170 N.pl3   1  UNL1       -0.2810
      8  H         24.2970  -24.1210  -11.3580 H       1  UNL1        0.1790
      9  S         24.9260  -21.9940  -10.9170 S.O2    1  UNL1        0.2630
     10  O         26.1810  -22.6620  -10.6440 O.2     1  UNL1       -0.2000
     11  O         24.3270  -21.1060   -9.9440 O.2     1  UNL1       -0.2000
     12  C         25.1100  -21.1230  -12.4530 C.2     1  UNL1        0.0820
     13  C         24.3960  -21.5760  -13.5920 C.2     1  UNL1        0.0280
     14  C         24.5260  -20.9230  -14.8210 C.2     1  UNL1        0.0330
     15  C         25.3760  -19.8420  -14.8580 C.ar    1  UNL1        0.0630
     16  N         25.7040  -19.0070  -15.9190 N.ar    1  UNL1       -0.3070
     17  C         26.0840  -19.4070  -13.7360 C.ar    1  UNL1        0.0640
     18  C         26.6200  -18.0440  -15.4700 C.ar    1  UNL1        0.3250
     19  H         25.3670  -19.0560  -16.8670 H       1  UNL1        0.1700
     20  O         27.1210  -17.1550  -16.1340 O.2     1  UNL1       -0.2470
     21  N         26.8440  -18.3060  -14.1120 N.ar    1  UNL1       -0.3060
     22  H         27.4650  -17.7630  -13.5330 H       1  UNL1        0.1700
     23  C         25.9830  -20.0280  -12.5160 C.2     1  UNL1        0.0570
     24  C         18.6710  -22.8690   -8.8990 C.2     1  UNL1        0.2560
     25  N         18.4850  -23.6140   -7.7490 N.am    1  UNL1       -0.3220
     26  H         19.2260  -24.2540   -7.5100 H       1  UNL1        0.1690
     27  O         17.8520  -22.1590   -9.4680 O.2     1  UNL1       -0.2670
     28  C         17.3380  -23.6590   -6.9150 C.2     1  UNL1        0.0410
     29  C         16.2050  -24.4020   -7.2630 C.2     1  UNL1        0.0300
     30  C         15.0830  -24.4290   -6.4360 C.2     1  UNL1        0.0030
     31  C         15.0770  -23.7100   -5.2490 C.2     1  UNL1        0.0070
     32  C         16.1900  -22.9490   -4.8670 C.2     1  UNL1       -0.0540
     33  C         16.1170  -22.1890   -3.5680 C.3     1  UNL1        0.0490
     34  C         17.3360  -22.9170   -5.7030 C.2     1  UNL1       -0.0290
     35  C         18.5470  -22.1020   -5.3090 C.3     1  UNL1        0.0510
@<TRIPOS>BOND
     1    19    16    1
     2    20    18    2
     3    16    18   ar
     4    16    15   ar
     5    18    21   ar
     6    15    14    2
     7    15    17   ar
     8    14    13    1
     9    21    17   ar
    10    21    22    1
    11    17    23    2
    12    13    12    2
    13    23    12    1
    14    12     9    1
    15     8     7    1
    16     3     2    1
    17     3     4    2
    18     7     9    1
    19     7     4    1
    20     9    10    2
    21     9    11    2
    22     2     1    2
    23     4     5    1
    24     1    24    1
    25     1     6    1
    26     5     6    2
    27    27    24    2
    28    24    25   am
    29    25    26    1
    30    25    28    1
    31    29    28    2
    32    29    30    1
    33    28    34    1
    34    30    31    2
    35    34    35    1
    36    34    32    2
    37    31    32    1
    38    32    33    1
