@<TRIPOS>MOLECULE
75602_out_ligand_01.pdbqt
 35 38 0 0 0
SMALL
GASTEIGER

@<TRIPOS>ATOM
      1  C         20.7410  -22.8160   -9.8570 C.2     1  UNL1        0.0320
      2  C         20.9570  -22.2810  -11.1350 C.2     1  UNL1        0.0190
      3  C         22.2240  -22.3650  -11.7220 C.2     1  UNL1        0.0310
      4  C         23.2710  -22.9830  -11.0380 C.2     1  UNL1        0.0420
      5  C         23.0550  -23.5450   -9.7810 C.2     1  UNL1        0.0310
      6  C         21.7910  -23.4620   -9.1910 C.2     1  UNL1        0.0190
      7  N         24.5470  -23.1070  -11.6530 N.pl3   1  UNL1       -0.2810
      8  H         24.5640  -23.3820  -12.6360 H       1  UNL1        0.1790
      9  S         25.6750  -21.8720  -11.3860 S.O2    1  UNL1        0.2630
     10  O         26.9800  -22.4510  -11.1570 O.2     1  UNL1       -0.2000
     11  O         25.0690  -20.9780  -10.4210 O.2     1  UNL1       -0.2000
     12  C         25.6880  -21.0190  -12.9440 C.2     1  UNL1        0.0820
     13  C         25.1290  -21.6470  -14.0880 C.2     1  UNL1        0.0280
     14  C         25.1300  -20.9970  -15.3290 C.2     1  UNL1        0.0330
     15  C         25.6980  -19.7440  -15.3700 C.ar    1  UNL1        0.0630
     16  N         25.8560  -18.8730  -16.4440 N.ar    1  UNL1       -0.3070
     17  C         26.2520  -19.1370  -14.2410 C.ar    1  UNL1        0.0640
     18  C         26.5190  -17.7190  -15.9960 C.ar    1  UNL1        0.3250
     19  H         25.5860  -19.0280  -17.4010 H       1  UNL1        0.1700
     20  O         26.8430  -16.7510  -16.6630 O.2     1  UNL1       -0.2470
     21  N         26.7490  -17.8950  -14.6230 N.ar    1  UNL1       -0.3060
     22  H         27.2290  -17.2230  -14.0460 H       1  UNL1        0.1700
     23  C         26.2700  -19.7450  -13.0090 C.2     1  UNL1        0.0570
     24  C         19.4090  -22.7560   -9.1870 C.2     1  UNL1        0.2560
     25  N         19.3850  -23.2370   -7.8890 N.am    1  UNL1       -0.3230
     26  H         20.2280  -23.6770   -7.5460 H       1  UNL1        0.1690
     27  O         18.4580  -22.3280   -9.8310 O.2     1  UNL1       -0.2670
     28  C         18.2740  -23.2840   -7.0180 C.2     1  UNL1        0.0370
     29  C         17.1820  -24.1380   -7.1870 C.2     1  UNL1        0.0300
     30  C         16.1120  -24.1240   -6.2800 C.2     1  UNL1        0.0120
     31  C         16.1210  -23.2530   -5.1850 C.2     1  UNL1       -0.0230
     32  C         14.9690  -23.2020   -4.2310 C.3     1  UNL1        0.0510
     33  C         17.2100  -22.3920   -5.0340 C.2     1  UNL1        0.1240
     34  C         18.2770  -22.4020   -5.9320 C.2     1  UNL1        0.0720
     35  F         17.2410  -21.5270   -4.0090 F       1  UNL1       -0.2050
@<TRIPOS>BOND
     1    19    16    1
     2    20    18    2
     3    16    18   ar
     4    16    15   ar
     5    18    21   ar
     6    15    14    2
     7    15    17   ar
     8    14    13    1
     9    21    17   ar
    10    21    22    1
    11    17    23    2
    12    13    12    2
    13    23    12    1
    14    12     9    1
    15     8     7    1
    16     3     2    1
    17     3     4    2
    18     7     9    1
    19     7     4    1
    20     9    10    2
    21     9    11    2
    22     2     1    2
    23     4     5    1
    24     1     6    1
    25     1    24    1
    26    27    24    2
    27     5     6    2
    28    24    25   am
    29    25    26    1
    30    25    28    1
    31    29    28    2
    32    29    30    1
    33    28    34    1
    34    30    31    2
    35    34    33    2
    36    31    33    1
    37    31    32    1
    38    33    35    1
