@<TRIPOS>MOLECULE
75614_out_ligand_01.pdbqt
 30 32 0 0 0
SMALL
GASTEIGER

@<TRIPOS>ATOM
      1  N         18.7590  -22.3390  -10.3370 N.pl3   1  UNL1       -0.2700
      2  C         20.1470  -22.5400  -10.3640 C.2     1  UNL1        0.0180
      3  C         20.9130  -23.3120   -9.5020 C.2     1  UNL1        0.0260
      4  C         22.2970  -23.3880   -9.6950 C.2     1  UNL1        0.0260
      5  C         22.9020  -22.6610  -10.7320 C.2     1  UNL1        0.0740
      6  C         22.1450  -21.8590  -11.5880 C.2     1  UNL1        0.0330
      7  C         20.7750  -21.8120  -11.3800 C.2     1  UNL1       -0.0340
      8  C         19.7640  -21.0090  -12.1260 C.3     1  UNL1        0.0600
      9  C         18.4450  -21.6230  -11.6010 C.3     1  UNL1        0.0640
     10  C         17.3890  -20.5520  -11.3540 C.3     1  UNL1        0.0270
     11  C         17.8830  -23.4510   -9.9230 C.3     1  UNL1        0.1990
     12  C         16.9540  -23.1030   -8.7410 C.2     1  UNL1        0.2350
     13  N         17.5340  -23.3290   -7.5080 N.am    1  UNL1       -0.3250
     14  H         18.4800  -23.7160   -7.5110 H       1  UNL1        0.1690
     15  O         15.8200  -22.6650   -8.9330 O.2     1  UNL1       -0.2720
     16  C         16.9730  -23.1930   -6.2140 C.2     1  UNL1        0.0480
     17  C         15.8350  -23.9110   -5.8210 C.2     1  UNL1        0.0300
     18  C         15.3020  -23.7690   -4.5380 C.2     1  UNL1        0.0020
     19  C         15.8990  -22.9070   -3.6240 C.2     1  UNL1        0.0010
     20  C         17.0320  -22.1840   -3.9920 C.2     1  UNL1        0.0170
     21  C         17.5780  -22.3120   -5.2820 C.2     1  UNL1        0.0360
     22  C         18.7890  -21.5030   -5.6580 C.2     1  UNL1        0.1580
     23  C         19.0400  -20.1860   -4.9670 C.3     1  UNL1        0.0970
     24  O         19.5580  -21.9040   -6.5330 O.2     1  UNL1       -0.2930
     25  S         24.6560  -22.7730  -10.9570 S.O2    1  UNL1        0.2390
     26  O         25.2410  -21.4820  -10.6700 O.2     1  UNL1       -0.2060
     27  O         24.9180  -23.4910  -12.1820 O.2     1  UNL1       -0.2060
     28  N         25.0950  -23.7650   -9.6670 N.3     1  UNL1       -0.2250
     29  H         25.6930  -23.2950   -8.9860 H       1  UNL1        0.1360
     30  H         25.5290  -24.6130  -10.0360 H       1  UNL1        0.1360
@<TRIPOS>BOND
     1    27    25    2
     2     8     9    1
     3     8     7    1
     4     9    10    1
     5     9     1    1
     6     6     7    1
     7     6     5    2
     8     7     2    2
     9    25     5    1
    10    25    26    2
    11    25    28    1
    12     5     4    1
    13     2     1    1
    14     2     3    1
    15     1    11    1
    16    30    28    1
    17    11    12    1
    18     4     3    2
    19    28    29    1
    20    15    12    2
    21    12    13   am
    22    14    13    1
    23    13    16    1
    24    24    22    2
    25    16    17    2
    26    16    21    1
    27    17    18    1
    28    22    21    1
    29    22    23    1
    30    21    20    2
    31    18    19    2
    32    20    19    1
