@<TRIPOS>MOLECULE
75636_out_ligand_01.pdbqt
 28 30 0 0 0
SMALL
GASTEIGER

@<TRIPOS>ATOM
      1  C         21.3220  -21.7860  -11.7860 C.2     1  UNL1        0.0320
      2  C         22.2530  -22.5710  -11.0930 C.2     1  UNL1        0.0180
      3  C         23.5180  -22.8070  -11.6380 C.2     1  UNL1        0.0240
      4  C         23.8670  -22.2510  -12.8730 C.2     1  UNL1        0.0440
      5  C         25.1640  -22.4940  -13.4330 C.1     1  UNL1        0.0990
      6  N         26.2120  -22.6930  -13.8910 N.1     1  UNL1       -0.1910
      7  C         22.9440  -21.4510  -13.5580 C.2     1  UNL1        0.0240
      8  C         21.6750  -21.2140  -13.0160 C.2     1  UNL1        0.0180
      9  C         19.9850  -21.5580  -11.1650 C.2     1  UNL1        0.2560
     10  N         19.5660  -22.5540  -10.3030 N.am    1  UNL1       -0.3230
     11  H         20.2300  -23.2860  -10.0860 H       1  UNL1        0.1690
     12  O         19.3970  -20.5180  -11.4330 O.2     1  UNL1       -0.2670
     13  C         18.3350  -22.6290   -9.6180 C.2     1  UNL1        0.0350
     14  C         17.1050  -22.8130  -10.2430 C.2     1  UNL1        0.0290
     15  C         15.9350  -22.8860   -9.4850 C.2     1  UNL1        0.0030
     16  C         15.9850  -22.7780   -8.0940 C.2     1  UNL1        0.0100
     17  C         17.2070  -22.5970   -7.4300 C.2     1  UNL1       -0.0190
     18  C         18.3750  -22.5220   -8.2200 C.2     1  UNL1        0.0390
     19  C         17.3000  -22.4550   -5.9140 C.3     1  UNL1        0.1390
     20  C         18.6220  -21.8250   -5.4730 C.3     1  UNL1        0.0540
     21  N         16.1880  -21.7250   -5.3360 N.am    1  UNL1       -0.3210
     22  C         15.4650  -22.4680   -4.4400 C.2     1  UNL1        0.3240
     23  H         15.9910  -20.7430   -5.4760 H       1  UNL1        0.1650
     24  O         14.5270  -22.0510   -3.7860 O.2     1  UNL1       -0.2470
     25  N         15.9830  -23.7140   -4.3930 N.am    1  UNL1       -0.2770
     26  C         17.0910  -23.8050   -5.1780 C.2     1  UNL1        0.2580
     27  H         15.6480  -24.4390   -3.7830 H       1  UNL1        0.1730
     28  O         17.8030  -24.7980   -5.2530 O.2     1  UNL1       -0.2700
@<TRIPOS>BOND
     1     6     5    3
     2     7     8    1
     3     7     4    2
     4     5     4    1
     5     8     1    2
     6     4     3    1
     7     1     9    1
     8     1     2    1
     9     3     2    2
    10    12     9    2
    11     9    10   am
    12    10    11    1
    13    10    13    1
    14    14    13    2
    15    14    15    1
    16    13    18    1
    17    15    16    2
    18    18    17    2
    19    16    17    1
    20    17    19    1
    21    19    20    1
    22    19    21    1
    23    19    26    1
    24    23    21    1
    25    21    22   am
    26    28    26    2
    27    26    25   am
    28    22    25   am
    29    22    24    2
    30    25    27    1
