@<TRIPOS>MOLECULE
75645_out_ligand_01.pdbqt
 33 37 0 0 0
SMALL
GASTEIGER

@<TRIPOS>ATOM
      1  C         21.4480  -21.8520  -11.5390 C.ar    1  UNL1       -0.0180
      2  C         21.6430  -22.6860  -10.4410 C.ar    1  UNL1        0.0500
      3  N         22.8550  -23.3120  -10.6190 N.ar    1  UNL1       -0.3540
      4  C         23.4520  -22.9110  -11.7880 C.ar    1  UNL1        0.0430
      5  C         24.6770  -23.2910  -12.3510 C.2     1  UNL1        0.0300
      6  C         25.0380  -22.7090  -13.5700 C.2     1  UNL1        0.0020
      7  C         24.2050  -21.7870  -14.1980 C.2     1  UNL1        0.0010
      8  C         22.9830  -21.4220  -13.6210 C.2     1  UNL1        0.0140
      9  C         22.5960  -21.9930  -12.3900 C.ar    1  UNL1       -0.0010
     10  H         23.2590  -23.9710   -9.9670 H       1  UNL1        0.1660
     11  C         20.2560  -20.9810  -11.8080 C.3     1  UNL1        0.0510
     12  C         18.9960  -21.8040  -12.0600 C.3     1  UNL1        0.1070
     13  C         17.8150  -21.2550  -11.2950 C.2     1  UNL1        0.2180
     14  O         17.3410  -20.1400  -11.4750 O.2     1  UNL1       -0.2740
     15  N         17.3040  -22.1460  -10.3810 N.am    1  UNL1       -0.3540
     16  H         17.8510  -22.9630  -10.1370 H       1  UNL1        0.1620
     17  C         16.2480  -21.7720   -9.4650 C.3     1  UNL1        0.2030
     18  C         15.9420  -22.9300   -8.5910 C.ar    1  UNL1        0.1520
     19  N         15.8880  -24.1940   -8.9740 N.ar    1  UNL1       -0.1320
     20  N         15.5630  -24.9660   -7.8830 N.ar    1  UNL1       -0.1300
     21  C         15.4270  -24.1630   -6.8490 C.ar    1  UNL1        0.1570
     22  C         15.1070  -24.3970   -5.4820 C.2     1  UNL1        0.0530
     23  N         15.6710  -22.8490   -7.2390 N.ar    1  UNL1       -0.2900
     24  C         15.0690  -23.3620   -4.6220 C.2     1  UNL1        0.0050
     25  C         15.3370  -21.9990   -5.0590 C.2     1  UNL1        0.0180
     26  C         15.6280  -21.7730   -6.3530 C.2     1  UNL1        0.1000
     27  C         20.8160  -22.9390   -9.2660 C.2     1  UNL1       -0.0090
     28  C         20.7390  -21.9900   -8.2360 C.2     1  UNL1        0.0170
     29  C         19.9490  -22.2340   -7.1100 C.2     1  UNL1        0.0430
     30  C         19.2340  -23.4240   -7.0190 C.2     1  UNL1        0.1160
     31  F         18.4730  -23.6550   -5.9410 F       1  UNL1       -0.2060
     32  C         19.2940  -24.3750   -8.0320 C.2     1  UNL1        0.0430
     33  C         20.0870  -24.1330   -9.1560 C.2     1  UNL1        0.0170
@<TRIPOS>BOND
     1     7     8    2
     2     7     6    1
     3     8     9    1
     4     6     5    2
     5     9     4   ar
     6     9     1   ar
     7     5     4    1
     8    12    11    1
     9    12    13    1
    10    11     1    1
    11     4     3   ar
    12     1     2   ar
    13    14    13    2
    14    13    15   am
    15     3     2   ar
    16     3    10    1
    17     2    27    1
    18    15    16    1
    19    15    17    1
    20    17    18    1
    21    27    33    2
    22    27    28    1
    23    33    32    1
    24    19    18   ar
    25    19    20   ar
    26    18    23   ar
    27    28    29    2
    28    32    30    2
    29    20    21   ar
    30    23    21   ar
    31    23    26    1
    32    29    30    1
    33    30    31    1
    34    21    22    1
    35    26    25    2
    36    22    24    2
    37    25    24    1
