@<TRIPOS>MOLECULE
7565_out_ligand_01.pdbqt
 34 36 0 0 0
SMALL
GASTEIGER

@<TRIPOS>ATOM
      1  C         20.5860  -22.6460  -10.3580 C.2     1  UNL1        0.0330
      2  C         20.3550  -21.6560  -11.3140 C.2     1  UNL1        0.0170
      3  C         19.0650  -21.1540  -11.5060 C.2     1  UNL1        0.0090
      4  C         17.9800  -21.6120  -10.7360 C.2     1  UNL1       -0.0390
      5  C         16.6240  -21.0340  -11.0270 C.3     1  UNL1        0.0500
      6  C         18.2280  -22.5910   -9.7550 C.2     1  UNL1        0.0860
      7  C         19.5250  -23.1110   -9.5760 C.2     1  UNL1        0.0420
      8  C         21.9720  -23.1520  -10.1730 C.2     1  UNL1        0.2510
      9  N         22.9230  -22.6340  -11.0250 N.am    1  UNL1       -0.3530
     10  H         22.7060  -21.7880  -11.5340 H       1  UNL1        0.1630
     11  O         22.2090  -23.9660   -9.2870 O.2     1  UNL1       -0.2680
     12  C         24.3310  -22.9120  -10.8310 C.3     1  UNL1        0.1620
     13  C         25.1110  -22.6180  -12.0930 C.2     1  UNL1       -0.0340
     14  C         26.0520  -21.5700  -12.1940 C.2     1  UNL1       -0.0510
     15  C         26.7360  -21.3860  -13.4100 C.2     1  UNL1        0.0080
     16  C         26.5220  -22.2340  -14.4960 C.2     1  UNL1        0.0070
     17  C         25.6130  -23.2910  -14.3980 C.2     1  UNL1       -0.0580
     18  C         24.9170  -23.4730  -13.1960 C.2     1  UNL1        0.0160
     19  C         26.3480  -20.6110  -11.0630 C.3     1  UNL1        0.0340
     20  C         26.7620  -19.2380  -11.5740 C.3     1  UNL1        0.0100
     21  C         25.4100  -24.2450  -15.5490 C.3     1  UNL1        0.0340
     22  C         24.5030  -23.6510  -16.6200 C.3     1  UNL1        0.0100
     23  S         16.9590  -23.2840   -8.6980 S.O2    1  UNL1        0.2630
     24  O         15.7980  -23.6270   -9.4830 O.2     1  UNL1       -0.2000
     25  O         17.6070  -24.2830   -7.8700 O.2     1  UNL1       -0.2000
     26  N         16.6050  -22.0080   -7.6770 N.pl3   1  UNL1       -0.2800
     27  H         16.3960  -21.0990   -8.1030 H       1  UNL1        0.1790
     28  C         16.5060  -22.1690   -6.2710 C.2     1  UNL1        0.0480
     29  C         15.2800  -22.5560   -5.7210 C.2     1  UNL1        0.0300
     30  C         15.1480  -22.7320   -4.3430 C.2     1  UNL1        0.0020
     31  C         16.2460  -22.5300   -3.5130 C.2     1  UNL1        0.0010
     32  C         17.4790  -22.1690   -4.0610 C.2     1  UNL1        0.0090
     33  C         17.6310  -22.0060   -5.4500 C.2     1  UNL1       -0.0350
     34  C         18.9760  -21.5900   -5.9820 C.3     1  UNL1        0.0500
@<TRIPOS>BOND
     1    22    21    1
     2    21    17    1
     3    16    17    2
     4    16    15    1
     5    17    18    1
     6    15    14    2
     7    18    13    2
     8    14    13    1
     9    14    19    1
    10    13    12    1
    11    20    19    1
    12    10     9    1
    13     3     2    1
    14     3     4    2
    15     2     1    2
    16     5     4    1
    17     9    12    1
    18     9     8   am
    19     4     6    1
    20     1     8    1
    21     1     7    1
    22     8    11    2
    23     6     7    2
    24     6    23    1
    25    24    23    2
    26    23    25    2
    27    23    26    1
    28    27    26    1
    29    26    28    1
    30    28    29    2
    31    28    33    1
    32    34    33    1
    33    29    30    1
    34    33    32    2
    35    30    31    2
    36    32    31    1
