@<TRIPOS>MOLECULE
7567_out_ligand_01.pdbqt
 35 39 0 0 0
SMALL
GASTEIGER

@<TRIPOS>ATOM
      1  N         24.1490  -22.8800  -11.8840 N.am    1  UNL1       -0.3480
      2  C         23.7360  -23.2370  -10.6170 C.2     1  UNL1        0.2520
      3  O         24.5120  -23.5820   -9.7320 O.2     1  UNL1       -0.2680
      4  H         23.4930  -22.4510  -12.5240 H       1  UNL1        0.1630
      5  C         22.2710  -23.1710  -10.3490 C.2     1  UNL1        0.0320
      6  C         21.6440  -24.0100   -9.4180 C.2     1  UNL1        0.0170
      7  C         20.2660  -23.9060   -9.1970 C.2     1  UNL1        0.0100
      8  C         19.5010  -22.9590   -9.8930 C.2     1  UNL1       -0.0300
      9  C         20.1400  -22.1080  -10.8070 C.2     1  UNL1        0.0100
     10  C         21.5150  -22.2110  -11.0320 C.2     1  UNL1        0.0170
     11  C         18.0090  -22.8440   -9.6580 C.3     1  UNL1        0.3110
     12  N         17.6430  -22.6880   -8.2450 N.3     1  UNL1        0.0970
     13  C         16.9200  -23.8770   -7.7470 C.3     1  UNL1        0.2770
     14  C         17.2800  -24.3950   -6.3360 C.3     1  UNL1        0.0690
     15  C         17.6470  -23.2740   -5.4040 C.2     1  UNL1       -0.0490
     16  C         17.3190  -23.2840   -4.0460 C.2     1  UNL1        0.0070
     17  C         18.3970  -22.2160   -5.9440 C.2     1  UNL1       -0.0240
     18  C         17.7230  -22.2290   -3.2270 C.2     1  UNL1        0.0010
     19  C         18.4640  -21.1730   -3.7610 C.2     1  UNL1        0.0010
     20  C         18.8060  -21.1660   -5.1150 C.2     1  UNL1        0.0090
     21  C         18.7820  -22.2950   -7.4050 C.3     1  UNL1        0.3110
     22  C         25.5570  -22.8640  -12.2520 C.3     1  UNL1        0.1230
     23  C         25.8330  -23.5660  -13.5830 C.3     1  UNL1        0.0680
     24  C         25.5990  -22.6530  -14.8070 C.3     1  UNL1        0.0690
     25  O         26.3890  -21.4500  -14.7100 O.2     1  UNL1       -0.3400
     26  C         26.4670  -20.8500  -13.4850 C.2     1  UNL1        0.0780
     27  C         26.9910  -19.5560  -13.4860 C.2     1  UNL1        0.0370
     28  C         26.0860  -21.4540  -12.2830 C.2     1  UNL1       -0.0020
     29  C         27.1210  -18.8460  -12.2920 C.2     1  UNL1        0.0030
     30  C         26.7300  -19.4320  -11.0910 C.2     1  UNL1        0.0010
     31  C         26.2180  -20.7310  -11.0850 C.2     1  UNL1        0.0120
     32  C         26.0710  -23.3770  -16.1020 C.3     1  UNL1        0.0340
     33  C         26.6520  -22.4750  -17.1880 C.3     1  UNL1        0.0080
     34  C         24.0980  -22.2600  -14.9620 C.3     1  UNL1        0.0340
     35  C         23.7840  -20.7820  -14.7460 C.3     1  UNL1        0.0080
@<TRIPOS>BOND
     1    33    32    1
     2    32    24    1
     3    34    24    1
     4    34    35    1
     5    24    25    1
     6    24    23    1
     7    25    26    1
     8    23    22    1
     9    27    26    2
    10    27    29    1
    11    26    28    1
    12     4     1    1
    13    29    30    2
    14    28    22    1
    15    28    31    2
    16    22     1    1
    17     1     2   am
    18    30    31    1
    19    10     9    1
    20    10     5    2
    21     9     8    2
    22     2     5    1
    23     2     3    2
    24     5     6    1
    25     8    11    1
    26     8     7    1
    27    11    12    1
    28     6     7    2
    29    12    13    1
    30    12    21    1
    31    13    14    1
    32    21    17    1
    33    14    15    1
    34    17    15    2
    35    17    20    1
    36    15    16    1
    37    20    19    2
    38    16    18    2
    39    19    18    1
