@<TRIPOS>MOLECULE
75670_out_ligand_01.pdbqt
 33 35 0 0 0
SMALL
GASTEIGER

@<TRIPOS>ATOM
      1  C         19.9660  -22.9880  -10.1780 C.2     1  UNL1        0.2560
      2  O         20.5530  -24.0290   -9.9170 O.2     1  UNL1       -0.2670
      3  N         20.4360  -21.8990  -10.8830 N.am    1  UNL1       -0.3230
      4  H         19.8320  -21.0870  -10.9180 H       1  UNL1        0.1690
      5  C         18.5910  -22.8140   -9.6510 C.2     1  UNL1        0.0390
      6  C         18.3300  -23.3590   -8.3880 C.2     1  UNL1        0.0420
      7  C         17.0530  -23.2280   -7.8370 C.2     1  UNL1        0.0800
      8  C         16.0500  -22.5380   -8.5210 C.2     1  UNL1        0.0260
      9  C         16.3140  -22.0090   -9.7870 C.2     1  UNL1        0.0090
     10  C         17.5800  -22.1580  -10.3790 C.2     1  UNL1       -0.0460
     11  C         17.8080  -21.6060  -11.7590 C.3     1  UNL1        0.0490
     12  S         16.7410  -23.9020   -6.2290 S.O2    1  UNL1        0.2590
     13  O         17.4440  -25.1600   -6.1140 O.2     1  UNL1       -0.2010
     14  O         15.3120  -23.8230   -6.0190 O.2     1  UNL1       -0.2010
     15  N         17.4190  -22.7910   -5.1870 N.3     1  UNL1       -0.3070
     16  H         18.0620  -22.1470   -5.6460 H       1  UNL1        0.1730
     17  C         17.3480  -22.7650   -3.7130 C.3     1  UNL1        0.0290
     18  C         17.8960  -24.0820   -3.1530 C.3     1  UNL1        0.0380
     19  C         15.9430  -22.5000   -3.1720 C.3     1  UNL1        0.0380
     20  C         18.2670  -21.6160   -3.2560 C.3     1  UNL1        0.0380
     21  C         21.6880  -21.7690  -11.5190 C.2     1  UNL1        0.0370
     22  C         22.8290  -21.8930  -10.7130 C.2     1  UNL1        0.0320
     23  C         24.1090  -21.7760  -11.2640 C.2     1  UNL1        0.0410
     24  C         24.2570  -21.5210  -12.6230 C.2     1  UNL1        0.0960
     25  C         23.1250  -21.4010  -13.4330 C.2     1  UNL1        0.0700
     26  O         25.5360  -21.4630  -13.1040 O.2     1  UNL1       -0.3350
     27  C         21.8450  -21.5280  -12.8860 C.2     1  UNL1        0.0620
     28  N         23.2700  -21.2010  -14.8060 N.am    1  UNL1       -0.3230
     29  C         24.5020  -21.0220  -15.3770 C.2     1  UNL1        0.2510
     30  H         22.4730  -21.2490  -15.4260 H       1  UNL1        0.1690
     31  O         24.6330  -20.9510  -16.5970 O.2     1  UNL1       -0.2700
     32  C         25.6450  -20.8110  -14.3680 C.3     1  UNL1        0.2170
     33  C         26.9770  -21.2270  -14.9810 C.3     1  UNL1        0.0500
@<TRIPOS>BOND
     1    31    29    2
     2    30    28    1
     3    29    28   am
     4    29    32    1
     5    33    32    1
     6    28    25    1
     7    32    26    1
     8    25    27    1
     9    25    24    2
    10    26    24    1
    11    27    21    2
    12    24    23    1
    13    11    10    1
    14    21     3    1
    15    21    22    1
    16    23    22    2
    17     4     3    1
    18     3     1   am
    19    10     9    1
    20    10     5    2
    21     1     2    2
    22     1     5    1
    23     9     8    2
    24     5     6    1
    25     8     7    1
    26     6     7    2
    27     7    12    1
    28    12    13    2
    29    12    14    2
    30    12    15    1
    31    16    15    1
    32    15    17    1
    33    17    20    1
    34    17    19    1
    35    17    18    1
