@<TRIPOS>MOLECULE
75709_out_ligand_01.pdbqt
 34 37 0 0 0
SMALL
GASTEIGER

@<TRIPOS>ATOM
      1  C         21.4320  -23.2950   -9.4360 C.2     1  UNL1        0.0320
      2  C         20.5850  -22.2510   -9.8260 C.2     1  UNL1        0.0180
      3  C         19.2320  -22.2790   -9.4750 C.2     1  UNL1        0.0260
      4  C         18.7320  -23.3640   -8.7480 C.2     1  UNL1        0.0740
      5  C         19.5690  -24.4300   -8.3870 C.2     1  UNL1        0.0260
      6  C         20.9200  -24.3960   -8.7350 C.2     1  UNL1        0.0180
      7  C         22.8610  -23.3050   -9.8320 C.2     1  UNL1        0.2530
      8  N         23.2000  -23.0130  -11.1550 N.am    1  UNL1       -0.3480
      9  C         22.3840  -22.1890  -12.0400 C.3     1  UNL1        0.1530
     10  O         23.6790  -23.5970   -8.9620 O.2     1  UNL1       -0.2670
     11  C         24.6020  -23.2000  -11.5510 C.3     1  UNL1        0.1660
     12  C         25.2990  -21.9090  -11.9420 C.2     1  UNL1       -0.0190
     13  C         25.7170  -21.0110  -10.9370 C.2     1  UNL1        0.0110
     14  C         26.3900  -19.8320  -11.2550 C.2     1  UNL1        0.0010
     15  C         26.6710  -19.5370  -12.5820 C.2     1  UNL1        0.0020
     16  C         26.2920  -20.4260  -13.5860 C.2     1  UNL1        0.0240
     17  C         25.6220  -21.6330  -13.2900 C.2     1  UNL1        0.0180
     18  N         25.2410  -22.5360  -14.3020 N.pl3   1  UNL1       -0.2830
     19  C         24.3550  -21.8890  -15.2980 C.3     1  UNL1        0.0960
     20  C         24.7290  -22.5440  -16.6260 C.3     1  UNL1        0.0160
     21  C         26.2150  -22.8010  -16.4580 C.3     1  UNL1        0.0160
     22  C         26.3010  -23.2720  -15.0120 C.3     1  UNL1        0.0960
     23  S         17.0200  -23.4850   -8.2940 S.O2    1  UNL1        0.2450
     24  O         16.8660  -24.6590   -7.4670 O.2     1  UNL1       -0.2060
     25  O         16.2640  -23.3190   -9.5200 O.2     1  UNL1       -0.2060
     26  N         16.6990  -22.0750   -7.4030 N.pl3   1  UNL1       -0.1780
     27  H         15.8980  -21.6150   -7.8340 H       1  UNL1        0.1460
     28  C         16.6340  -22.2130   -5.9740 C.2     1  UNL1        0.0610
     29  C         15.3830  -22.3870   -5.3770 C.2     1  UNL1        0.0270
     30  C         15.2830  -22.5370   -3.9910 C.2     1  UNL1        0.0020
     31  C         16.4320  -22.5140   -3.1940 C.2     1  UNL1        0.0030
     32  C         17.6820  -22.3340   -3.7840 C.2     1  UNL1        0.0440
     33  C         17.7770  -22.1800   -5.1650 C.2     1  UNL1        0.1380
     34  F         18.9890  -21.9820   -5.7050 F       1  UNL1       -0.2040
@<TRIPOS>BOND
     1    20    21    1
     2    20    19    1
     3    21    22    1
     4    19    18    1
     5    22    18    1
     6    18    17    1
     7    16    17    1
     8    16    15    2
     9    17    12    2
    10    15    14    1
    11     9     8    1
    12    12    11    1
    13    12    13    1
    14    11     8    1
    15    14    13    2
    16     8     7   am
    17     7     1    1
    18     7    10    2
    19     2     3    1
    20     2     1    2
    21    25    23    2
    22     3     4    2
    23     1     6    1
    24     4     5    1
    25     4    23    1
    26     6     5    2
    27    23    24    2
    28    23    26    1
    29    27    26    1
    30    26    28    1
    31    28    29    2
    32    28    33    1
    33    34    33    1
    34    29    30    1
    35    33    32    2
    36    30    31    2
    37    32    31    1
