@<TRIPOS>MOLECULE
75706_out_ligand_01.pdbqt
 32 35 0 0 0
SMALL
GASTEIGER

@<TRIPOS>ATOM
      1  C         23.9170  -22.4640  -12.6060 C.2     1  UNL1        0.0970
      2  S         22.8470  -21.4010  -13.4050 S.3     1  UNL1       -0.0830
      3  C         23.8090  -21.3960  -14.8190 C.2     1  UNL1        0.0530
      4  C         24.8950  -22.2330  -14.7020 C.2     1  UNL1        0.0330
      5  C         24.9490  -22.8800  -13.4210 C.2     1  UNL1        0.0790
      6  C         25.9190  -23.8950  -13.1200 C.1     1  UNL1        0.1020
      7  N         26.6880  -24.7540  -12.9670 N.1     1  UNL1       -0.1910
      8  N         23.5160  -22.7150  -11.3110 N.am    1  UNL1       -0.3190
      9  C         23.9480  -21.9860  -10.2190 C.2     1  UNL1        0.2360
     10  O         24.7120  -21.0270  -10.2830 O.2     1  UNL1       -0.2720
     11  H         22.6670  -23.2700  -11.1960 H       1  UNL1        0.1690
     12  C         23.3890  -22.4930   -8.8830 C.3     1  UNL1        0.1430
     13  C         22.3910  -21.5020   -8.2850 C.3     1  UNL1        0.0310
     14  S         22.5250  -24.0890   -9.1350 S.3     1  UNL1       -0.0760
     15  C         20.8630  -23.4850   -9.2050 C.2     1  UNL1        0.1910
     16  N         20.0870  -23.7030   -8.1420 N.2     1  UNL1       -0.2040
     17  C         18.8210  -23.2530   -8.1960 C.3     1  UNL1        0.1430
     18  C         18.3300  -22.5580   -9.3190 C.2     1  UNL1        0.0390
     19  C         17.0220  -22.0200   -9.4360 C.2     1  UNL1        0.0180
     20  C         19.2350  -22.4010  -10.3780 C.2     1  UNL1        0.0730
     21  C         16.6200  -21.3590  -10.5950 C.2     1  UNL1        0.0010
     22  C         17.5160  -21.2240  -11.6460 C.2     1  UNL1        0.0020
     23  C         18.8070  -21.7430  -11.5260 C.2     1  UNL1        0.0320
     24  N         20.4910  -22.8610  -10.3340 N.pl3   1  UNL1       -0.2220
     25  N         17.9420  -23.4970   -7.1040 N.pl3   1  UNL1       -0.3400
     26  H         17.7450  -24.4900   -7.0600 H       1  UNL1        0.1670
     27  C         17.9610  -22.9340   -5.8060 C.2     1  UNL1        0.0330
     28  C         17.5630  -23.6340   -4.6610 C.2     1  UNL1        0.0290
     29  C         17.6600  -23.0550   -3.3890 C.2     1  UNL1        0.0020
     30  C         18.1830  -21.7750   -3.2420 C.2     1  UNL1        0.0000
     31  C         18.6250  -21.0790   -4.3640 C.2     1  UNL1        0.0020
     32  C         18.5250  -21.6600   -5.6320 C.2     1  UNL1        0.0290
@<TRIPOS>BOND
     1     3     4    2
     2     3     2    1
     3     4     5    1
     4     5     6    1
     5     5     1    2
     6     2     1    1
     7     6     7    3
     8     1     8    1
     9    22    23    2
    10    22    21    1
    11    23    20    1
    12     8    11    1
    13     8     9   am
    14    21    19    2
    15    20    24    1
    16    20    18    2
    17    24    15    1
    18    10     9    2
    19     9    12    1
    20    19    18    1
    21    18    17    1
    22    15    14    1
    23    15    16    2
    24    14    12    1
    25    12    13    1
    26    17    16    1
    27    17    25    1
    28    25    26    1
    29    25    27    1
    30    27    32    2
    31    27    28    1
    32    32    31    1
    33    28    29    2
    34    31    30    2
    35    29    30    1
