@<TRIPOS>MOLECULE
75760_out_ligand_01.pdbqt
 32 35 0 0 0
SMALL
GASTEIGER

@<TRIPOS>ATOM
      1  C         22.3980  -22.0740  -12.0800 C.2     1  UNL1        0.0340
      2  C         22.3310  -22.8310  -10.9080 C.2     1  UNL1        0.0300
      3  C         21.1400  -22.9100  -10.1770 C.2     1  UNL1        0.0190
      4  C         20.0130  -22.2140  -10.6070 C.2     1  UNL1        0.0320
      5  C         20.0660  -21.4480  -11.7760 C.2     1  UNL1        0.0190
      6  C         21.2570  -21.3820  -12.5060 C.2     1  UNL1        0.0300
      7  C         18.7500  -22.3380   -9.8370 C.2     1  UNL1        0.2560
      8  O         17.7500  -21.8040  -10.2960 O.2     1  UNL1       -0.2670
      9  N         18.8750  -23.0670   -8.6690 N.am    1  UNL1       -0.3220
     10  H         19.7800  -23.4770   -8.5080 H       1  UNL1        0.1690
     11  C         17.8950  -23.2890   -7.6650 C.2     1  UNL1        0.0460
     12  C         16.8240  -24.1630   -7.8830 C.2     1  UNL1        0.0300
     13  C         15.8360  -24.3420   -6.9200 C.2     1  UNL1        0.0030
     14  C         15.8990  -23.6390   -5.7220 C.2     1  UNL1        0.0120
     15  C         16.9630  -22.7720   -5.4550 C.2     1  UNL1       -0.0240
     16  C         17.0020  -22.0980   -4.2300 C.2     1  UNL1        0.0120
     17  C         17.9900  -22.5860   -6.4180 C.2     1  UNL1        0.0010
     18  C         18.0460  -21.2340   -3.9200 C.2     1  UNL1        0.0010
     19  C         19.0710  -21.0420   -4.8330 C.2     1  UNL1        0.0010
     20  C         19.0440  -21.7080   -6.0580 C.2     1  UNL1        0.0140
     21  N         23.5430  -21.9860  -12.8960 N.am    1  UNL1       -0.3270
     22  C         24.7990  -21.5410  -12.5400 C.2     1  UNL1        0.2310
     23  O         25.1100  -21.0530  -11.4570 O.2     1  UNL1       -0.2720
     24  H         23.4230  -22.2830  -13.8680 H       1  UNL1        0.1690
     25  C         25.8580  -21.7600  -13.6120 C.3     1  UNL1        0.1850
     26  S         25.7190  -20.5360  -14.9520 S.3     1  UNL1       -0.0810
     27  C         25.0430  -21.5440  -16.1810 C.2     1  UNL1        0.1910
     28  N         24.0570  -22.3950  -16.0010 N.2     1  UNL1       -0.1230
     29  N         23.8560  -23.0530  -17.1950 N.2     1  UNL1       -0.1430
     30  C         24.7470  -22.6030  -18.0510 C.2     1  UNL1        0.2350
     31  N         25.5070  -21.6340  -17.4550 N.pl3   1  UNL1       -0.3220
     32  C         26.5720  -20.9190  -18.1100 C.3     1  UNL1        0.1590
@<TRIPOS>BOND
     1    32    31    1
     2    30    31    1
     3    30    29    2
     4    31    27    1
     5    29    28    1
     6    27    28    2
     7    27    26    1
     8    26    25    1
     9    24    21    1
    10    25    22    1
    11    21    22   am
    12    21     1    1
    13    22    23    2
    14     6     1    2
    15     6     5    1
    16     1     2    1
    17     5     4    2
    18     2     3    2
    19     4     3    1
    20     4     7    1
    21     8     7    2
    22     7     9   am
    23     9    10    1
    24     9    11    1
    25    12    11    2
    26    12    13    1
    27    11    17    1
    28    13    14    2
    29    17    20    1
    30    17    15    2
    31    20    19    2
    32    14    15    1
    33    15    16    1
    34    19    18    1
    35    16    18    2
