@<TRIPOS>MOLECULE
75768_out_ligand_01.pdbqt
 26 28 0 0 0
SMALL
GASTEIGER

@<TRIPOS>ATOM
      1  N         17.8080  -23.6390   -7.0450 N.pl3   1  UNL1       -0.1810
      2  H         17.2790  -24.4210   -6.6220 H       1  UNL1        0.1460
      3  C         18.1780  -22.6740   -6.0380 C.2     1  UNL1        0.0380
      4  C         19.2010  -21.7690   -6.3340 C.2     1  UNL1        0.0250
      5  C         19.5310  -20.7620   -5.4250 C.2     1  UNL1        0.0020
      6  C         18.8400  -20.6520   -4.2200 C.2     1  UNL1        0.0010
      7  C         17.8140  -21.5490   -3.9160 C.2     1  UNL1        0.0190
      8  C         17.4710  -22.5570   -4.8280 C.2     1  UNL1        0.0540
      9  C         16.4050  -23.5390   -4.4960 C.2     1  UNL1        0.2530
     10  N         15.2120  -23.4000   -5.1770 N.am    1  UNL1       -0.3610
     11  C         14.1940  -24.4140   -5.0520 C.3     1  UNL1        0.1490
     12  H         15.2270  -22.8690   -6.0370 H       1  UNL1        0.1620
     13  O         16.6350  -24.4260   -3.6810 O.2     1  UNL1       -0.2680
     14  S         16.8160  -23.0300   -8.3010 S.O2    1  UNL1        0.2420
     15  O         16.1210  -21.8680   -7.7790 O.2     1  UNL1       -0.2060
     16  O         16.0530  -24.1670   -8.7740 O.2     1  UNL1       -0.2060
     17  C         17.9080  -22.5300   -9.5610 C.2     1  UNL1        0.0530
     18  C         19.2130  -22.8230   -9.4240 C.2     1  UNL1        0.0320
     19  C         20.1640  -22.4390  -10.4710 C.2     1  UNL1       -0.0290
     20  C         21.4620  -22.9610  -10.4710 C.2     1  UNL1        0.0120
     21  C         19.7780  -21.5320  -11.4740 C.2     1  UNL1       -0.0480
     22  C         22.3690  -22.5870  -11.4630 C.2     1  UNL1        0.0010
     23  C         21.9900  -21.6840  -12.4550 C.2     1  UNL1        0.0010
     24  C         20.7000  -21.1520  -12.4580 C.2     1  UNL1        0.0080
     25  C         18.4030  -20.9110  -11.4360 C.3     1  UNL1        0.0440
     26  C         17.3590  -21.8010  -10.7500 C.3     1  UNL1        0.0570
@<TRIPOS>BOND
     1    24    23    2
     2    24    21    1
     3    23    22    1
     4    21    25    1
     5    21    19    2
     6    22    20    2
     7    25    26    1
     8    26    17    1
     9    20    19    1
    10    19    18    1
    11    17    18    2
    12    17    14    1
    13    16    14    2
    14    14    15    2
    15    14     1    1
    16     1     2    1
    17     1     3    1
    18     4     3    2
    19     4     5    1
    20     3     8    1
    21    12    10    1
    22     5     6    2
    23    10    11    1
    24    10     9   am
    25     8     9    1
    26     8     7    2
    27     9    13    2
    28     6     7    1
