@<TRIPOS>MOLECULE
75781_out_ligand_01.pdbqt
 36 40 0 0 0
SMALL
GASTEIGER

@<TRIPOS>ATOM
      1  C         19.4900  -21.8520  -10.8030 C.2     1  UNL1        0.0330
      2  C         18.7780  -20.9160  -11.5690 C.2     1  UNL1        0.0170
      3  C         17.3960  -20.7850  -11.4100 C.2     1  UNL1        0.0030
      4  C         16.7170  -21.5940  -10.5000 C.2     1  UNL1        0.0250
      5  C         17.4280  -22.5360   -9.7510 C.2     1  UNL1        0.0750
      6  C         18.8120  -22.6720   -9.8950 C.2     1  UNL1        0.0410
      7  C         20.9570  -22.0430  -10.9750 C.2     1  UNL1        0.2560
      8  O         21.6090  -22.3800   -9.9970 O.2     1  UNL1       -0.2670
      9  N         21.4300  -21.7840  -12.2480 N.am    1  UNL1       -0.3230
     10  H         20.7840  -21.3600  -12.9030 H       1  UNL1        0.1690
     11  C         22.7490  -21.9650  -12.7190 C.2     1  UNL1        0.0370
     12  C         23.5410  -22.9110  -12.0520 C.2     1  UNL1        0.0320
     13  C         24.8650  -23.1330  -12.4430 C.2     1  UNL1        0.0420
     14  C         25.4020  -22.4270  -13.5170 C.2     1  UNL1        0.1020
     15  C         24.6240  -21.4770  -14.1790 C.2     1  UNL1        0.1040
     16  O         26.7240  -22.6460  -13.7950 O.2     1  UNL1       -0.3480
     17  C         23.3060  -21.2390  -13.7730 C.2     1  UNL1        0.0690
     18  O         25.1180  -20.6640  -15.1640 O.2     1  UNL1       -0.3480
     19  C         25.5290  -21.4010  -16.3140 C.3     1  UNL1        0.1780
     20  C         26.9260  -21.9790  -16.1420 C.3     1  UNL1        0.0530
     21  C         26.9270  -23.1140  -15.1300 C.3     1  UNL1        0.1780
     22  S         16.5670  -23.5940   -8.6110 S.O2    1  UNL1        0.2460
     23  O         15.4950  -24.2040   -9.3660 O.2     1  UNL1       -0.2060
     24  O         17.5500  -24.3910   -7.9080 O.2     1  UNL1       -0.2060
     25  N         15.8570  -22.4830   -7.5480 N.pl3   1  UNL1       -0.1790
     26  H         14.9070  -22.2880   -7.8850 H       1  UNL1        0.1460
     27  C         15.8640  -22.8350   -6.1530 C.2     1  UNL1        0.0520
     28  C         14.8630  -23.6610   -5.6360 C.2     1  UNL1        0.0270
     29  C         14.8570  -23.9660   -4.2790 C.2     1  UNL1        0.0030
     30  C         15.8430  -23.4400   -3.4470 C.2     1  UNL1        0.0140
     31  C         16.8490  -22.6060   -3.9680 C.2     1  UNL1       -0.0050
     32  C         17.8560  -22.0680   -3.1530 C.2     1  UNL1        0.0150
     33  C         16.8690  -22.2890   -5.3420 C.2     1  UNL1        0.0880
     34  C         18.8340  -21.2520   -3.7070 C.2     1  UNL1        0.0200
     35  C         18.7770  -21.0000   -5.0650 C.2     1  UNL1        0.1170
     36  N         17.8280  -21.5020   -5.8850 N.2     1  UNL1       -0.2580
@<TRIPOS>BOND
     1    19    20    1
     2    19    18    1
     3    20    21    1
     4    18    15    1
     5    21    16    1
     6    15    17    1
     7    15    14    2
     8    16    14    1
     9    17    11    2
    10    14    13    1
    11    10     9    1
    12    11     9    1
    13    11    12    1
    14    13    12    2
    15     9     7   am
    16     2     3    1
    17     2     1    2
    18     3     4    2
    19     7     1    1
    20     7     8    2
    21     1     6    1
    22     4     5    1
    23     6     5    2
    24     5    22    1
    25    23    22    2
    26    22    24    2
    27    22    25    1
    28    26    25    1
    29    25    27    1
    30    27    28    2
    31    27    33    1
    32    36    33    1
    33    36    35    2
    34    28    29    1
    35    33    31    2
    36    35    34    1
    37    29    30    2
    38    31    30    1
    39    31    32    1
    40    34    32    2
