@<TRIPOS>MOLECULE
75782_out_ligand_01.pdbqt
 34 37 0 0 0
SMALL
GASTEIGER

@<TRIPOS>ATOM
      1  C         21.0960  -21.8040  -11.6800 C.2     1  UNL1        0.0320
      2  C         21.9030  -22.5080  -10.7820 C.2     1  UNL1        0.0190
      3  C         23.2430  -22.7630  -11.0950 C.2     1  UNL1        0.0300
      4  C         23.7770  -22.3470  -12.3160 C.2     1  UNL1        0.0340
      5  C         22.9560  -21.6540  -13.2190 C.2     1  UNL1        0.0300
      6  C         21.6240  -21.3750  -12.9010 C.2     1  UNL1        0.0190
      7  C         19.6680  -21.5850  -11.3440 C.2     1  UNL1        0.2520
      8  N         19.0550  -22.6030  -10.6550 N.am    1  UNL1       -0.3490
      9  H         19.5220  -23.4950  -10.5500 H       1  UNL1        0.1630
     10  O         19.1070  -20.5510  -11.6870 O.2     1  UNL1       -0.2680
     11  C         17.6770  -22.5050  -10.2020 C.3     1  UNL1        0.1140
     12  C         17.0040  -21.2940  -10.8530 C.3     1  UNL1        0.0370
     13  C         17.6490  -22.5100   -8.6840 C.2     1  UNL1       -0.0350
     14  C         18.8050  -22.5380   -7.8950 C.2     1  UNL1        0.0100
     15  C         18.7160  -22.5620   -6.5020 C.2     1  UNL1        0.0080
     16  C         17.4710  -22.5680   -5.8610 C.2     1  UNL1       -0.0520
     17  C         16.3000  -22.5740   -6.6370 C.2     1  UNL1       -0.0510
     18  C         17.4200  -22.6410   -4.3550 C.3     1  UNL1        0.0390
     19  C         16.4030  -22.5360   -8.0350 C.2     1  UNL1        0.0170
     20  C         14.9320  -22.5620   -6.0010 C.3     1  UNL1        0.0390
     21  C         14.9500  -23.0280   -4.5450 C.3     1  UNL1        0.0050
     22  C         16.0470  -22.3090   -3.7720 C.3     1  UNL1        0.0050
     23  N         25.0940  -22.6170  -12.7260 N.am    1  UNL1       -0.3270
     24  C         25.5720  -23.7600  -13.3360 C.2     1  UNL1        0.2310
     25  O         24.9370  -24.7950  -13.5270 O.2     1  UNL1       -0.2720
     26  H         25.8070  -21.9380  -12.4470 H       1  UNL1        0.1690
     27  C         27.0120  -23.6390  -13.8100 C.3     1  UNL1        0.1850
     28  S         27.1210  -23.5390  -15.6180 S.3     1  UNL1       -0.0830
     29  C         26.3090  -22.0410  -15.9120 C.2     1  UNL1        0.1680
     30  N         26.5240  -20.9270  -15.2440 N.2     1  UNL1       -0.2350
     31  C         25.6620  -20.0120  -15.7960 C.2     1  UNL1        0.1360
     32  C         24.8960  -20.5930  -16.7830 C.2     1  UNL1        0.1120
     33  N         25.3300  -21.8900  -16.8570 N.pl3   1  UNL1       -0.3390
     34  C         24.8400  -22.8770  -17.7860 C.3     1  UNL1        0.1580
@<TRIPOS>BOND
     1    34    33    1
     2    33    32    1
     3    33    29    1
     4    32    31    2
     5    29    28    1
     6    29    30    2
     7    31    30    1
     8    28    27    1
     9    27    24    1
    10    25    24    2
    11    24    23   am
    12     5     6    1
    13     5     4    2
    14     6     1    2
    15    23    26    1
    16    23     4    1
    17     4     3    1
    18    10     7    2
    19     1     7    1
    20     1     2    1
    21     7     8   am
    22     3     2    2
    23    12    11    1
    24     8     9    1
    25     8    11    1
    26    11    13    1
    27    13    19    2
    28    13    14    1
    29    19    17    1
    30    14    15    2
    31    17    20    1
    32    17    16    2
    33    15    16    1
    34    20    21    1
    35    16    18    1
    36    21    22    1
    37    18    22    1
