@<TRIPOS>MOLECULE
75797_out_ligand_01.pdbqt
 34 37 0 0 0
SMALL
GASTEIGER

@<TRIPOS>ATOM
      1  O         21.6610  -22.1080   -9.0160 O.2     1  UNL1       -0.2670
      2  C         21.2550  -22.1010  -10.1740 C.2     1  UNL1        0.2570
      3  N         22.0240  -22.2230  -11.3120 N.am    1  UNL1       -0.3230
      4  H         21.5420  -22.1950  -12.2110 H       1  UNL1        0.1690
      5  C         23.4300  -22.3180  -11.3970 C.2     1  UNL1        0.0360
      6  C         24.3160  -21.6090  -10.5820 C.2     1  UNL1        0.0290
      7  C         25.7000  -21.7530  -10.7360 C.2     1  UNL1        0.0040
      8  C         26.2120  -22.6080  -11.7070 C.2     1  UNL1        0.0250
      9  C         25.3310  -23.3270  -12.5150 C.2     1  UNL1        0.0820
     10  C         23.9470  -23.1780  -12.3720 C.2     1  UNL1        0.0540
     11  S         25.9640  -24.3900  -13.7840 S.O2    1  UNL1        0.2640
     12  O         27.1210  -25.0710  -13.2380 O.2     1  UNL1       -0.2000
     13  O         24.8790  -25.1450  -14.3700 O.2     1  UNL1       -0.2000
     14  N         26.5770  -23.3280  -14.9090 N.3     1  UNL1       -0.2680
     15  H         27.5480  -23.0960  -14.7260 H       1  UNL1        0.1800
     16  C         25.9010  -22.7900  -15.9980 C.3     1  UNL1        0.1080
     17  N         25.9590  -23.2630  -17.1970 N.3     1  UNL1       -0.2760
     18  C         25.0690  -22.3970  -17.9970 C.3     1  UNL1        0.1510
     19  C         24.9150  -21.1160  -17.1940 C.3     1  UNL1        0.0290
     20  C         25.0190  -21.6060  -15.7690 C.3     1  UNL1        0.0800
     21  C         19.7790  -21.9810  -10.3720 C.2     1  UNL1        0.0460
     22  C         19.3510  -21.2430  -11.4870 C.2     1  UNL1        0.0180
     23  C         17.9910  -21.0990  -11.7740 C.2     1  UNL1        0.0010
     24  C         17.0370  -21.6990  -10.9550 C.2     1  UNL1        0.0010
     25  C         17.4420  -22.4500   -9.8530 C.2     1  UNL1        0.0160
     26  C         18.8090  -22.6020   -9.5710 C.2     1  UNL1        0.0300
     27  C         19.1660  -23.4110   -8.3970 C.2     1  UNL1        0.1930
     28  O         19.7640  -24.4620   -8.6140 O.2     1  UNL1       -0.2870
     29  C         18.8100  -22.9790   -7.0190 C.2     1  UNL1        0.0150
     30  C         19.2120  -21.7440   -6.4970 C.2     1  UNL1        0.0150
     31  C         18.8450  -21.3830   -5.1970 C.2     1  UNL1        0.0010
     32  C         18.0740  -22.2470   -4.4220 C.2     1  UNL1        0.0000
     33  C         17.6640  -23.4730   -4.9400 C.2     1  UNL1        0.0010
     34  C         18.0280  -23.8390   -6.2370 C.2     1  UNL1        0.0150
@<TRIPOS>BOND
     1    18    17    1
     2    18    19    1
     3    17    16    1
     4    19    20    1
     5    16    20    1
     6    16    14    1
     7    14    15    1
     8    14    11    1
     9    13    11    2
    10    11    12    2
    11    11     9    1
    12     9    10    1
    13     9     8    2
    14    10     5    2
    15     4     3    1
    16    23    22    1
    17    23    24    2
    18     8     7    1
    19    22    21    2
    20     5     3    1
    21     5     6    1
    22     3     2   am
    23    24    25    1
    24     7     6    2
    25    21     2    1
    26    21    26    1
    27     2     1    2
    28    25    26    2
    29    26    27    1
    30    28    27    2
    31    27    29    1
    32    29    30    2
    33    29    34    1
    34    30    31    1
    35    34    33    2
    36    31    32    2
    37    33    32    1
