@<TRIPOS>MOLECULE
75798_out_ligand_01.pdbqt
 34 37 0 0 0
SMALL
GASTEIGER

@<TRIPOS>ATOM
      1  C         21.5830  -23.1800   -8.7460 C.2     1  UNL1        0.0320
      2  C         21.0890  -22.1490   -7.9320 C.2     1  UNL1        0.0180
      3  C         19.9000  -22.3280   -7.2200 C.2     1  UNL1        0.0260
      4  C         19.2060  -23.5380   -7.3260 C.2     1  UNL1        0.0790
      5  C         19.6710  -24.5580   -8.1610 C.2     1  UNL1        0.0260
      6  C         20.8610  -24.3770   -8.8690 C.2     1  UNL1        0.0180
      7  C         22.8450  -23.0310   -9.5260 C.2     1  UNL1        0.2560
      8  N         22.7740  -22.1460  -10.5880 N.am    1  UNL1       -0.3230
      9  H         21.9250  -21.6030  -10.6780 H       1  UNL1        0.1690
     10  O         23.8300  -23.6570   -9.1560 O.2     1  UNL1       -0.2670
     11  C         23.7940  -21.8420  -11.5160 C.2     1  UNL1        0.0370
     12  C         25.1250  -21.6090  -11.1620 C.2     1  UNL1        0.0320
     13  C         26.0810  -21.3180  -12.1420 C.2     1  UNL1        0.0410
     14  C         25.7190  -21.2710  -13.4840 C.2     1  UNL1        0.0960
     15  O         26.7080  -20.9560  -14.3700 O.2     1  UNL1       -0.3350
     16  C         24.3940  -21.5030  -13.8460 C.2     1  UNL1        0.0700
     17  C         26.3900  -21.1610  -15.7440 C.3     1  UNL1        0.2170
     18  C         27.0640  -22.4540  -16.1950 C.3     1  UNL1        0.0500
     19  C         24.9170  -21.1890  -16.1780 C.2     1  UNL1        0.2510
     20  N         24.0110  -21.4260  -15.1840 N.am    1  UNL1       -0.3230
     21  O         24.5550  -21.0700  -17.3480 O.2     1  UNL1       -0.2700
     22  H         23.0430  -21.5070  -15.4620 H       1  UNL1        0.1690
     23  C         23.4340  -21.7860  -12.8700 C.2     1  UNL1        0.0620
     24  S         17.6820  -23.7470   -6.4320 S.O2    1  UNL1        0.2580
     25  O         17.5940  -25.1330   -6.0350 O.2     1  UNL1       -0.2010
     26  O         17.5670  -22.6660   -5.4790 O.2     1  UNL1       -0.2010
     27  N         16.5320  -23.5120   -7.6190 N.3     1  UNL1       -0.3130
     28  H         16.3150  -24.3320   -8.1860 H       1  UNL1        0.1720
     29  C         16.4160  -22.2090   -8.2880 C.3     1  UNL1        0.1640
     30  C         16.4440  -22.3900   -9.8120 C.3     1  UNL1        0.1400
     31  C         17.6470  -23.1730  -10.3340 C.3     1  UNL1        0.0350
     32  C         18.5250  -22.1130  -10.9520 C.3     1  UNL1        0.0290
     33  C         17.5120  -21.1020  -11.4330 C.3     1  UNL1        0.1680
     34  O         16.4720  -21.0900  -10.4470 O.3     1  UNL1       -0.3840
@<TRIPOS>BOND
     1    21    19    2
     2    18    17    1
     3    19    17    1
     4    19    20   am
     5    17    15    1
     6    22    20    1
     7    20    16    1
     8    15    14    1
     9    16    14    2
    10    16    23    1
    11    14    13    1
    12    23    11    2
    13    13    12    2
    14    11    12    1
    15    11     8    1
    16    33    32    1
    17    33    34    1
    18    32    31    1
    19     9     8    1
    20     8     7   am
    21    34    30    1
    22    31    30    1
    23    30    29    1
    24     7    10    2
    25     7     1    1
    26     6     1    2
    27     6     5    1
    28     1     2    1
    29    29    27    1
    30    28    27    1
    31     5     4    2
    32     2     3    2
    33    27    24    1
    34     4     3    1
    35     4    24    1
    36    24    25    2
    37    24    26    2
