@<TRIPOS>MOLECULE
75791_out_ligand_01.pdbqt
 34 37 0 0 0
SMALL
GASTEIGER

@<TRIPOS>ATOM
      1  C         21.4930  -23.2580   -9.7740 C.2     1  UNL1        0.0320
      2  C         22.8010  -23.5540   -9.3710 C.2     1  UNL1        0.0190
      3  C         23.8990  -23.1090  -10.1230 C.2     1  UNL1        0.0300
      4  C         23.7090  -22.3800  -11.2970 C.2     1  UNL1        0.0340
      5  C         22.4040  -22.1040  -11.7140 C.2     1  UNL1        0.0300
      6  C         21.3080  -22.5300  -10.9560 C.2     1  UNL1        0.0190
      7  C         20.2690  -23.6730   -9.0170 C.2     1  UNL1        0.2520
      8  N         19.2530  -22.7500   -8.8860 N.am    1  UNL1       -0.3490
      9  H         19.3520  -21.8150   -9.2480 H       1  UNL1        0.1630
     10  O         20.1860  -24.8140   -8.5660 O.2     1  UNL1       -0.2680
     11  C         18.0560  -23.0300   -8.0950 C.3     1  UNL1        0.1140
     12  C         16.8250  -22.4860   -8.8200 C.3     1  UNL1        0.0370
     13  C         18.1350  -22.4430   -6.6840 C.2     1  UNL1       -0.0250
     14  C         19.1380  -21.4910   -6.3940 C.2     1  UNL1        0.0100
     15  C         19.2390  -20.9080   -5.1330 C.2     1  UNL1        0.0020
     16  C         18.3390  -21.2580   -4.1360 C.2     1  UNL1        0.0120
     17  C         17.3120  -22.1790   -4.3860 C.2     1  UNL1       -0.0250
     18  C         16.4050  -22.4960   -3.3580 C.2     1  UNL1        0.0120
     19  C         17.1880  -22.7830   -5.6680 C.2     1  UNL1       -0.0180
     20  C         15.3660  -23.3960   -3.5680 C.2     1  UNL1        0.0010
     21  C         15.2180  -23.9910   -4.8130 C.2     1  UNL1        0.0010
     22  C         16.1120  -23.6880   -5.8460 C.2     1  UNL1        0.0130
     23  N         24.7500  -21.9190  -12.1260 N.am    1  UNL1       -0.3270
     24  C         25.7040  -20.9560  -11.8490 C.2     1  UNL1        0.2310
     25  O         25.8030  -20.3360  -10.7880 O.2     1  UNL1       -0.2720
     26  H         24.8170  -22.3560  -13.0330 H       1  UNL1        0.1690
     27  C         26.7450  -20.7500  -12.9410 C.3     1  UNL1        0.1850
     28  S         26.4150  -19.3010  -14.0080 S.3     1  UNL1       -0.0810
     29  C         25.6260  -20.0700  -15.3400 C.2     1  UNL1        0.1910
     30  N         24.7290  -21.0250  -15.2370 N.2     1  UNL1       -0.1230
     31  N         24.3770  -21.4050  -16.5100 N.2     1  UNL1       -0.1430
     32  C         25.0140  -20.6210  -17.3480 C.2     1  UNL1        0.2350
     33  N         25.8230  -19.7660  -16.6520 N.pl3   1  UNL1       -0.3220
     34  C         26.6600  -18.7500  -17.2250 C.3     1  UNL1        0.1590
@<TRIPOS>BOND
     1    32    33    1
     2    32    31    2
     3    34    33    1
     4    33    29    1
     5    31    30    1
     6    29    30    2
     7    29    28    1
     8    28    27    1
     9    26    23    1
    10    27    24    1
    11    23    24   am
    12    23     4    1
    13    24    25    2
    14     5     4    2
    15     5     6    1
    16     4     3    1
    17     6     1    2
    18     3     2    2
    19     1     2    1
    20     1     7    1
    21     9     8    1
    22     7     8   am
    23     7    10    2
    24     8    11    1
    25    12    11    1
    26    11    13    1
    27    13    14    2
    28    13    19    1
    29    14    15    1
    30    22    19    1
    31    22    21    2
    32    19    17    2
    33    15    16    2
    34    21    20    1
    35    17    16    1
    36    17    18    1
    37    20    18    2
