@<TRIPOS>MOLECULE
7579_out_ligand_01.pdbqt
 34 36 0 0 0
SMALL
GASTEIGER

@<TRIPOS>ATOM
      1  C         19.1130  -22.7140  -10.1000 C.2     1  UNL1        0.0740
      2  C         17.7490  -22.4120   -9.9940 C.2     1  UNL1        0.0390
      3  C         17.0280  -22.8110   -8.8680 C.2     1  UNL1        0.0280
      4  C         17.6710  -23.5420   -7.8660 C.2     1  UNL1        0.0800
      5  C         19.0350  -23.8470   -7.9670 C.2     1  UNL1        0.0350
      6  C         19.7690  -23.4470   -9.0950 C.2     1  UNL1       -0.0230
      7  C         21.2460  -23.7830   -9.1860 C.3     1  UNL1        0.0510
      8  C         22.1490  -22.6500   -8.6960 C.3     1  UNL1        0.1080
      9  C         22.9910  -22.0720   -9.8220 C.2     1  UNL1        0.2220
     10  O         23.7240  -21.1040   -9.6290 O.2     1  UNL1       -0.2730
     11  N         22.7980  -22.7370  -11.0260 N.am    1  UNL1       -0.3270
     12  H         22.1600  -23.5240  -11.0200 H       1  UNL1        0.1690
     13  C         23.3950  -22.4480  -12.2710 C.2     1  UNL1        0.0340
     14  C         22.7510  -21.4980  -13.0810 C.2     1  UNL1        0.0300
     15  C         23.2840  -21.1360  -14.3240 C.2     1  UNL1        0.0190
     16  C         24.4670  -21.7320  -14.7750 C.2     1  UNL1        0.0320
     17  C         25.1160  -22.6760  -13.9670 C.2     1  UNL1        0.0190
     18  C         24.5800  -23.0350  -12.7250 C.2     1  UNL1        0.0300
     19  C         25.0790  -21.3670  -16.0790 C.2     1  UNL1        0.2490
     20  N         24.4280  -20.4280  -16.8390 N.am    1  UNL1       -0.3660
     21  H         23.4510  -20.2100  -16.6910 H       1  UNL1        0.1590
     22  H         24.7890  -20.2950  -17.7760 H       1  UNL1        0.1590
     23  O         26.1070  -21.8990  -16.4790 O.2     1  UNL1       -0.2680
     24  O         19.8280  -22.3650  -11.2150 O.2     1  UNL1       -0.3550
     25  C         19.4880  -21.0640  -11.7010 C.3     1  UNL1        0.2100
     26  S         16.7750  -24.0120   -6.4030 S.O2    1  UNL1        0.2600
     27  O         15.4030  -24.2590   -6.8080 O.2     1  UNL1       -0.2000
     28  O         17.5480  -25.0440   -5.7420 O.2     1  UNL1       -0.2000
     29  N         16.8140  -22.6180   -5.4560 N.3     1  UNL1       -0.3070
     30  C         16.4910  -22.6840   -4.0170 C.3     1  UNL1        0.1350
     31  C         17.7370  -22.5400   -3.1540 C.3     1  UNL1        0.0210
     32  C         18.5360  -21.2960   -3.5280 C.3     1  UNL1        0.0030
     33  C         18.8680  -21.3020   -5.0170 C.3     1  UNL1        0.0210
     34  C         17.6150  -21.4520   -5.8720 C.3     1  UNL1        0.1350
@<TRIPOS>BOND
     1    22    20    1
     2    20    21    1
     3    20    19   am
     4    23    19    2
     5    19    16    1
     6    16    15    2
     7    16    17    1
     8    15    14    1
     9    17    18    2
    10    14    13    2
    11    18    13    1
    12    13    11    1
    13    25    24    1
    14    24     1    1
    15    11    12    1
    16    11     9   am
    17     1     2    2
    18     1     6    1
    19     2     3    1
    20     9    10    2
    21     9     8    1
    22     7     6    1
    23     7     8    1
    24     6     5    2
    25     3     4    2
    26     5     4    1
    27     4    26    1
    28    27    26    2
    29    26    28    2
    30    26    29    1
    31    34    29    1
    32    34    33    1
    33    29    30    1
    34    33    32    1
    35    30    31    1
    36    32    31    1
