@<TRIPOS>MOLECULE
7580_out_ligand_01.pdbqt
 31 34 0 0 0
SMALL
GASTEIGER

@<TRIPOS>ATOM
      1  C         18.9250  -21.8010  -11.4430 C.ar    1  UNL1        0.1970
      2  N         18.0030  -20.8710  -11.4550 N.ar    1  UNL1       -0.1220
      3  N         16.9410  -21.1910  -10.6250 N.ar    1  UNL1       -0.1270
      4  C         17.1330  -22.3480  -10.0260 C.ar    1  UNL1        0.2330
      5  S         18.6040  -23.1280  -10.4170 S.2     1  UNL1       -0.0150
      6  S         15.9950  -23.1530   -8.9440 S.O2    1  UNL1        0.2720
      7  O         15.3030  -24.1560   -9.7290 O.2     1  UNL1       -0.2030
      8  O         15.2380  -22.1120   -8.2770 O.2     1  UNL1       -0.2030
      9  N         16.8400  -23.9880   -7.7080 N.pl3   1  UNL1       -0.1790
     10  H         17.8320  -23.9290   -7.9430 H       1  UNL1        0.1460
     11  C         16.5770  -23.5120   -6.3730 C.2     1  UNL1        0.0340
     12  C         15.5030  -24.0440   -5.6550 C.2     1  UNL1        0.0250
     13  C         15.3010  -23.6700   -4.3320 C.2     1  UNL1        0.0030
     14  C         16.1710  -22.7650   -3.7230 C.2     1  UNL1        0.0120
     15  C         17.2490  -22.2100   -4.4300 C.2     1  UNL1       -0.0240
     16  C         18.1200  -21.3000   -3.8110 C.2     1  UNL1        0.0120
     17  C         17.4590  -22.5730   -5.7810 C.2     1  UNL1       -0.0040
     18  C         19.1850  -20.7330   -4.5130 C.2     1  UNL1        0.0010
     19  C         19.3890  -21.0650   -5.8470 C.2     1  UNL1        0.0010
     20  C         18.5360  -21.9740   -6.4750 C.2     1  UNL1        0.0140
     21  N         20.1160  -21.8850  -12.1120 N.am    1  UNL1       -0.3000
     22  C         21.3230  -21.7560  -11.4640 C.2     1  UNL1        0.2570
     23  O         21.4950  -21.5180  -10.2760 O.2     1  UNL1       -0.2670
     24  H         20.0680  -21.9630  -13.1150 H       1  UNL1        0.1710
     25  C         22.5180  -21.8860  -12.3450 C.2     1  UNL1        0.0320
     26  C         23.5590  -22.7260  -11.9340 C.2     1  UNL1        0.0170
     27  C         24.6990  -22.8720  -12.7270 C.2     1  UNL1        0.0070
     28  C         24.8120  -22.1820  -13.9400 C.2     1  UNL1       -0.0620
     29  C         26.0180  -22.3700  -14.8130 C.3     1  UNL1        0.0480
     30  C         23.7540  -21.3670  -14.3630 C.2     1  UNL1        0.0070
     31  C         22.6120  -21.2160  -13.5710 C.2     1  UNL1        0.0170
@<TRIPOS>BOND
     1    29    28    1
     2    30    28    2
     3    30    31    1
     4    28    27    1
     5    31    25    2
     6    24    21    1
     7    27    26    2
     8    25    26    1
     9    25    22    1
    10    21    22   am
    11    21     1    1
    12    22    23    2
    13     2     1   ar
    14     2     3   ar
    15     1     5   ar
    16     3     4   ar
    17     5     4   ar
    18     4     6    1
    19     7     6    2
    20     6     8    2
    21     6     9    1
    22    10     9    1
    23     9    11    1
    24    20    19    2
    25    20    17    1
    26    11    17    2
    27    11    12    1
    28    19    18    1
    29    17    15    1
    30    12    13    2
    31    18    16    2
    32    15    16    1
    33    15    14    2
    34    13    14    1
