@<TRIPOS>MOLECULE
75802_out_ligand_01.pdbqt
 28 30 0 0 0
SMALL
GASTEIGER

@<TRIPOS>ATOM
      1  C         21.2140  -22.7930   -9.2410 C.2     1  UNL1        0.2510
      2  O         21.8640  -22.5340   -8.2330 O.2     1  UNL1       -0.2680
      3  N         20.0180  -23.4770   -9.2170 N.am    1  UNL1       -0.3560
      4  H         19.7140  -23.9280  -10.0700 H       1  UNL1        0.1620
      5  C         19.5080  -24.0440   -7.9770 C.3     1  UNL1        0.1370
      6  C         18.1330  -23.4340   -7.5450 C.3     1  UNL1        0.0030
      7  C         17.6290  -22.4650   -8.6650 C.3     1  UNL1        0.0160
      8  C         16.7720  -23.1600   -9.7190 C.3     1  UNL1        0.0010
      9  C         15.5000  -23.7490   -9.1080 C.3     1  UNL1        0.0000
     10  C         15.6890  -24.2260   -7.6680 C.3     1  UNL1        0.0010
     11  C         17.1370  -24.6330   -7.4030 C.3     1  UNL1        0.0160
     12  C         18.3280  -22.5910   -6.2580 C.2     1  UNL1       -0.0480
     13  C         17.7150  -22.9980   -5.0540 C.2     1  UNL1        0.0080
     14  C         17.8530  -22.2590   -3.8760 C.2     1  UNL1        0.0010
     15  C         18.6140  -21.0970   -3.8690 C.2     1  UNL1        0.0000
     16  C         19.2410  -20.6800   -5.0390 C.2     1  UNL1        0.0010
     17  C         19.1030  -21.4200   -6.2190 C.2     1  UNL1        0.0080
     18  C         21.7330  -22.4030  -10.5830 C.2     1  UNL1        0.0330
     19  C         20.9590  -21.6840  -11.5030 C.2     1  UNL1        0.0170
     20  C         21.4930  -21.3370  -12.7450 C.2     1  UNL1        0.0020
     21  C         22.8000  -21.7030  -13.0690 C.2     1  UNL1        0.0170
     22  C         23.5870  -22.4160  -12.1560 C.2     1  UNL1        0.0320
     23  C         23.0540  -22.7520  -10.9060 C.2     1  UNL1        0.0340
     24  C         24.9790  -22.7660  -12.5550 C.2     1  UNL1        0.2490
     25  N         25.4600  -23.9960  -12.2040 N.am    1  UNL1       -0.3660
     26  H         24.8890  -24.7440  -11.8400 H       1  UNL1        0.1590
     27  H         26.3780  -24.2370  -12.5570 H       1  UNL1        0.1590
     28  O         25.6720  -21.9920  -13.2040 O.2     1  UNL1       -0.2680
@<TRIPOS>BOND
     1    28    24    2
     2    21    20    2
     3    21    22    1
     4    20    19    1
     5    27    25    1
     6    24    25   am
     7    24    22    1
     8    25    26    1
     9    22    23    2
    10    19    18    2
    11    23    18    1
    12    18     1    1
    13     4     3    1
    14     8     9    1
    15     8     7    1
    16     1     3   am
    17     1     2    2
    18     3     5    1
    19     9    10    1
    20     7     6    1
    21     5     6    1
    22    10    11    1
    23     6    11    1
    24     6    12    1
    25    12    17    2
    26    12    13    1
    27    17    16    1
    28    13    14    2
    29    16    15    2
    30    14    15    1
