@<TRIPOS>MOLECULE
75824_out_ligand_01.pdbqt
 38 41 0 0 0
SMALL
GASTEIGER

@<TRIPOS>ATOM
      1  C         18.7080  -21.8780   -5.6400 C.2     1  UNL1        0.0910
      2  C         19.8120  -21.0580   -5.8980 C.2     1  UNL1        0.0390
      3  C         20.7270  -21.3930   -6.9040 C.2     1  UNL1        0.0200
      4  C         20.5570  -22.5520   -7.6680 C.2     1  UNL1        0.0340
      5  C         19.4460  -23.3660   -7.4380 C.2     1  UNL1        0.0440
      6  C         18.5350  -23.0270   -6.4230 C.2     1  UNL1        0.1080
      7  C         21.5550  -22.8550   -8.7350 C.2     1  UNL1        0.2560
      8  O         21.8870  -24.0240   -8.8960 O.2     1  UNL1       -0.2670
      9  N         21.9880  -21.7650   -9.4680 N.am    1  UNL1       -0.3230
     10  H         21.5270  -20.8800   -9.3020 H       1  UNL1        0.1690
     11  C         22.9550  -21.7570  -10.4970 C.2     1  UNL1        0.0370
     12  C         24.3010  -21.7100  -10.1070 C.2     1  UNL1        0.0320
     13  C         25.3230  -21.7090  -11.0600 C.2     1  UNL1        0.0410
     14  C         25.0070  -21.7430  -12.4140 C.2     1  UNL1        0.0960
     15  C         23.6700  -21.7980  -12.8120 C.2     1  UNL1        0.0700
     16  O         26.0550  -21.7840  -13.2920 O.2     1  UNL1       -0.3350
     17  C         22.6460  -21.8100  -11.8600 C.2     1  UNL1        0.0620
     18  N         23.3500  -21.8920  -14.1670 N.am    1  UNL1       -0.3230
     19  C         24.3160  -21.8330  -15.1370 C.2     1  UNL1        0.2510
     20  H         22.4000  -22.0690  -14.4660 H       1  UNL1        0.1690
     21  O         24.0410  -22.0200  -16.3190 O.2     1  UNL1       -0.2700
     22  C         25.7040  -21.4090  -14.6220 C.3     1  UNL1        0.2170
     23  C         26.7940  -21.9390  -15.5470 C.3     1  UNL1        0.0500
     24  S         17.1500  -24.1060   -6.1470 S.O2    1  UNL1        0.2440
     25  O         17.0680  -24.3550   -4.7250 O.2     1  UNL1       -0.2060
     26  O         17.2500  -25.1970   -7.0950 O.2     1  UNL1       -0.2060
     27  N         15.8150  -23.1740   -6.5890 N.3     1  UNL1       -0.2150
     28  H         15.3660  -22.8000   -5.7480 H       1  UNL1        0.1390
     29  C         15.9850  -22.2080   -7.6920 C.3     1  UNL1        0.1100
     30  C         15.9000  -22.9470   -9.0260 C.3     1  UNL1        0.0740
     31  C         16.8930  -22.3860  -10.0070 C.2     1  UNL1        0.0350
     32  C         18.0590  -23.0810  -10.3180 C.2     1  UNL1        0.0270
     33  C         18.9550  -22.5160  -11.2210 C.2     1  UNL1        0.0030
     34  C         18.6680  -21.2800  -11.7850 C.2     1  UNL1        0.0190
     35  C         17.4890  -20.6540  -11.4200 C.2     1  UNL1        0.1170
     36  N         16.6000  -21.1770  -10.5460 N.2     1  UNL1       -0.2660
     37  O         17.7560  -21.6040   -4.6960 O.2     1  UNL1       -0.3540
     38  C         18.1980  -21.4130   -3.3560 C.3     1  UNL1        0.2100
@<TRIPOS>BOND
     1    21    19    2
     2    23    22    1
     3    19    22    1
     4    19    18   am
     5    22    16    1
     6    20    18    1
     7    18    15    1
     8    16    14    1
     9    15    14    2
    10    15    17    1
    11    14    13    1
    12    17    11    2
    13    34    35    2
    14    34    33    1
    15    35    36    1
    16    33    32    2
    17    13    12    2
    18    36    31    2
    19    11    12    1
    20    11     9    1
    21    32    31    1
    22    31    30    1
    23     9    10    1
    24     9     7   am
    25    30    29    1
    26     8     7    2
    27     7     4    1
    28    29    27    1
    29     4     5    2
    30     4     3    1
    31     5     6    1
    32    26    24    2
    33     3     2    2
    34    27    24    1
    35    27    28    1
    36     6    24    1
    37     6     1    2
    38    24    25    2
    39     2     1    1
    40     1    37    1
    41    37    38    1
