@<TRIPOS>MOLECULE
75828_out_ligand_01.pdbqt
 34 37 0 0 0
SMALL
GASTEIGER

@<TRIPOS>ATOM
      1  C         20.1860  -21.8380   -6.8290 C.2     1  UNL1        0.0330
      2  C         20.0280  -20.9220   -5.7760 C.2     1  UNL1        0.0170
      3  C         18.8720  -20.9300   -4.9920 C.2     1  UNL1        0.0030
      4  C         17.8600  -21.8510   -5.2530 C.2     1  UNL1        0.0250
      5  C         18.0110  -22.7560   -6.3080 C.2     1  UNL1        0.0800
      6  C         19.1620  -22.7530   -7.1040 C.2     1  UNL1        0.0420
      7  C         21.4390  -21.7750   -7.6400 C.2     1  UNL1        0.2560
      8  N         21.4240  -22.5040   -8.8170 N.am    1  UNL1       -0.3230
      9  H         20.6180  -23.0900   -8.9890 H       1  UNL1        0.1690
     10  O         22.3760  -21.1210   -7.1980 O.2     1  UNL1       -0.2670
     11  C         22.4500  -22.5880   -9.7850 C.2     1  UNL1        0.0370
     12  C         23.6850  -23.2050   -9.5610 C.2     1  UNL1        0.0320
     13  C         24.6520  -23.2480  -10.5720 C.2     1  UNL1        0.0410
     14  C         24.4010  -22.6580  -11.8050 C.2     1  UNL1        0.0960
     15  O         25.3750  -22.7780  -12.7580 O.2     1  UNL1       -0.3350
     16  C         23.1720  -22.0400  -12.0370 C.2     1  UNL1        0.0700
     17  C         25.2620  -21.8300  -13.8170 C.3     1  UNL1        0.2170
     18  C         26.0810  -22.3560  -14.9900 C.3     1  UNL1        0.0500
     19  C         23.8430  -21.4560  -14.2800 C.2     1  UNL1        0.2510
     20  N         22.8960  -21.4900  -13.2900 N.am    1  UNL1       -0.3230
     21  O         23.5590  -21.0680  -15.4110 O.2     1  UNL1       -0.2700
     22  H         21.9710  -21.1600  -13.5300 H       1  UNL1        0.1690
     23  C         22.1990  -22.0060  -11.0360 C.2     1  UNL1        0.0620
     24  S         16.7350  -23.9460   -6.6280 S.O2    1  UNL1        0.2590
     25  O         15.4720  -23.3650   -6.2260 O.2     1  UNL1       -0.2010
     26  O         17.2010  -25.2150   -6.1220 O.2     1  UNL1       -0.2010
     27  N         16.7420  -24.0460   -8.2920 N.3     1  UNL1       -0.3090
     28  H         16.6950  -25.0010   -8.6500 H       1  UNL1        0.1720
     29  C         16.0150  -23.0280   -9.0430 C.3     1  UNL1        0.1970
     30  C         16.9590  -22.4420  -10.0270 C.2     1  UNL1        0.0700
     31  C         18.1640  -22.8600  -10.5540 C.2     1  UNL1        0.0360
     32  C         18.5690  -21.8560  -11.4670 C.2     1  UNL1        0.0270
     33  C         17.5860  -20.8950  -11.4430 C.2     1  UNL1        0.1420
     34  O         16.6010  -21.2430  -10.5740 O.2     1  UNL1       -0.3250
@<TRIPOS>BOND
     1    21    19    2
     2    18    17    1
     3    19    17    1
     4    19    20   am
     5    17    15    1
     6    22    20    1
     7    20    16    1
     8    15    14    1
     9    16    14    2
    10    16    23    1
    11    14    13    1
    12    32    33    2
    13    32    31    1
    14    33    34    1
    15    23    11    2
    16    34    30    1
    17    13    12    2
    18    31    30    2
    19    30    29    1
    20    11    12    1
    21    11     8    1
    22    29    27    1
    23     9     8    1
    24     8     7   am
    25    28    27    1
    26    27    24    1
    27     7    10    2
    28     7     1    1
    29     6     1    2
    30     6     5    1
    31     1     2    1
    32    24     5    1
    33    24    25    2
    34    24    26    2
    35     5     4    2
    36     2     3    2
    37     4     3    1
