@<TRIPOS>MOLECULE
7582_out_ligand_01.pdbqt
 34 36 0 0 0
SMALL
GASTEIGER

@<TRIPOS>ATOM
      1  C         21.3450  -21.6010  -10.7760 C.2     1  UNL1        0.0330
      2  C         20.7850  -20.8290  -11.7970 C.2     1  UNL1        0.0170
      3  C         19.3940  -20.7220  -11.9110 C.2     1  UNL1        0.0090
      4  C         18.5320  -21.3950  -11.0240 C.2     1  UNL1       -0.0390
      5  C         17.0510  -21.2110  -11.2100 C.3     1  UNL1        0.0500
      6  C         19.1060  -22.1930  -10.0170 C.2     1  UNL1        0.0860
      7  C         20.5040  -22.2870   -9.8950 C.2     1  UNL1        0.0420
      8  C         22.8180  -21.7470  -10.6030 C.2     1  UNL1        0.2520
      9  N         23.4960  -22.3640  -11.6320 N.am    1  UNL1       -0.3480
     10  H         23.0060  -22.5720  -12.4880 H       1  UNL1        0.1630
     11  O         23.3510  -21.3150   -9.5880 O.2     1  UNL1       -0.2680
     12  C         24.9550  -22.4580  -11.6580 C.3     1  UNL1        0.1160
     13  C         25.3730  -23.7130  -12.4280 C.3     1  UNL1        0.0370
     14  C         25.6010  -21.2190  -12.2730 C.2     1  UNL1       -0.0030
     15  C         26.5460  -20.4560  -11.5570 C.2     1  UNL1        0.0120
     16  C         27.1210  -19.3130  -12.1130 C.2     1  UNL1        0.0010
     17  C         26.7520  -18.9020  -13.3880 C.2     1  UNL1        0.0030
     18  C         25.8020  -19.6290  -14.1080 C.2     1  UNL1        0.0370
     19  C         25.2210  -20.7820  -13.5600 C.2     1  UNL1        0.0760
     20  O         24.2540  -21.5250  -14.1900 O.2     1  UNL1       -0.3550
     21  C         24.4560  -21.8340  -15.5630 C.3     1  UNL1        0.2100
     22  S         18.1520  -23.1220   -8.8220 S.O2    1  UNL1        0.2630
     23  O         18.9980  -24.0560   -8.1130 O.2     1  UNL1       -0.2000
     24  O         16.9670  -23.5970   -9.5070 O.2     1  UNL1       -0.2000
     25  N         17.6230  -21.9170   -7.7680 N.pl3   1  UNL1       -0.2800
     26  H         17.0040  -21.2410   -8.2160 H       1  UNL1        0.1790
     27  C         17.3940  -22.2430   -6.4040 C.2     1  UNL1        0.0490
     28  C         16.2610  -22.9970   -6.0840 C.2     1  UNL1        0.0370
     29  C         15.9540  -23.2910   -4.7490 C.2     1  UNL1       -0.0600
     30  C         14.7440  -24.1110   -4.4140 C.3     1  UNL1        0.0480
     31  C         16.8160  -22.8460   -3.7440 C.2     1  UNL1        0.0070
     32  C         17.9540  -22.1000   -4.0650 C.2     1  UNL1        0.0090
     33  C         18.2590  -21.7900   -5.3980 C.2     1  UNL1       -0.0350
     34  C         19.4740  -20.9630   -5.7060 C.3     1  UNL1        0.0500
@<TRIPOS>BOND
     1    21    20    1
     2    20    19    1
     3    18    19    1
     4    18    17    2
     5    19    14    2
     6    17    16    1
     7    10     9    1
     8    13    12    1
     9    14    12    1
    10    14    15    1
    11    16    15    2
    12     3     2    1
    13     3     4    2
    14     2     1    2
    15    12     9    1
    16     9     8   am
    17     5     4    1
    18     4     6    1
    19     1     8    1
    20     1     7    1
    21     8    11    2
    22     6     7    2
    23     6    22    1
    24    24    22    2
    25    22    23    2
    26    22    25    1
    27    26    25    1
    28    25    27    1
    29    27    28    2
    30    27    33    1
    31    28    29    1
    32    34    33    1
    33    33    32    2
    34    29    30    1
    35    29    31    2
    36    32    31    1
