@<TRIPOS>MOLECULE
75825_out_ligand_01.pdbqt
 37 40 0 0 0
SMALL
GASTEIGER

@<TRIPOS>ATOM
      1  C         20.0960  -21.4000  -11.8270 C.2     1  UNL1        0.0360
      2  C         18.7480  -21.2190  -12.1240 C.2     1  UNL1        0.0300
      3  C         17.7590  -21.7390  -11.2810 C.2     1  UNL1        0.0100
      4  C         18.0830  -22.4650  -10.1230 C.2     1  UNL1       -0.0390
      5  C         16.9540  -22.9480   -9.2580 C.3     1  UNL1        0.0500
      6  C         19.4440  -22.6640   -9.8370 C.2     1  UNL1        0.0870
      7  C         20.4360  -22.1230  -10.6810 C.2     1  UNL1        0.0550
      8  N         21.1560  -20.8910  -12.6070 N.am    1  UNL1       -0.3270
      9  C         22.3470  -21.5200  -12.9250 C.2     1  UNL1        0.2240
     10  O         22.7170  -22.6220  -12.5330 O.2     1  UNL1       -0.2730
     11  H         21.0030  -19.9730  -13.0090 H       1  UNL1        0.1690
     12  C         23.2380  -20.6690  -13.8080 C.3     1  UNL1        0.1340
     13  C         24.6340  -21.3030  -13.9890 C.3     1  UNL1        0.1340
     14  C         24.8010  -21.7370  -15.4420 C.2     1  UNL1       -0.0240
     15  C         24.2650  -22.9480  -15.9070 C.2     1  UNL1        0.0100
     16  C         25.4520  -20.8810  -16.3430 C.2     1  UNL1       -0.0260
     17  C         24.3550  -23.2840  -17.2570 C.2     1  UNL1        0.0010
     18  C         24.9810  -22.4190  -18.1520 C.2     1  UNL1        0.0010
     19  C         25.5320  -21.2210  -17.6970 C.2     1  UNL1        0.0120
     20  C         26.0760  -19.6630  -15.8350 C.2     1  UNL1        0.0290
     21  C         26.1990  -19.4610  -14.5180 C.2     1  UNL1        0.0950
     22  N         25.6720  -20.3220  -13.5590 N.am    1  UNL1       -0.3190
     23  C         26.0070  -20.1170  -12.2150 C.2     1  UNL1        0.2200
     24  C         25.4910  -21.1220  -11.2110 C.3     1  UNL1        0.1170
     25  O         26.7150  -19.1830  -11.8270 O.2     1  UNL1       -0.2730
     26  S         20.0450  -23.5510   -8.4020 S.O2    1  UNL1        0.2630
     27  O         20.2880  -24.9150   -8.8270 O.2     1  UNL1       -0.2000
     28  O         21.0840  -22.7900   -7.7440 O.2     1  UNL1       -0.2000
     29  N         18.6870  -23.6190   -7.3920 N.pl3   1  UNL1       -0.2780
     30  H         17.8250  -23.6570   -7.9370 H       1  UNL1        0.1790
     31  C         18.6520  -22.7630   -6.2490 C.2     1  UNL1        0.0810
     32  C         19.2190  -21.4910   -6.2940 C.2     1  UNL1        0.0330
     33  C         19.1390  -20.6550   -5.1770 C.2     1  UNL1        0.0020
     34  C         18.4900  -21.0890   -4.0170 C.2     1  UNL1        0.0030
     35  C         17.9220  -22.3630   -3.9680 C.2     1  UNL1        0.0440
     36  C         18.0080  -23.1910   -5.0830 C.2     1  UNL1        0.1430
     37  F         17.4610  -24.4150   -5.0370 F       1  UNL1       -0.2040
@<TRIPOS>BOND
     1    18    19    2
     2    18    17    1
     3    19    16    1
     4    17    15    2
     5    16    20    1
     6    16    14    2
     7    15    14    1
     8    20    21    2
     9    14    13    1
    10    21    22    1
    11    13    12    1
    12    13    22    1
    13    12     9    1
    14    22    23   am
    15    11     8    1
    16     9     8   am
    17     9    10    2
    18     8     1    1
    19    23    25    2
    20    23    24    1
    21     2     1    2
    22     2     3    1
    23     1     7    1
    24     3     4    2
    25     7     6    2
    26     4     6    1
    27     4     5    1
    28     6    26    1
    29    27    26    2
    30    26    28    2
    31    26    29    1
    32    30    29    1
    33    29    31    1
    34    32    31    2
    35    32    33    1
    36    31    36    1
    37    33    34    2
    38    36    37    1
    39    36    35    2
    40    34    35    1
