@<TRIPOS>MOLECULE
75827_out_ligand_01.pdbqt
 34 37 0 0 0
SMALL
GASTEIGER

@<TRIPOS>ATOM
      1  C         19.4180  -21.9280   -6.1020 C.2     1  UNL1        0.0340
      2  C         19.6690  -20.7130   -5.4550 C.2     1  UNL1        0.0170
      3  C         18.9810  -20.3960   -4.2840 C.2     1  UNL1        0.0030
      4  C         18.0400  -21.2860   -3.7620 C.2     1  UNL1        0.0300
      5  C         17.7640  -22.4900   -4.4160 C.2     1  UNL1        0.0430
      6  C         18.4820  -22.8230   -5.5660 C.2     1  UNL1        0.0470
      7  C         20.1500  -22.3320   -7.3330 C.2     1  UNL1        0.2520
      8  O         21.2950  -21.9380   -7.5220 O.2     1  UNL1       -0.2680
      9  N         19.4830  -23.1780   -8.1870 N.am    1  UNL1       -0.3530
     10  H         18.6540  -23.6620   -7.8690 H       1  UNL1        0.1630
     11  C         20.1300  -23.6840   -9.3790 C.3     1  UNL1        0.1620
     12  C         20.0310  -22.6770  -10.4990 C.2     1  UNL1       -0.0330
     13  C         18.7700  -22.1240  -10.7930 C.2     1  UNL1        0.0090
     14  C         18.6230  -21.1580  -11.7870 C.2     1  UNL1        0.0010
     15  C         19.7340  -20.7210  -12.4990 C.2     1  UNL1        0.0010
     16  C         20.9930  -21.2490  -12.2150 C.2     1  UNL1        0.0090
     17  C         21.1630  -22.2280  -11.2160 C.2     1  UNL1       -0.0220
     18  C         22.5590  -22.7660  -10.9540 C.3     1  UNL1        0.3110
     19  N         23.6190  -21.9220  -11.5310 N.3     1  UNL1        0.0920
     20  C         24.7760  -21.7560  -10.6390 C.3     1  UNL1        0.2730
     21  C         25.6350  -22.9940  -10.8420 C.3     1  UNL1        0.0320
     22  C         25.2880  -23.4840  -12.2420 C.3     1  UNL1        0.0320
     23  C         24.1930  -22.5450  -12.7340 C.3     1  UNL1        0.2730
     24  N         16.8630  -23.4640   -3.8800 N.pl3   1  UNL1       -0.2810
     25  H         17.2390  -24.4070   -3.7920 H       1  UNL1        0.1790
     26  S         15.2570  -23.4570   -4.4160 S.O2    1  UNL1        0.2630
     27  O         14.6300  -24.7100   -4.0550 O.2     1  UNL1       -0.2000
     28  O         14.6700  -22.1820   -4.0560 O.2     1  UNL1       -0.2000
     29  C         15.5010  -23.4610   -6.1760 C.2     1  UNL1        0.0790
     30  C         15.7080  -24.6790   -6.8320 C.2     1  UNL1        0.0250
     31  C         15.9000  -24.6890   -8.2130 C.2     1  UNL1        0.0020
     32  C         15.8750  -23.4910   -8.9300 C.2     1  UNL1        0.0000
     33  C         15.6560  -22.2790   -8.2710 C.2     1  UNL1        0.0020
     34  C         15.4640  -22.2600   -6.8900 C.2     1  UNL1        0.0250
@<TRIPOS>BOND
     1    23    22    1
     2    23    19    1
     3    15    16    2
     4    15    14    1
     5    22    21    1
     6    16    17    1
     7    14    13    2
     8    19    18    1
     9    19    20    1
    10    17    18    1
    11    17    12    2
    12    21    20    1
    13    13    12    1
    14    12    11    1
    15    11     9    1
    16    32    33    2
    17    32    31    1
    18    33    34    1
    19    31    30    2
    20     9    10    1
    21     9     7   am
    22     8     7    2
    23     7     1    1
    24    34    29    2
    25    30    29    1
    26    29    26    1
    27     1     6    2
    28     1     2    1
    29     6     5    1
    30     2     3    2
    31     5    24    1
    32     5     4    2
    33    26    28    2
    34    26    27    2
    35    26    24    1
    36     3     4    1
    37    24    25    1
