@<TRIPOS>MOLECULE
75837_out_ligand_01.pdbqt
 35 38 0 0 0
SMALL
GASTEIGER

@<TRIPOS>ATOM
      1  C         24.1320  -22.0620  -13.2750 C.2     1  UNL1        0.0250
      2  C         23.9710  -22.8630  -12.1420 C.2     1  UNL1        0.0250
      3  C         22.7670  -22.8460  -11.4340 C.2     1  UNL1        0.0190
      4  C         21.7250  -22.0090  -11.8530 C.2     1  UNL1        0.0320
      5  C         21.8860  -21.2080  -12.9900 C.2     1  UNL1        0.0190
      6  C         23.0940  -21.2230  -13.6910 C.2     1  UNL1        0.0250
      7  C         20.4270  -21.9620  -11.1270 C.2     1  UNL1        0.2560
      8  O         19.4610  -21.4670  -11.6960 O.2     1  UNL1       -0.2670
      9  N         20.4660  -22.4690   -9.8410 N.am    1  UNL1       -0.3230
     10  H         21.3790  -22.7120   -9.4740 H       1  UNL1        0.1690
     11  C         19.3890  -22.5960   -8.9390 C.2     1  UNL1        0.0370
     12  C         18.1810  -23.0880   -9.4520 C.2     1  UNL1        0.0320
     13  C         17.0630  -23.2410   -8.6260 C.2     1  UNL1        0.0410
     14  C         17.1400  -22.8870   -7.2830 C.2     1  UNL1        0.0960
     15  C         18.3400  -22.4000   -6.7640 C.2     1  UNL1        0.0700
     16  O         16.0230  -23.1020   -6.5250 O.2     1  UNL1       -0.3350
     17  C         19.4630  -22.2560   -7.5850 C.2     1  UNL1        0.0620
     18  N         18.4380  -22.0950   -5.4050 N.am    1  UNL1       -0.3230
     19  C         17.3520  -22.1730   -4.5740 C.2     1  UNL1        0.2510
     20  H         19.3310  -21.8740   -4.9850 H       1  UNL1        0.1690
     21  O         17.4650  -22.0080   -3.3620 O.2     1  UNL1       -0.2700
     22  C         16.0090  -22.3660   -5.3030 C.3     1  UNL1        0.2170
     23  C         14.9970  -23.0340   -4.3800 C.3     1  UNL1        0.0500
     24  N         25.4120  -22.0790  -13.9350 N.pl3   1  UNL1       -0.1760
     25  C         26.3780  -23.0680  -13.3970 C.3     1  UNL1        0.1360
     26  S         25.2640  -22.0730  -15.6530 S.O2    1  UNL1        0.2470
     27  O         23.8700  -22.2470  -16.0070 O.2     1  UNL1       -0.2050
     28  O         26.2890  -22.9450  -16.1900 O.2     1  UNL1       -0.2050
     29  C         25.6930  -20.3980  -16.0630 C.2     1  UNL1        0.0750
     30  C         25.6210  -19.9880  -17.3960 C.2     1  UNL1        0.0250
     31  C         25.9570  -18.6750  -17.7300 C.2     1  UNL1        0.0080
     32  C         26.3830  -17.7780  -16.7410 C.2     1  UNL1       -0.0620
     33  C         26.7180  -16.3600  -17.1020 C.3     1  UNL1        0.0480
     34  C         26.4480  -18.2040  -15.4060 C.2     1  UNL1        0.0080
     35  C         26.1120  -19.5150  -15.0640 C.2     1  UNL1        0.0250
@<TRIPOS>BOND
     1    31    30    1
     2    31    32    2
     3    30    29    2
     4    33    32    1
     5    32    34    1
     6    28    26    2
     7    29    26    1
     8    29    35    1
     9    27    26    2
    10    26    24    1
    11    34    35    2
    12    24    25    1
    13    24     1    1
    14     6     1    2
    15     6     5    1
    16     1     2    1
    17     5     4    2
    18     2     3    2
    19     4     3    1
    20     4     7    1
    21     8     7    2
    22     7     9   am
    23     9    10    1
    24     9    11    1
    25    12    11    2
    26    12    13    1
    27    11    17    1
    28    13    14    2
    29    17    15    2
    30    14    15    1
    31    14    16    1
    32    15    18    1
    33    16    22    1
    34    18    20    1
    35    18    19   am
    36    22    19    1
    37    22    23    1
    38    19    21    2
