@<TRIPOS>MOLECULE
7584_out_ligand_01.pdbqt
 37 40 0 0 0
SMALL
GASTEIGER

@<TRIPOS>ATOM
      1  C         22.4430  -22.8260   -8.7360 C.2     1  UNL1        0.0320
      2  C         21.3060  -23.6400   -8.7450 C.2     1  UNL1        0.0170
      3  C         20.1880  -23.2870   -7.9860 C.2     1  UNL1        0.0100
      4  C         20.1950  -22.1190   -7.2070 C.2     1  UNL1       -0.0390
      5  C         21.3430  -21.3140   -7.1930 C.2     1  UNL1        0.0100
      6  C         22.4640  -21.6710   -7.9470 C.2     1  UNL1        0.0170
      7  C         23.6600  -23.1860   -9.5070 C.2     1  UNL1        0.2520
      8  N         23.9000  -22.4380  -10.6380 N.am    1  UNL1       -0.3480
      9  H         23.2950  -21.6620  -10.8770 H       1  UNL1        0.1630
     10  O         24.3900  -24.0930   -9.1240 O.2     1  UNL1       -0.2680
     11  C         24.9920  -22.7450  -11.5500 C.3     1  UNL1        0.1230
     12  C         24.4270  -23.4560  -12.7810 C.3     1  UNL1        0.0680
     13  C         25.4650  -23.5200  -13.9120 C.3     1  UNL1        0.0690
     14  O         25.8490  -22.1820  -14.3020 O.2     1  UNL1       -0.3400
     15  C         26.0920  -21.2870  -13.2950 C.2     1  UNL1        0.0780
     16  C         26.7520  -20.1170  -13.6770 C.2     1  UNL1        0.0370
     17  C         25.7270  -21.4940  -11.9610 C.2     1  UNL1       -0.0020
     18  C         27.0960  -19.1610  -12.7230 C.2     1  UNL1        0.0030
     19  C         26.7870  -19.3780  -11.3850 C.2     1  UNL1        0.0010
     20  C         26.1100  -20.5370  -11.0040 C.2     1  UNL1        0.0120
     21  C         24.8430  -24.1660  -15.1830 C.3     1  UNL1        0.0340
     22  C         24.9240  -23.3200  -16.4510 C.3     1  UNL1        0.0080
     23  C         26.7610  -24.2980  -13.5370 C.3     1  UNL1        0.0340
     24  C         27.1210  -25.4580  -14.4580 C.3     1  UNL1        0.0080
     25  C         18.9910  -21.7660   -6.3650 C.3     1  UNL1        0.1800
     26  N         18.0460  -22.9020   -6.2340 N.pl3   1  UNL1       -0.2690
     27  C         17.1440  -23.1350   -7.3300 C.2     1  UNL1        0.0830
     28  C         16.8520  -22.0750   -8.1930 C.2     1  UNL1        0.0330
     29  C         16.0180  -22.2820   -9.2960 C.2     1  UNL1        0.0020
     30  C         15.4870  -23.5490   -9.5480 C.2     1  UNL1        0.0030
     31  C         15.7910  -24.6140   -8.7000 C.2     1  UNL1        0.0440
     32  C         16.6250  -24.4060   -7.6040 C.2     1  UNL1        0.1430
     33  F         16.9100  -25.4420   -6.7980 F       1  UNL1       -0.2040
     34  S         17.4000  -23.1900   -4.6820 S.O2    1  UNL1        0.2290
     35  C         18.1810  -21.8820   -3.7640 C.3     1  UNL1        0.1860
     36  O         15.9760  -22.9230   -4.6970 O.2     1  UNL1       -0.2060
     37  O         17.9240  -24.4340   -4.1530 O.2     1  UNL1       -0.2060
@<TRIPOS>BOND
     1    22    21    1
     2    21    13    1
     3    24    23    1
     4    14    13    1
     5    14    15    1
     6    13    23    1
     7    13    12    1
     8    16    15    2
     9    16    18    1
    10    15    17    1
    11    12    11    1
    12    18    19    2
    13    17    11    1
    14    17    20    2
    15    11     8    1
    16    19    20    1
    17     9     8    1
    18     8     7   am
    19    30    29    2
    20    30    31    1
    21     7    10    2
    22     7     1    1
    23    29    28    1
    24     2     1    2
    25     2     3    1
    26     1     6    1
    27    31    32    2
    28    28    27    2
    29     3     4    2
    30     6     5    2
    31    32    27    1
    32    32    33    1
    33    27    26    1
    34     4     5    1
    35     4    25    1
    36    25    26    1
    37    26    34    1
    38    36    34    2
    39    34    37    2
    40    34    35    1
