@<TRIPOS>MOLECULE
75858_out_ligand_01.pdbqt
 34 37 0 0 0
SMALL
GASTEIGER

@<TRIPOS>ATOM
      1  C         21.6680  -21.9020  -11.5740 C.2     1  UNL1        0.0340
      2  C         20.6990  -21.0590  -12.1220 C.2     1  UNL1        0.0300
      3  C         19.3740  -21.1150  -11.6750 C.2     1  UNL1        0.0190
      4  C         19.0100  -22.0290  -10.6800 C.2     1  UNL1        0.0320
      5  C         19.9730  -22.8760  -10.1260 C.2     1  UNL1        0.0190
      6  C         21.2980  -22.7970  -10.5590 C.2     1  UNL1        0.0300
      7  C         17.6100  -22.1380  -10.2060 C.2     1  UNL1        0.2510
      8  O         16.7560  -21.3610  -10.6220 O.2     1  UNL1       -0.2680
      9  N         17.3530  -23.1630   -9.3180 N.am    1  UNL1       -0.3570
     10  H         18.0620  -23.8690   -9.1600 H       1  UNL1        0.1620
     11  C         15.9960  -23.4310   -8.8710 C.3     1  UNL1        0.1270
     12  C         15.9540  -24.4170   -7.7010 C.3     1  UNL1        0.0600
     13  C         15.9760  -23.7370   -6.3700 C.2     1  UNL1       -0.0290
     14  C         15.0300  -23.8380   -5.3670 C.2     1  UNL1        0.0960
     15  N         15.4620  -23.0940   -4.2980 N.pl3   1  UNL1       -0.3650
     16  C         16.6630  -22.4910   -4.5870 C.2     1  UNL1        0.0420
     17  H         14.9750  -23.0090   -3.4130 H       1  UNL1        0.1650
     18  C         17.4690  -21.6580   -3.8020 C.2     1  UNL1        0.0300
     19  C         17.0040  -22.8620   -5.8880 C.2     1  UNL1       -0.0020
     20  C         18.6510  -21.1730   -4.3750 C.2     1  UNL1        0.0020
     21  C         19.0110  -21.5120   -5.6760 C.2     1  UNL1        0.0010
     22  C         18.2000  -22.3600   -6.4420 C.2     1  UNL1        0.0140
     23  N         23.0140  -21.9280  -11.9860 N.am    1  UNL1       -0.3270
     24  C         24.1320  -21.5550  -11.2610 C.2     1  UNL1        0.2310
     25  O         24.1470  -21.2140  -10.0770 O.2     1  UNL1       -0.2720
     26  H         23.1750  -22.2060  -12.9510 H       1  UNL1        0.1690
     27  C         25.4320  -21.6570  -12.0470 C.3     1  UNL1        0.1850
     28  S         25.6800  -23.3370  -12.7210 S.3     1  UNL1       -0.0810
     29  C         25.1710  -23.0590  -14.3500 C.2     1  UNL1        0.1910
     30  N         24.7750  -21.9050  -14.8370 N.2     1  UNL1       -0.1230
     31  N         24.3450  -22.1270  -16.1300 N.2     1  UNL1       -0.1430
     32  C         24.5280  -23.4010  -16.3980 C.2     1  UNL1        0.2350
     33  N         25.0570  -24.0270  -15.3070 N.pl3   1  UNL1       -0.3220
     34  C         25.4730  -25.4010  -15.2350 C.3     1  UNL1        0.1590
@<TRIPOS>BOND
     1    32    31    2
     2    32    33    1
     3    31    30    1
     4    33    34    1
     5    33    29    1
     6    30    29    2
     7    29    28    1
     8    26    23    1
     9    28    27    1
    10     2     3    1
    11     2     1    2
    12    27    24    1
    13    23     1    1
    14    23    24   am
    15     3     4    2
    16     1     6    1
    17    24    25    2
    18     4     7    1
    19     4     5    1
    20     8     7    2
    21     6     5    2
    22     7     9   am
    23     9    10    1
    24     9    11    1
    25    11    12    1
    26    12    13    1
    27    22    19    1
    28    22    21    2
    29    13    19    1
    30    13    14    2
    31    19    16    2
    32    21    20    1
    33    14    15    1
    34    16    15    1
    35    16    18    1
    36    20    18    2
    37    15    17    1
