@<TRIPOS>MOLECULE
75857_out_ligand_01.pdbqt
 35 38 0 0 0
SMALL
GASTEIGER

@<TRIPOS>ATOM
      1  C         22.3520  -22.2710   -9.5960 C.3     1  UNL1        0.0510
      2  C         22.3420  -23.7650   -9.2840 C.3     1  UNL1        0.1080
      3  C         21.0590  -24.2010   -8.5990 C.2     1  UNL1        0.2220
      4  N         20.4580  -23.1770   -7.8870 N.am    1  UNL1       -0.3270
      5  H         20.9050  -22.2700   -7.9470 H       1  UNL1        0.1690
      6  O         20.6580  -25.3550   -8.7050 O.2     1  UNL1       -0.2730
      7  C         19.2420  -23.2140   -7.1800 C.2     1  UNL1        0.0340
      8  C         18.3260  -24.2670   -7.2560 C.2     1  UNL1        0.0310
      9  C         17.1240  -24.2140   -6.5420 C.2     1  UNL1        0.0270
     10  C         16.8390  -23.1030   -5.7480 C.2     1  UNL1        0.0740
     11  C         17.7500  -22.0510   -5.6480 C.2     1  UNL1        0.0270
     12  C         18.9460  -22.1080   -6.3690 C.2     1  UNL1        0.0310
     13  S         15.3370  -23.0390   -4.8170 S.O2    1  UNL1        0.2390
     14  O         15.0250  -24.3640   -4.3370 O.2     1  UNL1       -0.2060
     15  O         14.3730  -22.2160   -5.5090 O.2     1  UNL1       -0.2060
     16  N         15.8050  -22.1540   -3.4670 N.3     1  UNL1       -0.2250
     17  H         16.6450  -22.5730   -3.0610 H       1  UNL1        0.1360
     18  H         15.9210  -21.1750   -3.7270 H       1  UNL1        0.1360
     19  C         22.2710  -21.9570  -11.0630 C.ar    1  UNL1       -0.0180
     20  C         21.1180  -21.7110  -11.8000 C.ar    1  UNL1        0.0500
     21  N         21.5070  -21.4230  -13.0860 N.ar    1  UNL1       -0.3540
     22  C         22.8730  -21.4700  -13.2070 C.ar    1  UNL1        0.0430
     23  H         20.8690  -21.2200  -13.8430 H       1  UNL1        0.1660
     24  C         23.6860  -21.2410  -14.3240 C.2     1  UNL1        0.0300
     25  C         23.3830  -21.8190  -11.9600 C.ar    1  UNL1       -0.0010
     26  C         25.0660  -21.3730  -14.1560 C.2     1  UNL1        0.0020
     27  C         25.6100  -21.7200  -12.9220 C.2     1  UNL1        0.0010
     28  C         24.7800  -21.9460  -11.8170 C.2     1  UNL1        0.0140
     29  C         19.7110  -21.7210  -11.4170 C.2     1  UNL1       -0.0090
     30  C         19.1250  -22.8930  -10.9200 C.2     1  UNL1        0.0170
     31  C         17.7760  -22.9050  -10.5570 C.2     1  UNL1        0.0430
     32  C         17.0210  -21.7450  -10.6870 C.2     1  UNL1        0.1160
     33  F         15.7290  -21.7580  -10.3370 F       1  UNL1       -0.2060
     34  C         17.5860  -20.5750  -11.1780 C.2     1  UNL1        0.0430
     35  C         18.9320  -20.5630  -11.5490 C.2     1  UNL1        0.0170
@<TRIPOS>BOND
     1    24    26    1
     2    24    22    2
     3    26    27    2
     4    23    21    1
     5    22    21   ar
     6    22    25   ar
     7    21    20   ar
     8    27    28    1
     9    25    28    2
    10    25    19   ar
    11    20    29    1
    12    20    19   ar
    13    35    29    2
    14    35    34    1
    15    29    30    1
    16    34    32    2
    17    19     1    1
    18    30    31    2
    19    32    31    1
    20    32    33    1
    21     1     2    1
    22     2     3    1
    23     6     3    2
    24     3     4   am
    25     5     4    1
    26     4     7    1
    27     8     7    2
    28     8     9    1
    29     7    12    1
    30     9    10    2
    31    12    11    2
    32    10    11    1
    33    10    13    1
    34    15    13    2
    35    13    14    2
    36    13    16    1
    37    18    16    1
    38    16    17    1
