@<TRIPOS>MOLECULE
75861_out_ligand_01.pdbqt
 34 37 0 0 0
SMALL
GASTEIGER

@<TRIPOS>ATOM
      1  N         18.4820  -22.1010  -10.5140 N.am    1  UNL1       -0.3510
      2  C         19.2520  -21.2780  -11.3160 C.2     1  UNL1        0.2720
      3  O         18.7640  -20.3180  -11.9080 O.2     1  UNL1       -0.2660
      4  H         18.9430  -22.7640   -9.9150 H       1  UNL1        0.1630
      5  C         17.1150  -21.7650  -10.1910 C.3     1  UNL1        0.1610
      6  C         16.5650  -22.7410   -9.1800 C.2     1  UNL1       -0.0390
      7  C         15.8800  -23.8900   -9.6080 C.2     1  UNL1        0.0090
      8  C         15.3200  -24.7760   -8.6850 C.2     1  UNL1        0.0020
      9  C         15.4390  -24.5280   -7.3200 C.2     1  UNL1        0.0250
     10  C         16.1300  -23.3930   -6.8870 C.2     1  UNL1        0.0800
     11  C         16.6840  -22.4950   -7.8060 C.2     1  UNL1        0.0340
     12  S         16.2770  -23.0840   -5.1470 S.O2    1  UNL1        0.2590
     13  O         16.1220  -24.3510   -4.4680 O.2     1  UNL1       -0.2010
     14  O         15.4700  -21.9330   -4.8100 O.2     1  UNL1       -0.2010
     15  N         17.8840  -22.6580   -5.0040 N.3     1  UNL1       -0.3110
     16  H         18.5420  -23.4320   -4.9320 H       1  UNL1        0.1720
     17  C         18.2780  -21.3050   -4.6110 C.3     1  UNL1        0.0850
     18  C         19.4050  -20.8460   -5.5300 C.3     1  UNL1        0.0320
     19  C         18.7250  -21.3190   -3.1530 C.3     1  UNL1        0.0320
     20  C         20.6910  -21.6190  -11.3800 C.ar    1  UNL1        0.1530
     21  N         21.3610  -21.5540  -12.5520 N.ar    1  UNL1       -0.1610
     22  N         22.6600  -21.8870  -12.2910 N.ar    1  UNL1       -0.2370
     23  C         22.7920  -22.1930  -10.9680 C.ar    1  UNL1        0.0450
     24  C         21.5730  -22.0320  -10.3690 C.ar    1  UNL1        0.0030
     25  C         23.8610  -22.6450  -10.0610 C.3     1  UNL1        0.0600
     26  C         21.6300  -22.3440   -8.9280 C.3     1  UNL1        0.0430
     27  C         23.0300  -23.0290   -8.7930 C.3     1  UNL1        0.0110
     28  C         23.6260  -21.8750  -13.3390 C.2     1  UNL1        0.0580
     29  C         24.6240  -22.8540  -13.4400 C.2     1  UNL1        0.0340
     30  C         25.5500  -22.8080  -14.4890 C.2     1  UNL1        0.0440
     31  C         25.4790  -21.7880  -15.4320 C.2     1  UNL1        0.1160
     32  F         26.3680  -21.7540  -16.4350 F       1  UNL1       -0.2060
     33  C         24.5020  -20.8060  -15.3470 C.2     1  UNL1        0.0440
     34  C         23.5760  -20.8460  -14.2990 C.2     1  UNL1        0.0340
@<TRIPOS>BOND
     1    32    31    1
     2    31    33    2
     3    31    30    1
     4    33    34    1
     5    30    29    2
     6    34    28    2
     7    29    28    1
     8    28    22    1
     9    21    22   ar
    10    21    20   ar
    11    22    23   ar
    12     3     2    2
    13    20     2    1
    14    20    24   ar
    15     2     1   am
    16    23    24   ar
    17    23    25    1
    18     1     5    1
    19     1     4    1
    20    24    26    1
    21     5     6    1
    22    25    27    1
    23     7     6    2
    24     7     8    1
    25     6    11    1
    26    26    27    1
    27     8     9    2
    28    11    10    2
    29     9    10    1
    30    10    12    1
    31    18    17    1
    32    12    15    1
    33    12    14    2
    34    12    13    2
    35    15    16    1
    36    15    17    1
    37    17    19    1
