@<TRIPOS>MOLECULE
75878_out_ligand_01.pdbqt
 37 40 0 0 0
SMALL
GASTEIGER

@<TRIPOS>ATOM
      1  C         22.3490  -22.9970  -10.0840 C.3     1  UNL1        0.0510
      2  C         22.2100  -22.0990   -8.8590 C.3     1  UNL1        0.1080
      3  C         21.0870  -22.5800   -7.9560 C.2     1  UNL1        0.2220
      4  N         20.5990  -21.5860   -7.1280 N.am    1  UNL1       -0.3270
      5  H         21.0840  -20.6960   -7.1480 H       1  UNL1        0.1690
      6  O         20.7190  -23.7490   -7.9820 O.2     1  UNL1       -0.2730
      7  C         19.5120  -21.6720   -6.2360 C.2     1  UNL1        0.0360
      8  C         19.4640  -21.0360   -4.9980 C.2     1  UNL1        0.0300
      9  C         18.3470  -21.1800   -4.1640 C.2     1  UNL1        0.0100
     10  C         17.2430  -21.9550   -4.5510 C.2     1  UNL1       -0.0390
     11  C         16.0880  -22.0800   -3.5980 C.3     1  UNL1        0.0500
     12  C         17.3000  -22.6040   -5.7960 C.2     1  UNL1        0.0820
     13  C         18.4290  -22.4670   -6.6240 C.2     1  UNL1        0.0540
     14  S         15.9800  -23.6370   -6.3900 S.O2    1  UNL1        0.2390
     15  O         15.0760  -22.8620   -7.2070 O.2     1  UNL1       -0.2060
     16  O         15.5030  -24.4690   -5.3070 O.2     1  UNL1       -0.2060
     17  N         16.7830  -24.6900   -7.4230 N.3     1  UNL1       -0.2250
     18  H         17.3710  -24.1620   -8.0700 H       1  UNL1        0.1360
     19  H         16.1070  -25.2960   -7.8860 H       1  UNL1        0.1360
     20  C         22.2130  -22.2400  -11.3760 C.ar    1  UNL1       -0.0180
     21  C         21.0470  -21.7240  -11.9290 C.ar    1  UNL1        0.0500
     22  N         21.3910  -21.1100  -13.1110 N.ar    1  UNL1       -0.3540
     23  C         22.7340  -21.2430  -13.3640 C.ar    1  UNL1        0.0430
     24  H         20.7410  -20.6290  -13.7180 H       1  UNL1        0.1660
     25  C         23.4940  -20.7940  -14.4530 C.2     1  UNL1        0.0330
     26  C         23.2800  -21.9490  -12.2930 C.ar    1  UNL1        0.0020
     27  C         24.8600  -21.0880  -14.4480 C.2     1  UNL1        0.0440
     28  C         25.4240  -21.7960  -13.3950 C.2     1  UNL1        0.1170
     29  F         26.7360  -22.0690  -13.4200 F       1  UNL1       -0.2060
     30  C         24.6620  -22.2330  -12.3110 C.2     1  UNL1        0.0560
     31  C         19.6650  -21.7450  -11.4600 C.2     1  UNL1       -0.0090
     32  C         19.1580  -22.8860  -10.8180 C.2     1  UNL1        0.0170
     33  C         17.8350  -22.9110  -10.3700 C.2     1  UNL1        0.0430
     34  C         17.0240  -21.7990  -10.5670 C.2     1  UNL1        0.1160
     35  F         15.7550  -21.8230  -10.1350 F       1  UNL1       -0.2060
     36  C         17.5090  -20.6630  -11.2030 C.2     1  UNL1        0.0430
     37  C         18.8310  -20.6360  -11.6520 C.2     1  UNL1        0.0170
@<TRIPOS>BOND
     1    25    27    1
     2    25    23    2
     3    27    28    2
     4    24    22    1
     5    29    28    1
     6    28    30    1
     7    23    22   ar
     8    23    26   ar
     9    22    21   ar
    10    30    26    2
    11    26    20   ar
    12    21    31    1
    13    21    20   ar
    14    37    31    2
    15    37    36    1
    16    31    32    1
    17    20     1    1
    18    36    34    2
    19    32    33    2
    20    34    33    1
    21    34    35    1
    22     1     2    1
    23     2     3    1
    24    18    17    1
    25     6     3    2
    26     3     4   am
    27    19    17    1
    28    17    14    1
    29    15    14    2
    30     5     4    1
    31     4     7    1
    32    13     7    2
    33    13    12    1
    34    14    12    1
    35    14    16    2
    36     7     8    1
    37    12    10    2
    38     8     9    2
    39    10     9    1
    40    10    11    1
