@<TRIPOS>MOLECULE
75887_out_ligand_01.pdbqt
 29 31 0 0 0
SMALL
GASTEIGER

@<TRIPOS>ATOM
      1  C         21.6350  -22.5780   -8.0260 C.2     1  UNL1        0.2450
      2  O         22.3160  -21.6090   -7.7250 O.2     1  UNL1       -0.2680
      3  N         20.3680  -22.8970   -7.5840 N.am    1  UNL1       -0.3240
      4  H         19.9440  -23.7300   -7.9740 H       1  UNL1        0.1690
      5  C         22.1270  -23.5770   -9.0080 C.2     1  UNL1        0.0750
      6  C         21.8030  -23.5630  -10.3100 C.2     1  UNL1        0.0200
      7  C         21.0300  -22.5880  -11.0050 C.ar    1  UNL1        0.0070
      8  C         19.6400  -22.2860  -10.8810 C.ar    1  UNL1        0.0100
      9  C         18.5540  -22.7590  -10.1160 C.2     1  UNL1        0.0150
     10  C         19.4060  -21.2420  -11.7690 C.ar    1  UNL1        0.0860
     11  C         17.2910  -22.1770  -10.2940 C.2     1  UNL1        0.0010
     12  C         17.1000  -21.1370  -11.2060 C.2     1  UNL1        0.0030
     13  C         18.1630  -20.6420  -11.9660 C.2     1  UNL1        0.0380
     14  O         20.5550  -20.8870  -12.4040 O.2     1  UNL1       -0.3130
     15  C         21.5430  -21.7040  -11.9370 C.ar    1  UNL1        0.0640
     16  C         22.8900  -21.4870  -12.5260 C.3     1  UNL1        0.0610
     17  C         22.7990  -21.0850  -13.9890 C.3     1  UNL1        0.0120
     18  C         19.6150  -22.2180   -6.6050 C.2     1  UNL1        0.0360
     19  C         20.0080  -21.0140   -6.0120 C.2     1  UNL1        0.0290
     20  C         19.2200  -20.4080   -5.0260 C.2     1  UNL1        0.0040
     21  C         18.0230  -20.9950   -4.6260 C.2     1  UNL1        0.0250
     22  C         17.6210  -22.1870   -5.2270 C.2     1  UNL1        0.0760
     23  C         18.4120  -22.8070   -6.2020 C.2     1  UNL1        0.0540
     24  S         16.1030  -22.9530   -4.7320 S.O2    1  UNL1        0.2390
     25  O         16.3770  -24.3240   -4.3680 O.2     1  UNL1       -0.2060
     26  O         15.0770  -22.5890   -5.6790 O.2     1  UNL1       -0.2060
     27  N         15.7790  -22.1510   -3.2870 N.3     1  UNL1       -0.2250
     28  H         16.6390  -21.7100   -2.9560 H       1  UNL1        0.1360
     29  H         15.0140  -21.4800   -3.3590 H       1  UNL1        0.1360
@<TRIPOS>BOND
     1    17    16    1
     2    16    15    1
     3    14    15   ar
     4    14    10   ar
     5    13    10    1
     6    13    12    2
     7    15     7   ar
     8    10     8   ar
     9    12    11    1
    10     7     8   ar
    11     7     6    1
    12     8     9    1
    13     6     5    2
    14    11     9    2
    15     5     1    1
    16     1     2    2
    17     1     3   am
    18     4     3    1
    19     3    18    1
    20    18    23    2
    21    18    19    1
    22    23    22    1
    23    19    20    2
    24    26    24    2
    25    22    24    1
    26    22    21    2
    27    20    21    1
    28    24    25    2
    29    24    27    1
    30    29    27    1
    31    27    28    1
