@<TRIPOS>MOLECULE
75883_out_ligand_01.pdbqt
 35 38 0 0 0
SMALL
GASTEIGER

@<TRIPOS>ATOM
      1  C         20.0580  -21.8510   -6.9210 C.2     1  UNL1        0.0340
      2  C         19.9900  -20.9750   -5.8360 C.2     1  UNL1        0.0190
      3  C         18.9170  -21.0580   -4.9440 C.2     1  UNL1        0.0260
      4  C         17.9050  -22.0160   -5.1130 C.2     1  UNL1        0.0570
      5 CL         16.6250  -21.9550   -3.9600 Cl      1  UNL1       -0.0830
      6  C         17.9790  -22.9030   -6.1900 C.2     1  UNL1        0.1020
      7  C         19.0640  -22.8240   -7.0840 C.2     1  UNL1        0.0440
      8  C         21.1850  -21.8090   -7.8970 C.2     1  UNL1        0.2560
      9  N         20.8730  -22.2410   -9.1730 N.am    1  UNL1       -0.3230
     10  H         19.9560  -22.6410   -9.3170 H       1  UNL1        0.1690
     11  O         22.2790  -21.4370   -7.4930 O.2     1  UNL1       -0.2670
     12  C         21.7310  -22.2720  -10.2950 C.2     1  UNL1        0.0370
     13  C         21.3500  -21.5130  -11.4100 C.2     1  UNL1        0.0320
     14  C         22.1430  -21.4870  -12.5610 C.2     1  UNL1        0.0410
     15  C         23.3300  -22.2110  -12.6040 C.2     1  UNL1        0.0960
     16  O         24.0340  -22.1510  -13.7730 O.2     1  UNL1       -0.3350
     17  C         23.7150  -22.9670  -11.5000 C.2     1  UNL1        0.0700
     18  C         25.3550  -22.6870  -13.7200 C.3     1  UNL1        0.2170
     19  C         26.3320  -21.5170  -13.6480 C.3     1  UNL1        0.0500
     20  C         25.7170  -23.7040  -12.6280 C.2     1  UNL1        0.2510
     21  N         24.8860  -23.7230  -11.5430 N.am    1  UNL1       -0.3230
     22  O         26.7160  -24.4190  -12.6800 O.2     1  UNL1       -0.2700
     23  H         25.1350  -24.3420  -10.7810 H       1  UNL1        0.1690
     24  C         22.9220  -23.0010  -10.3490 C.2     1  UNL1        0.0620
     25  S         16.7990  -24.2010   -6.4750 S.O2    1  UNL1        0.2600
     26  O         17.5220  -25.4540   -6.4410 O.2     1  UNL1       -0.2000
     27  O         15.6340  -24.0050   -5.6460 O.2     1  UNL1       -0.2000
     28  N         16.3660  -23.9800   -8.0710 N.3     1  UNL1       -0.3130
     29  H         16.8140  -24.6060   -8.7400 H       1  UNL1        0.1720
     30  C         15.9620  -22.6610   -8.5700 C.3     1  UNL1        0.1640
     31  C         16.3690  -22.5160  -10.0400 C.3     1  UNL1        0.1400
     32  C         17.7520  -23.0510  -10.3770 C.3     1  UNL1        0.0350
     33  C         18.0940  -22.2460  -11.6050 C.3     1  UNL1        0.0290
     34  C         17.5120  -20.8910  -11.2640 C.3     1  UNL1        0.1680
     35  O         16.3710  -21.1210  -10.4220 O.3     1  UNL1       -0.3840
@<TRIPOS>BOND
     1    16    18    1
     2    16    15    1
     3    18    19    1
     4    18    20    1
     5    22    20    2
     6    20    21   am
     7    15    14    2
     8    15    17    1
     9    14    13    1
    10    33    34    1
    11    33    32    1
    12    21    17    1
    13    21    23    1
    14    17    24    2
    15    13    12    2
    16    34    35    1
    17    35    31    1
    18    32    31    1
    19    24    12    1
    20    12     9    1
    21    31    30    1
    22    10     9    1
    23     9     8   am
    24    29    28    1
    25    30    28    1
    26    28    25    1
    27     8    11    2
    28     8     1    1
    29     7     1    2
    30     7     6    1
    31     1     2    1
    32    25    26    2
    33    25     6    1
    34    25    27    2
    35     6     4    2
    36     2     3    2
    37     4     3    1
    38     4     5    1
