@<TRIPOS>MOLECULE
75889_out_ligand_01.pdbqt
 28 30 0 0 0
SMALL
GASTEIGER

@<TRIPOS>ATOM
      1  N         21.7420  -22.3930   -9.7410 N.am    1  UNL1       -0.3230
      2  C         21.3760  -23.4980   -8.9940 C.2     1  UNL1        0.2560
      3  O         21.9190  -24.5960   -8.9970 O.2     1  UNL1       -0.2670
      4  H         21.1130  -21.5980   -9.7310 H       1  UNL1        0.1690
      5  C         22.8560  -22.2740  -10.6000 C.2     1  UNL1        0.0360
      6  C         22.6000  -21.9010  -11.9260 C.2     1  UNL1        0.0490
      7  C         23.6470  -21.7530  -12.8520 C.2     1  UNL1        0.0720
      8  C         24.9560  -21.9830  -12.4320 C.2     1  UNL1        0.1320
      9  C         25.2230  -22.3490  -11.1160 C.2     1  UNL1        0.0450
     10  F         25.9930  -21.8550  -13.2750 F       1  UNL1       -0.2050
     11  C         24.1760  -22.4940  -10.2020 C.2     1  UNL1        0.0320
     12  C         23.3000  -21.3570  -14.2410 C.2     1  UNL1        0.2520
     13  N         22.5710  -20.2190  -14.4290 N.am    1  UNL1       -0.3660
     14  H         22.2540  -19.6300  -13.6670 H       1  UNL1        0.1590
     15  H         22.3370  -19.9550  -15.3760 H       1  UNL1        0.1590
     16  O         23.6550  -22.0330  -15.1990 O.2     1  UNL1       -0.2680
     17  C         20.1700  -23.3150   -8.1380 C.2     1  UNL1        0.0350
     18  C         20.1010  -22.1910   -7.3100 C.2     1  UNL1        0.0190
     19  C         18.9830  -21.9770   -6.4940 C.2     1  UNL1        0.0340
     20  C         17.9050  -22.8800   -6.4980 C.2     1  UNL1        0.0770
     21  C         17.9850  -23.9900   -7.3510 C.2     1  UNL1        0.1440
     22  F         16.9970  -24.8890   -7.4540 F       1  UNL1       -0.2040
     23  C         19.0990  -24.2080   -8.1660 C.2     1  UNL1        0.0610
     24  N         16.7710  -22.6520   -5.6530 N.pl3   1  UNL1       -0.3300
     25  C         16.7390  -22.6410   -4.2700 C.2     1  UNL1        0.0970
     26  C         15.4580  -22.3800   -3.8350 C.2     1  UNL1        0.0190
     27  C         14.6570  -22.2200   -4.9790 C.2     1  UNL1        0.0190
     28  C         15.4760  -22.3890   -6.0740 C.2     1  UNL1        0.0970
@<TRIPOS>BOND
     1    15    13    1
     2    16    12    2
     3    13    12   am
     4    13    14    1
     5    12     7    1
     6    10     8    1
     7     7     8    2
     8     7     6    1
     9     8     9    1
    10     6     5    2
    11     9    11    2
    12     5    11    1
    13     5     1    1
    14     1     4    1
    15     1     2   am
    16     3     2    2
    17     2    17    1
    18    23    17    2
    19    23    21    1
    20    17    18    1
    21    22    21    1
    22    21    20    2
    23    18    19    2
    24    20    19    1
    25    20    24    1
    26    28    24    1
    27    28    27    2
    28    24    25    1
    29    27    26    1
    30    25    26    2
