@<TRIPOS>MOLECULE
7589_out_ligand_01.pdbqt
 35 38 0 0 0
SMALL
GASTEIGER

@<TRIPOS>ATOM
      1  S         16.0520  -22.6070   -9.6940 S.O2    1  UNL1        0.2850
      2  O         14.8370  -21.9240  -10.0860 O.2     1  UNL1       -0.1980
      3  O         16.1620  -24.0490   -9.7790 O.2     1  UNL1       -0.1980
      4  N         16.3600  -22.2230   -8.0840 N.3     1  UNL1       -0.3000
      5  H         15.5480  -21.8500   -7.5980 H       1  UNL1        0.1730
      6  C         17.1920  -23.1500   -7.2910 C.3     1  UNL1        0.1590
      7  C         18.6900  -22.8490   -7.4530 C.2     1  UNL1       -0.0300
      8  C         19.2820  -21.7560   -6.7930 C.2     1  UNL1        0.0090
      9  C         20.6520  -21.5060   -6.9000 C.2     1  UNL1        0.0010
     10  C         21.4610  -22.3530   -7.6540 C.2     1  UNL1        0.0070
     11  C         20.9070  -23.4560   -8.3090 C.2     1  UNL1       -0.0610
     12  C         21.7770  -24.4040   -9.0810 C.3     1  UNL1        0.0480
     13  C         19.5310  -23.7050   -8.1880 C.2     1  UNL1        0.0160
     14  C         16.7320  -23.1430   -5.8360 C.2     1  UNL1       -0.0300
     15  C         17.5150  -23.7190   -4.8200 C.2     1  UNL1        0.0090
     16  C         17.0990  -23.6680   -3.4880 C.2     1  UNL1        0.0010
     17  C         15.8970  -23.0490   -3.1530 C.2     1  UNL1        0.0000
     18  C         15.1060  -22.4840   -4.1510 C.2     1  UNL1        0.0010
     19  C         15.5180  -22.5300   -5.4840 C.2     1  UNL1        0.0090
     20  C         17.3390  -21.9810  -10.7270 C.ar    1  UNL1        0.2370
     21  N         17.4080  -20.7740  -11.2500 N.ar    1  UNL1       -0.1260
     22  N         18.5930  -20.6010  -11.9440 N.ar    1  UNL1       -0.1220
     23  C         19.3580  -21.6720  -11.8880 C.ar    1  UNL1        0.1970
     24  S         18.6690  -22.9930  -11.0640 S.2     1  UNL1       -0.0150
     25  N         20.5980  -21.7110  -12.4740 N.am    1  UNL1       -0.3000
     26  C         21.8070  -21.5480  -11.8420 C.2     1  UNL1        0.2580
     27  O         22.0150  -21.2950  -10.6630 O.2     1  UNL1       -0.2670
     28  H         20.5700  -21.7910  -13.4810 H       1  UNL1        0.1710
     29  C         22.9720  -21.6350  -12.7600 C.2     1  UNL1        0.0380
     30  C         22.8280  -21.0280  -14.0160 C.2     1  UNL1        0.0170
     31  C         23.8620  -21.1010  -14.9480 C.2     1  UNL1        0.0010
     32  C         25.0400  -21.7710  -14.6250 C.2     1  UNL1        0.0010
     33  C         25.1930  -22.3590  -13.3670 C.2     1  UNL1        0.0070
     34  C         24.1710  -22.2830  -12.4070 C.2     1  UNL1       -0.0460
     35  C         24.3980  -22.8960  -11.0530 C.3     1  UNL1        0.0490
@<TRIPOS>BOND
     1    31    32    2
     2    31    30    1
     3    32    33    1
     4    30    29    2
     5    28    25    1
     6    33    34    2
     7    29    34    1
     8    29    26    1
     9    25    23    1
    10    25    26   am
    11    34    35    1
    12    22    23   ar
    13    22    21   ar
    14    23    24   ar
    15    26    27    2
    16    21    20   ar
    17    24    20   ar
    18    20     1    1
    19     2     1    2
    20     3     1    2
    21     1     4    1
    22    12    11    1
    23    11    13    1
    24    11    10    2
    25    13     7    2
    26     4     5    1
    27     4     6    1
    28    10     9    1
    29     7     6    1
    30     7     8    1
    31     6    14    1
    32     9     8    2
    33    14    19    2
    34    14    15    1
    35    19    18    1
    36    15    16    2
    37    18    17    2
    38    16    17    1
