@<TRIPOS>MOLECULE
758_out_ligand_01.pdbqt
 34 37 0 0 0
SMALL
GASTEIGER

@<TRIPOS>ATOM
      1  C         19.0390  -21.3390  -11.4110 C.3     1  UNL1        0.0500
      2  C         20.4450  -21.8720  -11.3970 C.2     1  UNL1       -0.0390
      3  C         21.3420  -21.4170  -12.3790 C.2     1  UNL1        0.0100
      4  C         22.6590  -21.8780  -12.4190 C.2     1  UNL1        0.0310
      5  C         23.0940  -22.8200  -11.4920 C.2     1  UNL1        0.0440
      6  C         22.2260  -23.2970  -10.5160 C.2     1  UNL1        0.0550
      7  C         20.9060  -22.8240  -10.4650 C.2     1  UNL1        0.0830
      8  N         24.4550  -23.2270  -11.4850 N.pl3   1  UNL1       -0.2810
      9  H         24.7000  -24.0480  -10.9300 H       1  UNL1        0.1790
     10  S         25.6260  -22.0170  -11.2920 S.O2    1  UNL1        0.2630
     11  O         25.0580  -20.9180  -10.5400 O.2     1  UNL1       -0.2000
     12  O         26.8260  -22.6890  -10.8400 O.2     1  UNL1       -0.2000
     13  C         25.9090  -21.4900  -12.9620 C.2     1  UNL1        0.0800
     14  C         26.0080  -22.4460  -13.9740 C.2     1  UNL1        0.0260
     15  C         26.2290  -22.0320  -15.2880 C.2     1  UNL1        0.0140
     16  C         26.3610  -20.6690  -15.5980 C.2     1  UNL1       -0.0260
     17  C         26.5800  -20.2390  -16.9170 C.2     1  UNL1        0.0120
     18  C         26.2740  -19.7050  -14.5630 C.2     1  UNL1       -0.0250
     19  C         26.7120  -18.8810  -17.2120 C.2     1  UNL1        0.0010
     20  C         26.6270  -17.9350  -16.1950 C.2     1  UNL1        0.0010
     21  C         26.4100  -18.3440  -14.8780 C.2     1  UNL1        0.0120
     22  C         26.0550  -20.1290  -13.2440 C.2     1  UNL1        0.0370
     23  S         19.8570  -23.4670   -9.1690 S.O2    1  UNL1        0.2460
     24  O         18.4810  -23.3210   -9.5900 O.2     1  UNL1       -0.2060
     25  O         20.3910  -24.7510   -8.7630 O.2     1  UNL1       -0.2060
     26  N         20.2130  -22.3710   -7.9090 N.pl3   1  UNL1       -0.1810
     27  H         21.1660  -22.5640   -7.5910 H       1  UNL1        0.1460
     28  C         19.2810  -22.4140   -6.8230 C.2     1  UNL1        0.0220
     29  C         18.4830  -23.5450   -6.6450 C.2     1  UNL1        0.0260
     30  C         17.6000  -23.6120   -5.5640 C.2     1  UNL1        0.0210
     31  C         17.5320  -22.5520   -4.6610 C.2     1  UNL1        0.0110
     32 BR         16.3410  -22.6420   -3.1970 Br      1  UNL1       -0.0510
     33  C         18.3440  -21.4290   -4.8260 C.2     1  UNL1        0.0210
     34  C         19.2260  -21.3630   -5.9070 C.2     1  UNL1        0.0260
@<TRIPOS>BOND
     1    19    17    2
     2    19    20    1
     3    17    16    1
     4    20    21    2
     5    16    15    2
     6    16    18    1
     7    15    14    1
     8    21    18    1
     9    18    22    2
    10    14    13    2
    11    22    13    1
    12    13    10    1
    13     4     3    1
    14     4     5    2
    15     3     2    2
    16     5     8    1
    17     5     6    1
    18     8    10    1
    19     8     9    1
    20     1     2    1
    21     2     7    1
    22    10    12    2
    23    10    11    2
    24     6     7    2
    25     7    23    1
    26    24    23    2
    27    23    25    2
    28    23    26    1
    29    26    27    1
    30    26    28    1
    31    28    29    2
    32    28    34    1
    33    29    30    1
    34    34    33    2
    35    30    31    2
    36    33    31    1
    37    31    32    1
