@<TRIPOS>MOLECULE
75906_out_ligand_01.pdbqt
 35 38 0 0 0
SMALL
GASTEIGER

@<TRIPOS>ATOM
      1  C         19.0550  -22.1170  -10.6580 C.2     1  UNL1        0.0320
      2  C         19.6710  -22.9490   -9.7120 C.2     1  UNL1        0.0180
      3  C         18.9140  -23.5640   -8.7120 C.2     1  UNL1        0.0260
      4  C         17.5370  -23.3280   -8.6540 C.2     1  UNL1        0.0740
      5  C         16.9120  -22.4960   -9.5900 C.2     1  UNL1        0.0260
      6  C         17.6740  -21.8830  -10.5890 C.2     1  UNL1        0.0180
      7  C         19.9160  -21.4770  -11.6890 C.2     1  UNL1        0.2510
      8  O         19.4840  -20.5330  -12.3400 O.2     1  UNL1       -0.2680
      9  N         21.1850  -21.9910  -11.8340 N.am    1  UNL1       -0.3530
     10  H         21.4970  -22.7750  -11.2820 H       1  UNL1        0.1630
     11  C         22.0920  -21.4730  -12.8410 C.3     1  UNL1        0.1620
     12  C         23.5350  -21.7760  -12.4950 C.2     1  UNL1       -0.0330
     13  C         23.8930  -21.8920  -11.1360 C.2     1  UNL1        0.0090
     14  C         25.2040  -22.1650  -10.7520 C.2     1  UNL1        0.0010
     15  C         26.1920  -22.3060  -11.7180 C.2     1  UNL1        0.0010
     16  C         25.8670  -22.1680  -13.0670 C.2     1  UNL1        0.0090
     17  C         24.5460  -21.8930  -13.4760 C.2     1  UNL1       -0.0220
     18  C         24.2760  -21.7280  -14.9640 C.3     1  UNL1        0.3110
     19  N         25.3020  -22.3640  -15.8080 N.3     1  UNL1        0.0920
     20  C         24.8830  -23.6720  -16.3360 C.3     1  UNL1        0.2730
     21  C         24.0640  -23.3740  -17.5840 C.3     1  UNL1        0.0320
     22  C         24.5320  -21.9990  -18.0440 C.3     1  UNL1        0.0320
     23  C         25.5680  -21.5670  -17.0150 C.3     1  UNL1        0.2730
     24  S         16.5550  -24.0960   -7.3870 S.O2    1  UNL1        0.2450
     25  O         15.4850  -24.8170   -8.0410 O.2     1  UNL1       -0.2060
     26  O         17.4530  -24.7420   -6.4520 O.2     1  UNL1       -0.2060
     27  N         15.9680  -22.7210   -6.5700 N.pl3   1  UNL1       -0.1780
     28  H         15.8170  -22.0040   -7.2810 H       1  UNL1        0.1460
     29  C         16.8190  -22.2560   -5.5100 C.2     1  UNL1        0.0610
     30  C         17.9800  -21.5410   -5.8170 C.2     1  UNL1        0.0270
     31  C         18.8360  -21.1350   -4.7910 C.2     1  UNL1        0.0020
     32  C         18.5430  -21.4510   -3.4620 C.2     1  UNL1        0.0030
     33  C         17.3930  -22.1810   -3.1550 C.2     1  UNL1        0.0440
     34  C         16.5430  -22.5850   -4.1790 C.2     1  UNL1        0.1380
     35  F         15.4390  -23.2830   -3.8690 F       1  UNL1       -0.2040
@<TRIPOS>BOND
     1    22    21    1
     2    22    23    1
     3    21    20    1
     4    23    19    1
     5    20    19    1
     6    19    18    1
     7    18    17    1
     8    17    16    1
     9    17    12    2
    10    16    15    2
    11    11    12    1
    12    11     9    1
    13    12    13    1
    14     8     7    2
    15     9     7   am
    16     9    10    1
    17    15    14    1
    18     7     1    1
    19    13    14    2
    20     1     6    2
    21     1     2    1
    22     6     5    1
    23     2     3    2
    24     5     4    2
    25     3     4    1
    26     4    24    1
    27    25    24    2
    28    24    27    1
    29    24    26    2
    30    28    27    1
    31    27    29    1
    32    30    29    2
    33    30    31    1
    34    29    34    1
    35    31    32    2
    36    34    35    1
    37    34    33    2
    38    32    33    1
