@<TRIPOS>MOLECULE
75916_out_ligand_01.pdbqt
 37 40 0 0 0
SMALL
GASTEIGER

@<TRIPOS>ATOM
      1  C         19.2190  -22.2090   -6.4290 C.2     1  UNL1        0.2560
      2  O         18.9930  -21.1170   -5.9200 O.2     1  UNL1       -0.2670
      3  N         18.4740  -23.3590   -6.2610 N.am    1  UNL1       -0.3220
      4  H         18.7140  -24.1660   -6.8370 H       1  UNL1        0.1690
      5  C         20.3820  -22.3280   -7.3630 C.2     1  UNL1        0.0320
      6  C         21.4050  -21.3700   -7.2690 C.2     1  UNL1        0.0180
      7  C         22.5190  -21.4360   -8.1100 C.2     1  UNL1        0.0260
      8  C         22.6050  -22.4660   -9.0500 C.2     1  UNL1        0.0750
      9  C         21.6070  -23.4410   -9.1390 C.2     1  UNL1        0.0260
     10  C         20.4960  -23.3730   -8.2920 C.2     1  UNL1        0.0180
     11  S         24.0160  -22.5780  -10.1320 S.O2    1  UNL1        0.2470
     12  O         24.6550  -21.2760  -10.1620 O.2     1  UNL1       -0.2050
     13  O         24.7480  -23.7620   -9.7330 O.2     1  UNL1       -0.2050
     14  N         23.2740  -22.8500  -11.6570 N.pl3   1  UNL1       -0.1760
     15  C         22.0720  -22.0250  -11.9270 C.3     1  UNL1        0.1360
     16  C         24.2010  -22.9000  -12.7590 C.2     1  UNL1        0.0250
     17  C         24.3060  -21.7680  -13.5720 C.2     1  UNL1        0.0240
     18  C         25.2340  -21.7360  -14.6140 C.2     1  UNL1        0.0020
     19  C         26.0710  -22.8300  -14.8330 C.2     1  UNL1        0.0000
     20  C         25.9870  -23.9530  -14.0070 C.2     1  UNL1        0.0020
     21  C         25.0600  -23.9850  -12.9640 C.2     1  UNL1        0.0240
     22  C         17.3810  -23.5850   -5.3850 C.2     1  UNL1        0.0500
     23  C         17.5340  -23.6050   -3.9940 C.2     1  UNL1        0.0300
     24  C         16.4480  -23.8700   -3.1540 C.2     1  UNL1        0.0020
     25  C         15.1930  -24.1320   -3.6920 C.2     1  UNL1        0.0010
     26  C         15.0160  -24.1140   -5.0740 C.2     1  UNL1        0.0190
     27  C         16.0950  -23.8220   -5.9270 C.2     1  UNL1        0.0580
     28  C         15.8750  -23.7790   -7.4090 C.2     1  UNL1        0.2540
     29  O         15.7100  -24.8200   -8.0400 O.2     1  UNL1       -0.2680
     30  N         15.9220  -22.5340   -8.0080 N.am    1  UNL1       -0.3540
     31  H         16.3700  -21.7870   -7.4950 H       1  UNL1        0.1620
     32  C         15.8850  -22.3970   -9.4560 C.3     1  UNL1        0.1550
     33  C         17.2060  -21.8840  -10.0290 C.3     1  UNL1        0.1390
     34  C         17.0340  -20.8530  -11.1360 C.3     1  UNL1        0.0350
     35  C         18.3070  -21.0350  -11.9240 C.3     1  UNL1        0.0290
     36  C         18.5020  -22.5350  -11.8600 C.3     1  UNL1        0.1680
     37  O         17.9590  -22.9700  -10.6030 O.3     1  UNL1       -0.3840
@<TRIPOS>BOND
     1    19    18    2
     2    19    20    1
     3    18    17    1
     4    20    21    2
     5    17    16    2
     6    21    16    1
     7    16    14    1
     8    15    14    1
     9    35    36    1
    10    35    34    1
    11    36    37    1
    12    14    11    1
    13    34    33    1
    14    37    33    1
    15    12    11    2
    16    11    13    2
    17    11     8    1
    18    33    32    1
    19    32    30    1
    20     9     8    2
    21     9    10    1
    22     8     7    1
    23    10     5    2
    24     7     6    2
    25    29    28    2
    26    30    31    1
    27    30    28   am
    28    28    27    1
    29     5     6    1
    30     5     1    1
    31     4     3    1
    32     1     3   am
    33     1     2    2
    34     3    22    1
    35    27    22    2
    36    27    26    1
    37    22    23    1
    38    26    25    2
    39    23    24    2
    40    25    24    1
