@<TRIPOS>MOLECULE
75938_out_ligand_01.pdbqt
 34 37 0 0 0
SMALL
GASTEIGER

@<TRIPOS>ATOM
      1  N         25.0610  -22.8880  -13.4300 N.am    1  UNL1       -0.3260
      2  H         24.7460  -23.6980  -13.9730 H       1  UNL1        0.1690
      3  C         25.3470  -21.7680  -14.2020 C.ar    1  UNL1        0.0930
      4  S         25.7470  -20.2730  -13.5110 S.2     1  UNL1       -0.0750
      5  C         25.9860  -19.5470  -15.0200 C.ar    1  UNL1       -0.0080
      6  C         25.7540  -20.4150  -16.0700 C.ar    1  UNL1       -0.0260
      7  C         26.4580  -18.1280  -15.1380 C.3     1  UNL1        0.0510
      8  C         25.9570  -19.9710  -17.4940 C.3     1  UNL1        0.0410
      9  C         25.3360  -21.7210  -15.5960 C.ar    1  UNL1        0.0720
     10  C         26.8010  -18.6900  -17.5900 C.3     1  UNL1        0.0090
     11  C         26.3180  -17.6210  -16.5890 C.3     1  UNL1       -0.0140
     12  C         27.0850  -16.3140  -16.7760 C.3     1  UNL1        0.0100
     13  C         24.9680  -22.8970  -16.3900 C.2     1  UNL1        0.2520
     14  N         23.7890  -22.8350  -17.0740 N.am    1  UNL1       -0.3660
     15  H         23.4800  -23.7140  -17.4700 H       1  UNL1        0.1590
     16  H         23.0710  -22.1870  -16.7890 H       1  UNL1        0.1590
     17  O         25.6320  -23.9290  -16.4030 O.2     1  UNL1       -0.2680
     18  C         25.1340  -23.1610  -12.0870 C.2     1  UNL1        0.1790
     19  S         26.6740  -23.3350  -11.4550 S.2     1  UNL1       -0.0400
     20  N         23.9560  -23.2720  -11.3860 N.am    1  UNL1       -0.2990
     21  C         23.3390  -22.4120  -10.4820 C.2     1  UNL1        0.2580
     22  O         23.7760  -21.3710  -10.0160 O.2     1  UNL1       -0.2670
     23  H         23.4510  -24.1240  -11.5800 H       1  UNL1        0.1710
     24  C         22.0060  -22.8950  -10.0430 C.2     1  UNL1        0.0430
     25  C         21.9920  -23.9610   -9.1350 C.2     1  UNL1        0.0180
     26  C         20.7790  -24.4390   -8.6640 C.2     1  UNL1        0.0020
     27  C         19.5900  -23.8540   -9.0990 C.2     1  UNL1        0.0130
     28  C         19.5690  -22.7760  -10.0220 C.2     1  UNL1       -0.0070
     29  C         18.3750  -22.1580  -10.4830 C.2     1  UNL1        0.0220
     30  C         20.8110  -22.2900  -10.5110 C.2     1  UNL1       -0.0090
     31 BR         16.6430  -22.7120   -9.9040 Br      1  UNL1       -0.0500
     32  C         18.4040  -21.0980  -11.3940 C.2     1  UNL1        0.0200
     33  C         19.6190  -20.6270  -11.8680 C.2     1  UNL1        0.0020
     34  C         20.8040  -21.2140  -11.4310 C.2     1  UNL1        0.0130
@<TRIPOS>BOND
     1    10     8    1
     2    10    11    1
     3     8     6    1
     4    15    14    1
     5    14    16    1
     6    14    13   am
     7    12    11    1
     8    11     7    1
     9    17    13    2
    10    13     9    1
    11     6     9   ar
    12     6     5   ar
    13     9     3   ar
    14     7     5    1
    15     5     4   ar
    16     3     4   ar
    17     3     1    1
    18     2     1    1
    19     1    18    1
    20    18    19    2
    21    18    20    1
    22    33    34    2
    23    33    32    1
    24    23    20    1
    25    34    30    1
    26    32    29    2
    27    20    21   am
    28    30    24    2
    29    30    28    1
    30    29    28    1
    31    29    31    1
    32    21    24    1
    33    21    22    2
    34    24    25    1
    35    28    27    2
    36    25    26    2
    37    27    26    1
