@<TRIPOS>MOLECULE
75939_out_ligand_01.pdbqt
 33 36 0 0 0
SMALL
GASTEIGER

@<TRIPOS>ATOM
      1  N         20.4950  -22.5340  -11.1000 N.am    1  UNL1       -0.3260
      2  H         20.3330  -23.5450  -11.1480 H       1  UNL1        0.1690
      3  C         21.7700  -22.1500  -11.5000 C.ar    1  UNL1        0.0930
      4  S         22.0820  -21.5360  -13.0500 S.2     1  UNL1       -0.0750
      5  C         23.7410  -21.4060  -12.7540 C.ar    1  UNL1       -0.0080
      6  C         24.0860  -21.8050  -11.4760 C.ar    1  UNL1       -0.0260
      7  C         24.6920  -20.9610  -13.8250 C.3     1  UNL1        0.0510
      8  C         25.5240  -21.8030  -11.0330 C.3     1  UNL1        0.0410
      9  C         22.9180  -22.2060  -10.7130 C.ar    1  UNL1        0.0720
     10  C         26.4980  -21.7380  -12.2190 C.3     1  UNL1        0.0090
     11  C         26.0820  -20.6510  -13.2310 C.3     1  UNL1       -0.0140
     12  C         27.1210  -20.5150  -14.3420 C.3     1  UNL1        0.0100
     13  C         22.8610  -22.6600   -9.3210 C.2     1  UNL1        0.2520
     14  N         23.0220  -23.9980   -9.1030 N.am    1  UNL1       -0.3660
     15  H         23.1510  -24.2590   -8.1340 H       1  UNL1        0.1590
     16  H         23.4820  -24.5720   -9.7950 H       1  UNL1        0.1590
     17  O         22.7480  -21.8940   -8.3700 O.2     1  UNL1       -0.2680
     18  C         19.3820  -21.8500  -10.6830 C.2     1  UNL1        0.1790
     19  S         18.8060  -20.6780  -11.7320 S.2     1  UNL1       -0.0400
     20  N         18.8440  -22.1740   -9.4610 N.am    1  UNL1       -0.2990
     21  C         19.0180  -23.2920   -8.6480 C.2     1  UNL1        0.2580
     22  O         19.8990  -24.1370   -8.7210 O.2     1  UNL1       -0.2670
     23  H         18.1370  -21.5250   -9.1470 H       1  UNL1        0.1710
     24  C         18.0740  -23.3420   -7.5030 C.2     1  UNL1        0.0430
     25  C         17.0230  -24.2630   -7.6120 C.2     1  UNL1        0.0180
     26  C         16.1390  -24.4310   -6.5530 C.2     1  UNL1        0.0020
     27  C         16.3050  -23.6830   -5.3880 C.2     1  UNL1        0.0120
     28  C         17.3390  -22.7380   -5.2700 C.2     1  UNL1       -0.0250
     29  C         17.4750  -21.9850   -4.0920 C.2     1  UNL1        0.0120
     30  C         18.2410  -22.5380   -6.3440 C.2     1  UNL1       -0.0100
     31  C         18.4790  -21.0260   -3.9640 C.2     1  UNL1        0.0010
     32  C         19.3540  -20.7980   -5.0190 C.2     1  UNL1        0.0010
     33  C         19.2330  -21.5380   -6.1960 C.2     1  UNL1        0.0130
@<TRIPOS>BOND
     1    12    11    1
     2     7    11    1
     3     7     5    1
     4    11    10    1
     5     4     5   ar
     6     4     3   ar
     7     5     6   ar
     8    10     8    1
     9    19    18    2
    10     3     1    1
    11     3     9   ar
    12     6     8    1
    13     6     9   ar
    14     2     1    1
    15     1    18    1
    16     9    13    1
    17    18    20    1
    18    16    14    1
    19    20    23    1
    20    20    21   am
    21    13    14   am
    22    13    17    2
    23    14    15    1
    24    22    21    2
    25    21    24    1
    26    25    24    2
    27    25    26    1
    28    24    30    1
    29    26    27    2
    30    30    33    1
    31    30    28    2
    32    33    32    2
    33    27    28    1
    34    28    29    1
    35    32    31    1
    36    29    31    2
