@<TRIPOS>MOLECULE
7596_out_ligand_01.pdbqt
 33 35 0 0 0
SMALL
GASTEIGER

@<TRIPOS>ATOM
      1  C         23.3860  -22.2310  -12.5180 C.2     1  UNL1        0.0250
      2  C         22.4640  -21.4160  -13.1840 C.2     1  UNL1        0.0250
      3  C         21.1890  -21.2200  -12.6450 C.2     1  UNL1        0.0190
      4  C         20.8220  -21.8660  -11.4590 C.2     1  UNL1        0.0320
      5  C         21.7420  -22.6900  -10.7980 C.2     1  UNL1        0.0190
      6  C         23.0190  -22.8750  -11.3330 C.2     1  UNL1        0.0250
      7  C         19.4480  -21.6610  -10.9360 C.2     1  UNL1        0.2510
      8  O         18.7680  -20.7280  -11.3470 O.2     1  UNL1       -0.2680
      9  N         19.0080  -22.5990  -10.0270 N.am    1  UNL1       -0.3530
     10  H         19.5350  -23.4570   -9.9400 H       1  UNL1        0.1630
     11  C         17.6210  -22.6450   -9.6190 C.3     1  UNL1        0.1610
     12  C         17.5040  -22.4930   -8.1230 C.2     1  UNL1       -0.0400
     13  C         18.6470  -22.3800   -7.3210 C.2     1  UNL1        0.0090
     14  C         18.5330  -22.2860   -5.9340 C.2     1  UNL1        0.0010
     15  C         17.2740  -22.3160   -5.3320 C.2     1  UNL1        0.0160
     16  C         16.1140  -22.4450   -6.1110 C.2     1  UNL1        0.0480
     17  C         16.2410  -22.5280   -7.5060 C.2     1  UNL1        0.0250
     18  C         14.7490  -22.4660   -5.4690 C.3     1  UNL1        0.4170
     19  F         14.2160  -23.7190   -5.4240 F       1  UNL1       -0.1660
     20  F         13.8330  -21.6970   -6.1230 F       1  UNL1       -0.1660
     21  F         14.7560  -22.0170   -4.1820 F       1  UNL1       -0.1660
     22  N         24.6860  -22.5210  -13.0690 N.pl3   1  UNL1       -0.1760
     23  C         25.0140  -23.9640  -13.1800 C.3     1  UNL1        0.1360
     24  S         25.9270  -21.5530  -12.3620 S.O2    1  UNL1        0.2470
     25  O         27.1110  -22.3800  -12.2280 O.2     1  UNL1       -0.2050
     26  O         25.3820  -20.8330  -11.2280 O.2     1  UNL1       -0.2050
     27  C         26.2380  -20.3450  -13.6270 C.2     1  UNL1        0.0750
     28  C         25.8530  -20.5940  -14.9450 C.2     1  UNL1        0.0250
     29  C         26.0980  -19.6280  -15.9230 C.2     1  UNL1        0.0080
     30  C         26.7370  -18.4240  -15.5910 C.2     1  UNL1       -0.0620
     31  C         26.9700  -17.3840  -16.6470 C.3     1  UNL1        0.0480
     32  C         27.1210  -18.1920  -14.2630 C.2     1  UNL1        0.0080
     33  C         26.8790  -19.1520  -13.2800 C.2     1  UNL1        0.0250
@<TRIPOS>BOND
     1    31    30    1
     2    29    30    2
     3    29    28    1
     4    30    32    1
     5    28    27    2
     6    32    33    2
     7    27    33    1
     8    27    24    1
     9     2     3    1
    10     2     1    2
    11    23    22    1
    12    22     1    1
    13    22    24    1
    14     3     4    2
    15     1     6    1
    16    24    25    2
    17    24    26    2
    18     4     7    1
    19     4     5    1
    20     8     7    2
    21     6     5    2
    22     7     9   am
    23     9    10    1
    24     9    11    1
    25    11    12    1
    26    12    17    2
    27    12    13    1
    28    17    16    1
    29    13    14    2
    30    20    18    1
    31    16    18    1
    32    16    15    2
    33    14    15    1
    34    18    19    1
    35    18    21    1
