@<TRIPOS>MOLECULE
75988_out_ligand_01.pdbqt
 31 35 0 0 0
SMALL
GASTEIGER

@<TRIPOS>ATOM
      1  C         21.9750  -21.7710  -12.1430 C.2     1  UNL1        0.0330
      2  C         20.7920  -21.2040  -12.6860 C.2     1  UNL1        0.0180
      3  C         19.5850  -21.2190  -11.9760 C.2     1  UNL1        0.0190
      4  C         19.5950  -21.8000  -10.7250 C.2     1  UNL1        0.0480
      5  C         20.7420  -22.3470  -10.1910 C.2     1  UNL1        0.0490
      6  C         21.9510  -22.3460  -10.8650 C.2     1  UNL1        0.0350
      7  C         20.4040  -22.8840   -8.8770 C.2     1  UNL1        0.2660
      8  O         21.2330  -23.4670   -8.2010 O.2     1  UNL1       -0.2670
      9  N         19.0790  -22.5820   -8.6450 N.am    1  UNL1       -0.2430
     10  C         18.5170  -21.9910   -9.7580 C.2     1  UNL1        0.2660
     11  O         17.3650  -21.7140  -10.0370 O.2     1  UNL1       -0.2670
     12  C         23.2170  -21.7020  -12.9700 C.2     1  UNL1        0.2510
     13  O         24.3060  -21.9000  -12.4430 O.2     1  UNL1       -0.2680
     14  N         23.0710  -21.4020  -14.3070 N.am    1  UNL1       -0.3540
     15  H         22.1680  -21.1670  -14.6920 H       1  UNL1        0.1620
     16  C         24.2110  -21.2920  -15.2010 C.3     1  UNL1        0.1550
     17  C         24.6070  -22.6320  -15.8430 C.3     1  UNL1        0.1390
     18  C         25.9650  -22.6330  -16.5280 C.3     1  UNL1        0.0350
     19  C         25.6260  -22.2040  -17.9330 C.3     1  UNL1        0.0290
     20  C         24.2940  -22.8860  -18.1500 C.3     1  UNL1        0.1680
     21  O         23.6420  -22.9440  -16.8720 O.3     1  UNL1       -0.3840
     22  C         18.3440  -23.0190   -7.5030 C.2     1  UNL1        0.0570
     23  C         17.5550  -24.1780   -7.6340 C.2     1  UNL1        0.0310
     24  C         16.7410  -24.6210   -6.5970 C.2     1  UNL1        0.0030
     25  C         16.7070  -23.9190   -5.4000 C.2     1  UNL1        0.0120
     26  C         17.5120  -22.7890   -5.2070 C.2     1  UNL1       -0.0240
     27  C         17.4830  -22.1370   -3.9630 C.2     1  UNL1        0.0120
     28  C         18.3630  -22.3260   -6.2490 C.2     1  UNL1        0.0020
     29  C         18.3060  -21.0450   -3.7020 C.2     1  UNL1        0.0010
     30  C         19.1810  -20.6020   -4.6790 C.2     1  UNL1        0.0010
     31  C         19.2140  -21.2380   -5.9250 C.2     1  UNL1        0.0140
@<TRIPOS>BOND
     1    20    19    1
     2    20    21    1
     3    19    18    1
     4    21    17    1
     5    18    17    1
     6    17    16    1
     7    16    14    1
     8    15    14    1
     9    14    12   am
    10    12    13    2
    11    12     1    1
    12     2     1    2
    13     2     3    1
    14     1     6    1
    15     3     4    2
    16     6     5    2
    17     4     5    1
    18     4    10    1
    19     5     7    1
    20    11    10    2
    21    10     9   am
    22     7     9   am
    23     7     8    2
    24     9    22    1
    25    23    22    2
    26    23    24    1
    27    22    28    1
    28    24    25    2
    29    28    31    1
    30    28    26    2
    31    31    30    2
    32    25    26    1
    33    26    27    1
    34    30    29    1
    35    27    29    2
