@<TRIPOS>MOLECULE
75991_out_ligand_01.pdbqt
 28 31 0 0 0
SMALL
GASTEIGER

@<TRIPOS>ATOM
      1  C         21.5890  -22.1350  -11.2630 C.2     1  UNL1        0.0340
      2  C         21.0730  -21.2920  -12.2490 C.2     1  UNL1        0.0170
      3  C         19.7550  -20.8610  -12.1540 C.2     1  UNL1        0.0030
      4  C         18.9570  -21.2640  -11.0760 C.2     1  UNL1        0.0300
      5  C         19.4500  -22.1060  -10.0630 C.2     1  UNL1        0.0460
      6  C         20.7850  -22.5270  -10.1780 C.2     1  UNL1        0.0470
      7  N         18.6270  -22.5100   -8.9630 N.am    1  UNL1       -0.2440
      8  C         17.3530  -23.0360   -9.0760 C.2     1  UNL1        0.2660
      9  O         16.6460  -23.2700  -10.0380 O.2     1  UNL1       -0.2670
     10  C         16.8740  -23.3030   -7.7230 C.2     1  UNL1        0.0480
     11  C         15.6690  -23.8200   -7.2860 C.2     1  UNL1        0.0190
     12  C         17.8700  -22.9370   -6.8460 C.2     1  UNL1        0.0500
     13  C         15.4940  -23.9630   -5.9050 C.2     1  UNL1        0.0200
     14  C         16.5180  -23.5880   -5.0130 C.2     1  UNL1        0.0110
     15 BR         16.2470  -23.7950   -3.1530 Br      1  UNL1       -0.0510
     16  C         17.7270  -23.0670   -5.4760 C.2     1  UNL1        0.0370
     17  C         18.9930  -22.4410   -7.6320 C.2     1  UNL1        0.2660
     18  O         20.0230  -22.0930   -7.0840 O.2     1  UNL1       -0.2670
     19  C         23.0010  -22.6060  -11.3130 C.2     1  UNL1        0.2510
     20  O         23.4540  -23.2990  -10.4110 O.2     1  UNL1       -0.2680
     21  N         23.7240  -22.2330  -12.4240 N.am    1  UNL1       -0.3540
     22  H         23.2210  -21.9290  -13.2490 H       1  UNL1        0.1620
     23  C         25.0420  -22.7890  -12.6800 C.3     1  UNL1        0.1550
     24  C         26.1370  -21.7250  -12.5950 C.3     1  UNL1        0.1390
     25  C         26.0630  -20.8430  -11.3580 C.3     1  UNL1        0.0350
     26  C         26.8060  -19.6150  -11.8240 C.3     1  UNL1        0.0290
     27  C         26.3530  -19.5010  -13.2660 C.3     1  UNL1        0.1680
     28  O         26.0650  -20.8300  -13.7270 O.3     1  UNL1       -0.3840
@<TRIPOS>BOND
     1    28    27    1
     2    28    24    1
     3    27    26    1
     4    22    21    1
     5    23    24    1
     6    23    21    1
     7    24    25    1
     8    21    19   am
     9     2     3    1
    10     2     1    2
    11     3     4    2
    12    26    25    1
    13    19     1    1
    14    19    20    2
    15     1     6    1
    16     4     5    1
    17     6     5    2
    18     5     7    1
    19     9     8    2
    20     8     7   am
    21     8    10    1
    22     7    17   am
    23    10    11    2
    24    10    12    1
    25    17    18    2
    26    17    12    1
    27    11    13    1
    28    12    16    2
    29    13    14    2
    30    16    14    1
    31    14    15    1
