@<TRIPOS>MOLECULE
759_out_ligand_01.pdbqt
 36 38 0 0 0
SMALL
GASTEIGER

@<TRIPOS>ATOM
      1  C         20.5050  -22.6710   -9.7010 C.2     1  UNL1        0.0340
      2  C         19.8860  -21.8420  -10.6470 C.2     1  UNL1        0.0170
      3  C         20.5500  -21.5270  -11.8330 C.2     1  UNL1        0.0030
      4  C         21.8320  -22.0250  -12.0680 C.2     1  UNL1        0.0240
      5  C         22.4600  -22.8220  -11.1100 C.2     1  UNL1        0.0230
      6  C         21.7980  -23.1560   -9.9300 C.2     1  UNL1        0.0410
      7  N         23.7570  -23.3640  -11.3940 N.pl3   1  UNL1       -0.1810
      8  H         23.8040  -23.6800  -12.3660 H       1  UNL1        0.1460
      9  S         25.0260  -22.2430  -11.1800 S.O2    1  UNL1        0.2450
     10  O         24.4960  -21.1550  -10.3860 O.2     1  UNL1       -0.2060
     11  O         26.2460  -22.9310  -10.8220 O.2     1  UNL1       -0.2060
     12  C         25.2190  -21.6550  -12.8460 C.2     1  UNL1        0.0750
     13  C         25.6260  -20.3360  -13.0660 C.2     1  UNL1        0.0260
     14  C         25.7670  -19.8650  -14.3740 C.2     1  UNL1        0.0220
     15  C         25.4830  -20.7000  -15.4600 C.2     1  UNL1        0.0280
     16 BR         25.7690  -19.9990  -17.2010 Br      1  UNL1       -0.0500
     17  C         25.0450  -22.0110  -15.2280 C.2     1  UNL1        0.0560
     18  C         24.9230  -22.4970  -13.9200 C.2     1  UNL1        0.0440
     19  C         24.7090  -22.9440  -16.3120 C.2     1  UNL1        0.1770
     20  O         23.6560  -22.9720  -16.9170 O.2     1  UNL1       -0.6460
     21  O         25.7650  -23.7000  -16.6460 O.3     1  UNL1       -0.7730
     22  H         25.4300  -24.3010  -17.3440 H       1  UNL1        0.1670
     23  C         19.8330  -23.0340   -8.4250 C.2     1  UNL1        0.2560
     24  O         19.9060  -24.1980   -8.0490 O.2     1  UNL1       -0.2670
     25  N         19.1560  -21.9970   -7.8090 N.am    1  UNL1       -0.3230
     26  H         19.0820  -21.1310   -8.3270 H       1  UNL1        0.1690
     27  C         18.4640  -22.0380   -6.5810 C.2     1  UNL1        0.0350
     28  C         18.9340  -21.4610   -5.4020 C.2     1  UNL1        0.0290
     29  C         18.1840  -21.5390   -4.2240 C.2     1  UNL1        0.0030
     30  C         16.9550  -22.1930   -4.2160 C.2     1  UNL1        0.0160
     31  C         16.4620  -22.7800   -5.3880 C.2     1  UNL1        0.0500
     32  C         17.2230  -22.6880   -6.5670 C.2     1  UNL1        0.0450
     33  C         15.1160  -23.4610   -5.4000 C.3     1  UNL1        0.4170
     34  F         14.9480  -24.2860   -6.4720 F       1  UNL1       -0.1660
     35  F         14.0900  -22.5680   -5.4510 F       1  UNL1       -0.1660
     36  F         14.8910  -24.2310   -4.3000 F       1  UNL1       -0.1660
@<TRIPOS>BOND
     1    22    21    1
     2    16    15    1
     3    20    19    2
     4    21    19    1
     5    19    17    1
     6    15    17    2
     7    15    14    1
     8    17    18    1
     9    14    13    2
    10    18    12    2
    11    13    12    1
    12    12     9    1
    13     8     7    1
    14     4     3    2
    15     4     5    1
    16     3     2    1
    17     7     9    1
    18     7     5    1
    19     9    11    2
    20     9    10    2
    21     5     6    2
    22     2     1    2
    23     6     1    1
    24     1    23    1
    25    23    24    2
    26    23    25   am
    27    26    25    1
    28    25    27    1
    29    27    32    2
    30    27    28    1
    31    32    31    1
    32    34    33    1
    33    35    33    1
    34    28    29    2
    35    33    31    1
    36    33    36    1
    37    31    30    2
    38    29    30    1
