@<TRIPOS>MOLECULE
76000_out_ligand_01.pdbqt
 37 39 0 0 0
SMALL
GASTEIGER

@<TRIPOS>ATOM
      1  N         23.2140  -22.0460  -10.3020 N.3     1  UNL1       -0.2940
      2  C         22.9520  -21.6000   -8.9170 C.3     1  UNL1        0.2380
      3  C         21.8800  -22.4670   -8.2720 C.2     1  UNL1        0.2400
      4  N         20.8530  -21.7330   -7.7070 N.am    1  UNL1       -0.3260
      5  H         20.8940  -20.7210   -7.8430 H       1  UNL1        0.1690
      6  O         21.9920  -23.6910   -8.2740 O.2     1  UNL1       -0.2710
      7  C         19.7520  -22.2100   -6.9700 C.2     1  UNL1        0.0340
      8  C         19.2850  -21.4030   -5.9220 C.2     1  UNL1        0.0310
      9  C         18.2150  -21.8140   -5.1200 C.2     1  UNL1        0.0270
     10  C         17.6090  -23.0480   -5.3700 C.2     1  UNL1        0.0740
     11  C         18.0570  -23.8620   -6.4130 C.2     1  UNL1        0.0270
     12  C         19.1280  -23.4390   -7.2100 C.2     1  UNL1        0.0310
     13  S         16.2660  -23.5780   -4.3500 S.O2    1  UNL1        0.2390
     14  O         16.7880  -24.4400   -3.3150 O.2     1  UNL1       -0.2060
     15  O         15.1470  -23.9480   -5.1880 O.2     1  UNL1       -0.2060
     16  N         15.7900  -22.1550   -3.5860 N.3     1  UNL1       -0.2250
     17  H         16.2710  -21.3580   -4.0090 H       1  UNL1        0.1360
     18  H         14.7720  -22.0780   -3.6070 H       1  UNL1        0.1360
     19  C         22.2130  -22.9480  -10.8930 C.3     1  UNL1        0.1740
     20  C         20.8640  -22.2830  -11.0280 C.2     1  UNL1       -0.0380
     21  C         20.7450  -21.0140  -11.6100 C.2     1  UNL1        0.0100
     22  C         19.4900  -20.4090  -11.7470 C.2     1  UNL1        0.0260
     23  C         18.3380  -21.0610  -11.2980 C.2     1  UNL1        0.0550
     24 CL         16.8240  -20.2460  -11.4820 Cl      1  UNL1       -0.0830
     25  C         18.4400  -22.3320  -10.7220 C.2     1  UNL1        0.0560
     26 CL         17.0630  -23.2010  -10.1360 Cl      1  UNL1       -0.0830
     27  C         19.6980  -22.9380  -10.5950 C.2     1  UNL1        0.0340
     28  S         24.8080  -22.1320  -10.8180 S.O2    1  UNL1        0.2610
     29  O         25.3680  -23.3220  -10.2060 O.2     1  UNL1       -0.2000
     30  O         25.4290  -20.8380  -10.6440 O.2     1  UNL1       -0.2000
     31  C         24.6680  -22.4310  -12.5680 C.2     1  UNL1        0.0790
     32  C         24.1380  -21.4370  -13.3980 C.2     1  UNL1        0.0260
     33  C         24.0610  -21.6550  -14.7740 C.2     1  UNL1        0.0200
     34  C         24.5290  -22.8540  -15.3120 C.2     1  UNL1        0.0110
     35 BR         24.4260  -23.1500  -17.1780 Br      1  UNL1       -0.0510
     36  C         25.0810  -23.8340  -14.4890 C.2     1  UNL1        0.0200
     37  C         25.1600  -23.6220  -13.1130 C.2     1  UNL1        0.0260
@<TRIPOS>BOND
     1    35    34    1
     2    34    33    2
     3    34    36    1
     4    33    32    1
     5    36    37    2
     6    32    31    2
     7    37    31    1
     8    31    28    1
     9    22    21    1
    10    22    23    2
    11    21    20    2
    12    24    23    1
    13    23    25    1
    14    20    19    1
    15    20    27    1
    16    19     1    1
    17    28    30    2
    18    28     1    1
    19    28    29    2
    20    25    27    2
    21    25    26    1
    22     1     2    1
    23     2     3    1
    24     6     3    2
    25     3     4   am
    26     5     4    1
    27     4     7    1
    28    12     7    2
    29    12    11    1
    30     7     8    1
    31    11    10    2
    32     8     9    2
    33    10     9    1
    34    10    13    1
    35    15    13    2
    36    13    16    1
    37    13    14    2
    38    17    16    1
    39    18    16    1
