@<TRIPOS>MOLECULE
7604_out_ligand_01.pdbqt
 36 39 0 0 0
SMALL
GASTEIGER

@<TRIPOS>ATOM
      1  C         22.9920  -22.6890  -11.5410 C.2     1  UNL1        0.0240
      2  C         22.3140  -21.8810  -12.4540 C.2     1  UNL1        0.0260
      3  C         21.0080  -21.4630  -12.1800 C.2     1  UNL1        0.0260
      4  C         20.3820  -21.8400  -10.9860 C.2     1  UNL1        0.0490
      5 CL         18.7340  -21.3690  -10.7780 Cl      1  UNL1       -0.0830
      6  C         21.0800  -22.6150  -10.0510 C.2     1  UNL1        0.0550
      7  C         22.3860  -23.0470  -10.3380 C.2     1  UNL1        0.0430
      8  C         20.5230  -23.0720   -8.7590 C.2     1  UNL1        0.2530
      9  O         21.0280  -22.6700   -7.7170 O.2     1  UNL1       -0.2680
     10  N         19.3890  -23.8550   -8.8060 N.am    1  UNL1       -0.3560
     11  H         19.0050  -24.1490   -9.7010 H       1  UNL1        0.1620
     12  C         18.7180  -24.2440   -7.5790 C.3     1  UNL1        0.1370
     13  C         17.5330  -23.3410   -7.0970 C.3     1  UNL1        0.0070
     14  C         16.2770  -24.2180   -6.8310 C.3     1  UNL1        0.0420
     15  C         15.5890  -24.7480   -8.0840 C.3     1  UNL1        0.1680
     16  O         15.9570  -24.0360   -9.2680 O.3     1  UNL1       -0.3910
     17  C         16.0020  -22.6320   -9.0400 C.3     1  UNL1        0.1680
     18  C         17.2330  -22.2840   -8.2060 C.3     1  UNL1        0.0420
     19  C         17.8730  -22.6270   -5.7580 C.2     1  UNL1       -0.0480
     20  C         18.5850  -21.4110   -5.6950 C.2     1  UNL1        0.0080
     21  C         18.8920  -20.8090   -4.4690 C.2     1  UNL1        0.0010
     22  C         18.5020  -21.4090   -3.2750 C.2     1  UNL1        0.0000
     23  C         17.8110  -22.6150   -3.3060 C.2     1  UNL1        0.0010
     24  C         17.5080  -23.2180   -4.5300 C.2     1  UNL1        0.0080
     25  N         24.3230  -23.1300  -11.8190 N.pl3   1  UNL1       -0.1810
     26  H         24.5510  -24.0220  -11.3700 H       1  UNL1        0.1460
     27  S         25.5460  -21.9990  -11.4490 S.O2    1  UNL1        0.2450
     28  O         26.7570  -22.7470  -11.1730 O.2     1  UNL1       -0.2060
     29  O         25.0280  -21.0100  -10.5260 O.2     1  UNL1       -0.2060
     30  C         25.7420  -21.2210  -13.0340 C.2     1  UNL1        0.0740
     31  C         25.5670  -21.9630  -14.2030 C.2     1  UNL1        0.0250
     32  C         25.7210  -21.3370  -15.4420 C.2     1  UNL1        0.0080
     33  C         26.0560  -19.9770  -15.5150 C.2     1  UNL1       -0.0620
     34  C         26.2080  -19.3180  -16.8560 C.3     1  UNL1        0.0480
     35  C         26.2370  -19.2490  -14.3330 C.2     1  UNL1        0.0080
     36  C         26.0850  -19.8680  -13.0900 C.2     1  UNL1        0.0250
@<TRIPOS>BOND
     1    34    33    1
     2    33    32    2
     3    33    35    1
     4    32    31    1
     5    35    36    2
     6    31    30    2
     7    36    30    1
     8    30    27    1
     9     2     3    1
    10     2     1    2
    11     3     4    2
    12    25     1    1
    13    25    27    1
    14    25    26    1
    15     1     7    1
    16    27    28    2
    17    27    29    2
    18     4     5    1
    19     4     6    1
    20     7     6    2
    21     6     8    1
    22    11    10    1
    23    16    17    1
    24    16    15    1
    25    17    18    1
    26    10     8   am
    27    10    12    1
    28     8     9    2
    29    18    13    1
    30    15    14    1
    31    12    13    1
    32    13    14    1
    33    13    19    1
    34    19    20    2
    35    19    24    1
    36    20    21    1
    37    24    23    2
    38    21    22    2
    39    23    22    1
