@<TRIPOS>MOLECULE
7605_out_ligand_01.pdbqt
 37 40 0 0 0
SMALL
GASTEIGER

@<TRIPOS>ATOM
      1  C         17.4610  -23.2940   -8.8260 C.2     1  UNL1        0.0860
      2  C         18.8610  -23.3570   -8.9380 C.2     1  UNL1        0.0420
      3  C         19.5180  -22.6540   -9.9510 C.2     1  UNL1        0.0340
      4  C         18.7820  -21.8830  -10.8530 C.2     1  UNL1        0.0170
      5  C         17.3890  -21.8300  -10.7480 C.2     1  UNL1        0.0090
      6  C         16.7050  -22.5260   -9.7340 C.2     1  UNL1       -0.0390
      7  C         15.2060  -22.4260   -9.7000 C.3     1  UNL1        0.0500
      8  C         21.0030  -22.7240  -10.0180 C.2     1  UNL1        0.2570
      9  O         21.5620  -23.6740   -9.4880 O.2     1  UNL1       -0.2670
     10  N         21.5860  -21.6970  -10.7200 N.am    1  UNL1       -0.3000
     11  H         21.0280  -21.0280  -11.2270 H       1  UNL1        0.1710
     12  C         22.9450  -21.5940  -10.8480 C.ar    1  UNL1        0.1970
     13  N         23.8540  -21.2040   -9.9920 N.ar    1  UNL1       -0.1220
     14  N         25.1250  -21.2450  -10.5430 N.ar    1  UNL1       -0.1330
     15  C         25.1070  -21.6500  -11.7950 C.ar    1  UNL1        0.1600
     16  S         23.5430  -22.0370  -12.3860 S.2     1  UNL1       -0.0220
     17  S         26.5890  -21.8410  -12.7030 S.3     1  UNL1       -0.0970
     18  C         26.1890  -23.2240  -13.8030 C.3     1  UNL1        0.1200
     19  C         25.7010  -22.8190  -15.1730 C.2     1  UNL1       -0.0490
     20  C         24.9790  -23.7150  -15.9760 C.2     1  UNL1        0.0080
     21  C         24.5260  -23.3310  -17.2390 C.2     1  UNL1        0.0010
     22  C         24.7810  -22.0460  -17.7110 C.2     1  UNL1        0.0000
     23  C         25.4870  -21.1420  -16.9210 C.2     1  UNL1        0.0010
     24  C         25.9430  -21.5250  -15.6580 C.2     1  UNL1        0.0080
     25  S         16.7110  -24.2570   -7.5140 S.O2    1  UNL1        0.2630
     26  O         17.7580  -25.0130   -6.8610 O.2     1  UNL1       -0.2000
     27  O         15.5560  -24.9430   -8.0550 O.2     1  UNL1       -0.2000
     28  N         16.1160  -23.0870   -6.4570 N.pl3   1  UNL1       -0.2800
     29  H         15.3850  -22.5180   -6.8750 H       1  UNL1        0.1790
     30  C         16.9610  -22.5000   -5.4690 C.2     1  UNL1        0.0490
     31  C         16.7190  -22.7350   -4.1040 C.2     1  UNL1       -0.0350
     32  C         17.5380  -22.1090   -3.1540 C.2     1  UNL1        0.0090
     33  C         15.5990  -23.6170   -3.6260 C.3     1  UNL1        0.0500
     34  C         18.5830  -21.2700   -3.5490 C.2     1  UNL1        0.0070
     35  C         18.8330  -21.0470   -4.9030 C.2     1  UNL1       -0.0600
     36  C         19.9660  -20.1650   -5.3410 C.3     1  UNL1        0.0480
     37  C         18.0320  -21.6860   -5.8570 C.2     1  UNL1        0.0370
@<TRIPOS>BOND
     1    22    21    2
     2    22    23    1
     3    21    20    1
     4    23    24    2
     5    20    19    2
     6    24    19    1
     7    19    18    1
     8    18    17    1
     9    17    15    1
    10    16    15   ar
    11    16    12   ar
    12    15    14   ar
    13    11    10    1
    14     4     5    2
    15     4     3    1
    16    12    10    1
    17    12    13   ar
    18     5     6    1
    19    10     8   am
    20    14    13   ar
    21     8     3    1
    22     8     9    2
    23     3     2    2
    24     6     7    1
    25     6     1    2
    26     2     1    1
    27     1    25    1
    28    27    25    2
    29    25    26    2
    30    25    28    1
    31    29    28    1
    32    28    30    1
    33    37    30    2
    34    37    35    1
    35    30    31    1
    36    36    35    1
    37    35    34    2
    38    31    33    1
    39    31    32    2
    40    34    32    1
