@<TRIPOS>MOLECULE
76081_out_ligand_01.pdbqt
 26 29 0 0 0
SMALL
GASTEIGER

@<TRIPOS>ATOM
      1  O         23.4970  -22.2410  -11.9510 O.2     1  UNL1       -0.2670
      2  C         22.5640  -22.5710  -11.2490 C.2     1  UNL1        0.2570
      3  N         22.5490  -23.5070  -10.2260 N.am    1  UNL1       -0.3220
      4  C         21.2690  -23.5770   -9.6850 C.2     1  UNL1        0.0470
      5  C         20.7850  -24.3550   -8.6600 C.2     1  UNL1        0.0320
      6  C         19.4280  -24.2090   -8.3290 C.2     1  UNL1        0.0280
      7  C         18.5940  -23.2940   -9.0300 C.2     1  UNL1        0.0860
      8  C         19.1060  -22.4860  -10.0860 C.2     1  UNL1        0.0000
      9  C         18.4970  -21.5060  -10.9220 C.2     1  UNL1        0.0140
     10  C         19.2370  -20.8310  -11.9240 C.2     1  UNL1        0.0020
     11  C         20.5960  -21.1000  -12.1300 C.2     1  UNL1        0.0180
     12  C         21.1810  -22.0470  -11.3170 C.2     1  UNL1        0.0450
     13  C         20.4560  -22.6950  -10.3500 C.2     1  UNL1        0.0180
     14  H         23.3580  -24.0350   -9.9390 H       1  UNL1        0.1690
     15  S         16.8830  -23.1750   -8.5580 S.O2    1  UNL1        0.2460
     16  O         16.0870  -23.6230   -9.6780 O.2     1  UNL1       -0.2060
     17  O         16.6830  -21.8780   -7.9450 O.2     1  UNL1       -0.2060
     18  N         16.8110  -24.3140   -7.2870 N.pl3   1  UNL1       -0.1810
     19  H         17.7040  -24.8110   -7.2670 H       1  UNL1        0.1460
     20  C         16.5170  -23.7340   -6.0080 C.2     1  UNL1        0.0240
     21  C         15.2240  -23.8270   -5.4910 C.2     1  UNL1        0.0240
     22  C         14.9170  -23.2320   -4.2670 C.2     1  UNL1        0.0030
     23  C         15.9000  -22.5340   -3.5650 C.2     1  UNL1        0.0190
     24  C         17.1850  -22.4290   -4.0970 C.2     1  UNL1        0.0120
     25 BR         18.5120  -21.4690   -3.1530 Br      1  UNL1       -0.0510
     26  C         17.5000  -23.0200   -5.3210 C.2     1  UNL1        0.0430
@<TRIPOS>BOND
     1    11    10    1
     2    11    12    2
     3     1     2    2
     4    10     9    2
     5    12     2    1
     6    12    13    1
     7     2     3   am
     8     9     8    1
     9    13     8    1
    10    13     4    2
    11     3    14    1
    12     3     4    1
    13     8     7    2
    14     4     5    1
    15    16    15    2
    16     7    15    1
    17     7     6    1
    18     5     6    2
    19    15    17    2
    20    15    18    1
    21    18    19    1
    22    18    20    1
    23    20    21    2
    24    20    26    1
    25    21    22    1
    26    26    24    2
    27    22    23    2
    28    24    23    1
    29    24    25    1
