@<TRIPOS>MOLECULE
76090_out_ligand_01.pdbqt
 32 36 0 0 0
SMALL
GASTEIGER

@<TRIPOS>ATOM
      1  S         19.9550  -23.4100   -9.0520 S.O2    1  UNL1        0.2460
      2  O         20.4730  -24.7360   -8.7840 O.2     1  UNL1       -0.2060
      3  O         19.0550  -23.1470  -10.1510 O.2     1  UNL1       -0.2060
      4  C         19.1750  -22.8230   -7.5640 C.2     1  UNL1        0.0860
      5  C         19.8520  -21.8450   -6.7840 C.2     1  UNL1        0.0280
      6  C         19.2860  -21.3380   -5.6040 C.2     1  UNL1        0.0320
      7  C         18.0550  -21.8260   -5.2370 C.2     1  UNL1        0.0470
      8  N         17.2600  -21.5140   -4.1380 N.am    1  UNL1       -0.3220
      9  C         17.4150  -22.7720   -5.9940 C.2     1  UNL1        0.0180
     10  C         16.0960  -22.2660   -4.1850 C.2     1  UNL1        0.2570
     11  H         17.4730  -20.8550   -3.4050 H       1  UNL1        0.1690
     12  O         15.1690  -22.2640   -3.4030 O.2     1  UNL1       -0.2670
     13  C         16.2130  -23.0880   -5.4090 C.2     1  UNL1        0.0450
     14  C         15.3710  -24.0220   -5.9730 C.2     1  UNL1        0.0180
     15  C         15.7950  -24.6330   -7.1620 C.2     1  UNL1        0.0020
     16  C         17.0370  -24.2990   -7.7560 C.2     1  UNL1        0.0140
     17  C         17.9030  -23.3300   -7.1720 C.2     1  UNL1        0.0000
     18  N         21.3150  -22.3790   -9.1370 N.pl3   1  UNL1       -0.1810
     19  H         22.0640  -22.8170   -8.5970 H       1  UNL1        0.1460
     20  C         21.7500  -22.1070  -10.4770 C.2     1  UNL1        0.0230
     21  C         22.9130  -22.7030  -10.9680 C.2     1  UNL1        0.0270
     22  C         23.3100  -22.4680  -12.2870 C.2     1  UNL1        0.0390
     23  C         22.5440  -21.6350  -13.1070 C.2     1  UNL1        0.0760
     24  C         21.3600  -21.0740  -12.6250 C.2     1  UNL1        0.0390
     25  C         20.9630  -21.3100  -11.3080 C.2     1  UNL1        0.0270
     26  O         22.8560  -21.3900  -14.4250 O.2     1  UNL1       -0.3110
     27  C         24.1900  -21.2910  -14.7480 C.2     1  UNL1        0.0760
     28  C         24.8800  -22.3120  -15.4070 C.2     1  UNL1        0.0370
     29  C         26.2420  -22.1660  -15.6740 C.2     1  UNL1        0.0030
     30  C         26.9130  -21.0110  -15.2710 C.2     1  UNL1        0.0000
     31  C         26.2260  -20.0030  -14.5930 C.2     1  UNL1        0.0030
     32  C         24.8640  -20.1460  -14.3240 C.2     1  UNL1        0.0370
@<TRIPOS>BOND
     1    29    28    1
     2    29    30    2
     3    28    27    2
     4    30    31    1
     5    27    26    1
     6    27    32    1
     7    31    32    2
     8    26    23    1
     9    23    24    2
    10    23    22    1
    11    24    25    1
    12    22    21    2
    13    25    20    2
    14    21    20    1
    15    20    18    1
    16     3     1    2
    17    18     1    1
    18    18    19    1
    19     1     2    2
    20     1     4    1
    21    16    17    1
    22    16    15    2
    23     4    17    2
    24     4     5    1
    25    17     9    1
    26    15    14    1
    27     5     6    2
    28     9    13    1
    29     9     7    2
    30    14    13    2
    31     6     7    1
    32    13    10    1
    33     7     8    1
    34    10     8   am
    35    10    12    2
    36     8    11    1
