@<TRIPOS>MOLECULE
76095_out_ligand_01.pdbqt
 28 30 0 0 0
SMALL
GASTEIGER

@<TRIPOS>ATOM
      1  N         20.7330  -25.4750   -8.6760 N.1     1  UNL1       -0.1910
      2  C         20.4630  -24.4070   -9.0430 C.1     1  UNL1        0.1020
      3  C         20.1260  -23.0960   -9.5120 C.2     1  UNL1        0.0770
      4  C         19.1050  -22.3910   -8.9790 C.2     1  UNL1        0.0370
      5  C         20.9510  -22.5800  -10.5730 C.ar    1  UNL1        0.1220
      6  N         22.2450  -22.9050  -10.7160 N.ar    1  UNL1       -0.1680
      7  N         22.6560  -22.2080  -11.8000 N.ar    1  UNL1       -0.2500
      8  C         21.6520  -21.4730  -12.3900 C.ar    1  UNL1        0.1410
      9  C         20.5400  -21.6860  -11.5980 C.ar    1  UNL1        0.1210
     10  C         19.2470  -21.1270  -11.8050 C.1     1  UNL1        0.1060
     11  N         18.1900  -20.6710  -11.9600 N.1     1  UNL1       -0.1910
     12  C         24.0520  -22.3190  -12.1960 C.3     1  UNL1        0.1790
     13  C         24.9410  -21.3960  -11.3710 C.3     1  UNL1        0.1860
     14  O         24.4510  -21.2520  -10.0410 O.3     1  UNL1       -0.3990
     15  H         24.5020  -20.2970   -9.8210 H       1  UNL1        0.2090
     16  N         21.8190  -20.7230  -13.5020 N.pl3   1  UNL1       -0.3830
     17  H         22.4640  -19.9310  -13.5130 H       1  UNL1        0.1570
     18  H         21.1480  -20.6790  -14.2650 H       1  UNL1        0.1570
     19  C         18.2330  -22.8500   -7.8840 C.2     1  UNL1       -0.0240
     20  C         17.3030  -23.8640   -8.1700 C.2     1  UNL1        0.0120
     21  C         16.4540  -24.3400   -7.1770 C.2     1  UNL1        0.0020
     22  C         16.5270  -23.8140   -5.8900 C.2     1  UNL1        0.0120
     23  C         17.4500  -22.8060   -5.5730 C.2     1  UNL1       -0.0250
     24  C         17.5100  -22.2890   -4.2680 C.2     1  UNL1        0.0120
     25  C         18.3230  -22.3080   -6.5730 C.2     1  UNL1       -0.0160
     26  C         18.4200  -21.2880   -3.9330 C.2     1  UNL1        0.0010
     27  C         19.2830  -20.7890   -4.8990 C.2     1  UNL1        0.0010
     28  C         19.2360  -21.2920   -6.2020 C.2     1  UNL1        0.0130
@<TRIPOS>BOND
     1    18    16    1
     2    17    16    1
     3    16     8    1
     4     8     7   ar
     5     8     9   ar
     6    12     7    1
     7    12    13    1
     8    11    10    3
     9    10     9    1
    10     7     6   ar
    11     9     5   ar
    12    13    14    1
    13     6     5   ar
    14     5     3    1
    15    14    15    1
    16     3     2    1
    17     3     4    2
    18     2     1    3
    19     4    19    1
    20    20    19    2
    21    20    21    1
    22    19    25    1
    23    21    22    2
    24    25    28    1
    25    25    23    2
    26    28    27    2
    27    22    23    1
    28    23    24    1
    29    27    26    1
    30    24    26    2
