@<TRIPOS>MOLECULE
76099_out_ligand_01.pdbqt
 29 32 0 0 0
SMALL
GASTEIGER

@<TRIPOS>ATOM
      1  C         21.4770  -23.2730   -9.4750 C.2     1  UNL1        0.0330
      2  C         22.7540  -23.6630   -9.0040 C.2     1  UNL1        0.0180
      3  C         23.9060  -23.3690   -9.7430 C.2     1  UNL1        0.0190
      4  C         23.7410  -22.6980  -10.9420 C.2     1  UNL1        0.0480
      5  C         22.5000  -22.3310  -11.4080 C.2     1  UNL1        0.0490
      6  C         21.3420  -22.6070  -10.7030 C.2     1  UNL1        0.0350
      7  C         22.6900  -21.6550  -12.6860 C.2     1  UNL1        0.2660
      8  O         21.7310  -21.2180  -13.2970 O.2     1  UNL1       -0.2670
      9  N         24.0470  -21.6450  -12.9510 N.am    1  UNL1       -0.2440
     10  C         24.7310  -22.2620  -11.9210 C.2     1  UNL1        0.2660
     11  O         25.9150  -22.4740  -11.7250 O.2     1  UNL1       -0.2670
     12  C         20.2390  -23.5910   -8.7090 C.2     1  UNL1        0.2560
     13  N         19.4760  -22.4950   -8.3560 N.am    1  UNL1       -0.3230
     14  H         19.7510  -21.5970   -8.7280 H       1  UNL1        0.1690
     15  O         19.9960  -24.7700   -8.4870 O.2     1  UNL1       -0.2670
     16  C         18.2830  -22.4930   -7.5990 C.2     1  UNL1        0.0350
     17  C         17.0080  -22.6160   -8.1510 C.2     1  UNL1        0.0300
     18  C         15.8760  -22.6120   -7.3300 C.2     1  UNL1        0.0090
     19  C         15.9980  -22.4780   -5.9440 C.2     1  UNL1       -0.0620
     20  C         14.7820  -22.5070   -5.0660 C.3     1  UNL1        0.0480
     21  C         17.2750  -22.3740   -5.3880 C.2     1  UNL1        0.0090
     22  C         18.4080  -22.3770   -6.2100 C.2     1  UNL1        0.0300
     23  C         24.6540  -21.0740  -14.1160 C.2     1  UNL1        0.0460
     24  C         24.5550  -21.6900  -15.3750 C.2     1  UNL1        0.0300
     25  C         25.1420  -21.1300  -16.5150 C.2     1  UNL1        0.0030
     26  C         25.8510  -19.9390  -16.4280 C.2     1  UNL1        0.0070
     27  C         25.9860  -19.3040  -15.1940 C.2     1  UNL1       -0.0600
     28  C         26.7220  -18.0000  -15.0850 C.3     1  UNL1        0.0480
     29  C         25.3780  -19.8700  -14.0580 C.2     1  UNL1        0.0370
@<TRIPOS>BOND
     1    25    26    2
     2    25    24    1
     3    26    27    1
     4    24    23    2
     5    27    28    1
     6    27    29    2
     7    23    29    1
     8    23     9    1
     9     8     7    2
    10     9     7   am
    11     9    10   am
    12     7     5    1
    13    10    11    2
    14    10     4    1
    15     5     4    2
    16     5     6    1
    17     4     3    1
    18     6     1    2
    19     3     2    2
    20     1     2    1
    21     1    12    1
    22    14    13    1
    23    12    15    2
    24    12    13   am
    25    13    16    1
    26    17    16    2
    27    17    18    1
    28    16    22    1
    29    18    19    2
    30    22    21    2
    31    19    21    1
    32    19    20    1
