@<TRIPOS>MOLECULE
76091_out_ligand_01.pdbqt
 34 37 0 0 0
SMALL
GASTEIGER

@<TRIPOS>ATOM
      1  C         20.9070  -22.9840  -10.2370 C.2     1  UNL1        0.0320
      2  C         22.2500  -23.3210  -10.4220 C.2     1  UNL1        0.0190
      3  C         22.9650  -22.7790  -11.4950 C.2     1  UNL1        0.0300
      4  C         22.3530  -21.8830  -12.3830 C.2     1  UNL1        0.0350
      5  C         21.0160  -21.5330  -12.1760 C.2     1  UNL1        0.0300
      6  C         20.2940  -22.0780  -11.1070 C.2     1  UNL1        0.0190
      7  C         20.1700  -23.5830   -9.0890 C.2     1  UNL1        0.2560
      8  O         20.5990  -24.6250   -8.6110 O.2     1  UNL1       -0.2670
      9  N         19.0280  -22.8940   -8.7210 N.am    1  UNL1       -0.3220
     10  H         18.7510  -22.1450   -9.3370 H       1  UNL1        0.1690
     11  C         18.1540  -23.1690   -7.6360 C.2     1  UNL1        0.0460
     12  C         17.1750  -24.1650   -7.7350 C.2     1  UNL1        0.0300
     13  C         16.3370  -24.4560   -6.6620 C.2     1  UNL1        0.0030
     14  C         16.4650  -23.7570   -5.4700 C.2     1  UNL1        0.0120
     15  C         17.4310  -22.7540   -5.3290 C.2     1  UNL1       -0.0240
     16  C         17.5320  -22.0660   -4.1090 C.2     1  UNL1        0.0120
     17  C         18.2960  -22.4370   -6.4110 C.2     1  UNL1        0.0010
     18  C         18.4740  -21.0590   -3.9250 C.2     1  UNL1        0.0010
     19  C         19.3260  -20.7240   -4.9660 C.2     1  UNL1        0.0010
     20  C         19.2370  -21.3960   -6.1880 C.2     1  UNL1        0.0140
     21  N         23.1380  -21.3880  -13.4420 N.am    1  UNL1       -0.3230
     22  C         24.4670  -21.0300  -13.3970 C.2     1  UNL1        0.2590
     23  O         25.2530  -21.1070  -12.4640 O.2     1  UNL1       -0.2670
     24  H         22.6600  -21.2590  -14.3270 H       1  UNL1        0.1690
     25  C         24.9820  -20.5110  -14.6760 C.2     1  UNL1        0.0650
     26  C         25.8270  -19.3930  -14.5860 C.2     1  UNL1        0.0200
     27  C         26.4120  -18.8620  -15.7330 C.2     1  UNL1        0.0010
     28  C         26.1630  -19.4530  -16.9690 C.2     1  UNL1        0.0030
     29  C         25.3210  -20.5640  -17.0560 C.2     1  UNL1        0.0380
     30  C         24.6960  -21.0920  -15.9180 C.2     1  UNL1        0.0900
     31  O         23.9150  -22.1810  -16.1890 O.2     1  UNL1       -0.2890
     32  C         24.4870  -23.2150  -16.9710 C.3     1  UNL1        0.5050
     33  F         24.8640  -24.1930  -16.1030 F       1  UNL1       -0.1840
     34  F         23.5060  -23.7510  -17.7340 F       1  UNL1       -0.1840
@<TRIPOS>BOND
     1    34    32    1
     2    29    28    2
     3    29    30    1
     4    32    31    1
     5    32    33    1
     6    28    27    1
     7    31    30    1
     8    30    25    2
     9    27    26    2
    10    25    26    1
    11    25    22    1
    12    24    21    1
    13    21    22   am
    14    21     4    1
    15    22    23    2
    16     4     5    2
    17     4     3    1
    18     5     6    1
    19     3     2    2
    20     6     1    2
    21     2     1    1
    22     1     7    1
    23    10     9    1
    24     7     9   am
    25     7     8    2
    26     9    11    1
    27    12    11    2
    28    12    13    1
    29    11    17    1
    30    13    14    2
    31    17    20    1
    32    17    15    2
    33    20    19    2
    34    14    15    1
    35    15    16    1
    36    19    18    1
    37    16    18    2
