@<TRIPOS>MOLECULE
76104_out_ligand_01.pdbqt
 29 31 0 0 0
SMALL
GASTEIGER

@<TRIPOS>ATOM
      1  N         20.0160  -22.8590   -9.4450 N.am    1  UNL1       -0.3260
      2  C         20.0940  -22.6770   -8.0710 C.2     1  UNL1        0.2350
      3  O         21.0570  -22.1880   -7.4800 O.2     1  UNL1       -0.2720
      4  H         19.1350  -23.2090   -9.8050 H       1  UNL1        0.1690
      5  C         18.8690  -23.1860   -7.2740 C.3     1  UNL1        0.1440
      6  C         18.6680  -22.4570   -5.9400 C.2     1  UNL1       -0.0410
      7  C         18.0650  -23.1470   -4.8740 C.2     1  UNL1        0.0080
      8  C         17.9030  -22.5370   -3.6290 C.2     1  UNL1        0.0010
      9  C         18.3420  -21.2310   -3.4300 C.2     1  UNL1        0.0000
     10  C         18.9450  -20.5350   -4.4740 C.2     1  UNL1        0.0010
     11  C         19.1100  -21.1420   -5.7200 C.2     1  UNL1        0.0080
     12  C         17.6040  -23.3190   -8.1260 C.2     1  UNL1       -0.0410
     13  C         16.7430  -24.4080   -7.9000 C.2     1  UNL1        0.0080
     14  C         15.5650  -24.5550   -8.6350 C.2     1  UNL1        0.0010
     15  C         15.2280  -23.6160   -9.6050 C.2     1  UNL1        0.0000
     16  C         16.0670  -22.5300   -9.8400 C.2     1  UNL1        0.0010
     17  C         17.2450  -22.3780   -9.1050 C.2     1  UNL1        0.0080
     18  C         20.9940  -22.5610  -10.4150 C.2     1  UNL1        0.0340
     19  C         22.2970  -23.0670  -10.3950 C.2     1  UNL1        0.0310
     20  C         23.2070  -22.7280  -11.4030 C.2     1  UNL1        0.0270
     21  C         22.8120  -21.8690  -12.4300 C.2     1  UNL1        0.0740
     22  C         21.5130  -21.3670  -12.4740 C.2     1  UNL1        0.0270
     23  C         20.6080  -21.7150  -11.4660 C.2     1  UNL1        0.0310
     24  S         23.9760  -21.4460  -13.6990 S.O2    1  UNL1        0.2390
     25  O         24.1110  -22.5730  -14.5930 O.2     1  UNL1       -0.2060
     26  O         25.1090  -20.8020  -13.0810 O.2     1  UNL1       -0.2060
     27  N         23.1210  -20.2850  -14.5680 N.3     1  UNL1       -0.2250
     28  H         23.4790  -20.1390  -15.5120 H       1  UNL1        0.1360
     29  H         23.0980  -19.4180  -14.0300 H       1  UNL1        0.1360
@<TRIPOS>BOND
     1    28    27    1
     2    25    24    2
     3    27    29    1
     4    27    24    1
     5    24    26    2
     6    24    21    1
     7    22    21    2
     8    22    23    1
     9    21    20    1
    10    23    18    2
    11    20    19    2
    12    18    19    1
    13    18     1    1
    14    16    15    2
    15    16    17    1
    16     4     1    1
    17    15    14    1
    18     1     2   am
    19    17    12    2
    20    14    13    2
    21    12    13    1
    22    12     5    1
    23     2     3    2
    24     2     5    1
    25     5     6    1
    26     6    11    2
    27     6     7    1
    28    11    10    1
    29     7     8    2
    30    10     9    2
    31     8     9    1
