@<TRIPOS>MOLECULE
76101_out_ligand_01.pdbqt
 34 37 0 0 0
SMALL
GASTEIGER

@<TRIPOS>ATOM
      1  C         22.0980  -23.3370   -9.3880 C.2     1  UNL1       -0.0170
      2  C         21.2440  -24.3740   -9.0010 C.2     1  UNL1        0.0150
      3  C         19.9090  -24.3640   -9.4110 C.2     1  UNL1        0.0380
      4  C         19.4440  -23.3150  -10.2040 C.2     1  UNL1        0.0790
      5  C         20.2820  -22.2570  -10.5610 C.2     1  UNL1        0.0380
      6  C         21.6160  -22.2690  -10.1510 C.2     1  UNL1        0.0150
      7  C         23.4910  -23.3560   -8.8900 C.2     1  UNL1        0.1500
      8  N         24.6090  -23.2990   -9.5570 N.2     1  UNL1       -0.1830
      9  N         24.5810  -23.4650  -10.9170 N.am    1  UNL1       -0.2430
     10  C         25.3820  -22.6730  -11.7440 C.2     1  UNL1        0.2710
     11  O         26.2540  -21.8980  -11.3620 O.2     1  UNL1       -0.2660
     12  H         23.6410  -23.6330  -11.2650 H       1  UNL1        0.1920
     13  C         25.0980  -22.7830  -13.2040 C.2     1  UNL1        0.0330
     14  C         25.5400  -23.9290  -13.8830 C.2     1  UNL1        0.0190
     15  C         25.2880  -24.0870  -15.2500 C.2     1  UNL1        0.0370
     16  C         24.5830  -23.0930  -15.9390 C.2     1  UNL1        0.1020
     17  C         24.1250  -21.9500  -15.2690 C.2     1  UNL1        0.0370
     18  C         24.3800  -21.7990  -13.9000 C.2     1  UNL1        0.0190
     19  N         24.3140  -23.2520  -17.3750 N.pl3   1  UNL1       -0.1160
     20  O         23.1350  -23.4090  -17.7240 O.2     1  UNL1       -0.5320
     21  O         25.2790  -23.2160  -18.1510 O.2     1  UNL1       -0.5320
     22  O         18.1000  -23.2070  -10.5980 O.3     1  UNL1       -0.2750
     23  C         17.2910  -22.3100   -9.9210 C.2     1  UNL1        0.2990
     24  O         17.0070  -21.1650  -10.2280 O.2     1  UNL1       -0.2590
     25  C         16.8910  -22.9350   -8.6440 C.2     1  UNL1        0.0510
     26  C         15.8860  -23.9100   -8.7300 C.2     1  UNL1        0.0180
     27  C         15.4240  -24.5340   -7.5790 C.2     1  UNL1        0.0020
     28  C         15.9680  -24.1920   -6.3420 C.2     1  UNL1        0.0120
     29  C         16.9930  -23.2360   -6.2370 C.2     1  UNL1       -0.0250
     30  C         17.5390  -22.9250   -4.9800 C.2     1  UNL1        0.0120
     31  C         17.4850  -22.5900   -7.4000 C.2     1  UNL1       -0.0100
     32  C         18.5720  -21.9980   -4.8530 C.2     1  UNL1        0.0010
     33  C         19.0770  -21.3700   -5.9830 C.2     1  UNL1        0.0010
     34  C         18.5450  -21.6640   -7.2410 C.2     1  UNL1        0.0130
@<TRIPOS>BOND
     1    21    19    2
     2    20    19    2
     3    19    16    1
     4    16    17    2
     5    16    15    1
     6    17    18    1
     7    15    14    2
     8    18    13    2
     9    14    13    1
    10    13    10    1
    11    10    11    2
    12    10     9   am
    13    12     9    1
    14     9     8    1
    15    22     4    1
    16    22    23    1
    17     5     4    2
    18     5     6    1
    19    24    23    2
    20     4     3    1
    21     6     1    2
    22    23    25    1
    23     8     7    2
    24     3     2    2
    25     1     2    1
    26     1     7    1
    27    26    25    2
    28    26    27    1
    29    25    31    1
    30    27    28    2
    31    31    34    1
    32    31    29    2
    33    34    33    2
    34    28    29    1
    35    29    30    1
    36    33    32    1
    37    30    32    2
