@<TRIPOS>MOLECULE
76100_out_ligand_01.pdbqt
 32 35 0 0 0
SMALL
GASTEIGER

@<TRIPOS>ATOM
      1  N         22.9280  -22.3890  -11.4990 N.am    1  UNL1       -0.2440
      2  C         22.0410  -21.7070  -12.3130 C.2     1  UNL1        0.2660
      3  O         22.1870  -21.0970  -13.3570 O.2     1  UNL1       -0.2670
      4  C         20.7200  -21.8160  -11.7010 C.2     1  UNL1        0.0480
      5  C         19.5000  -21.3100  -12.1070 C.2     1  UNL1        0.0190
      6  C         18.3920  -21.5800  -11.2950 C.2     1  UNL1        0.0180
      7  C         18.5220  -22.3480  -10.1110 C.2     1  UNL1        0.0330
      8  C         19.7780  -22.8340   -9.7190 C.2     1  UNL1        0.0350
      9  C         20.8520  -22.5510  -10.5470 C.2     1  UNL1        0.0490
     10  C         22.2570  -22.9150  -10.4110 C.2     1  UNL1        0.2660
     11  O         22.6260  -23.5680   -9.4510 O.2     1  UNL1       -0.2670
     12  C         17.3010  -22.5840   -9.2870 C.2     1  UNL1        0.2560
     13  O         16.2440  -22.7660   -9.8790 O.2     1  UNL1       -0.2670
     14  N         17.5080  -22.6010   -7.9210 N.am    1  UNL1       -0.3230
     15  H         18.4640  -22.5540   -7.5910 H       1  UNL1        0.1690
     16  C         16.5350  -22.7580   -6.9090 C.2     1  UNL1        0.0350
     17  C         16.7380  -23.7910   -5.9860 C.2     1  UNL1        0.0290
     18  C         15.8230  -24.0160   -4.9560 C.2     1  UNL1        0.0030
     19  C         14.6960  -23.2050   -4.8350 C.2     1  UNL1        0.0070
     20  C         14.4860  -22.1570   -5.7360 C.2     1  UNL1       -0.0600
     21  C         13.2580  -21.3020   -5.6290 C.3     1  UNL1        0.0480
     22  C         15.4050  -21.9480   -6.7780 C.2     1  UNL1        0.0360
     23  C         24.3300  -22.5340  -11.7490 C.2     1  UNL1        0.0480
     24  C         25.2690  -21.6090  -11.2550 C.2     1  UNL1        0.0300
     25  C         26.6440  -21.7460  -11.4940 C.2     1  UNL1        0.0050
     26  C         27.1210  -22.8130  -12.2430 C.2     1  UNL1        0.0370
     27  C         26.2070  -23.7240  -12.7520 C.2     1  UNL1        0.0810
     28  C         24.8350  -23.6080  -12.5000 C.2     1  UNL1        0.0670
     29  O         26.6860  -24.8200  -13.4710 O.3     1  UNL1       -0.2790
     30  C         26.2110  -24.8690  -14.7760 C.2     1  UNL1        0.2600
     31  C         26.7550  -23.6910  -15.5290 C.3     1  UNL1        0.1260
     32  O         25.4650  -25.7090  -15.2600 O.2     1  UNL1       -0.2650
@<TRIPOS>BOND
     1    31    30    1
     2    32    30    2
     3    30    29    1
     4    29    27    1
     5     3     2    2
     6    27    28    1
     7    27    26    2
     8    28    23    2
     9     2     4    1
    10     2     1   am
    11    26    25    1
    12     5     4    2
    13     5     6    1
    14    23     1    1
    15    23    24    1
    16     4     9    1
    17     1    10   am
    18    25    24    2
    19     6     7    2
    20     9    10    1
    21     9     8    2
    22    10    11    2
    23     7     8    1
    24     7    12    1
    25    13    12    2
    26    12    14   am
    27    14    15    1
    28    14    16    1
    29    16    22    2
    30    16    17    1
    31    22    20    1
    32    17    18    2
    33    20    21    1
    34    20    19    2
    35    18    19    1
