@<TRIPOS>MOLECULE
76110_out_ligand_01.pdbqt
 37 40 0 0 0
SMALL
GASTEIGER

@<TRIPOS>ATOM
      1  C         20.3940  -23.0370  -10.0430 C.2     1  UNL1        0.1020
      2  C         19.0500  -22.7010   -9.8900 C.2     1  UNL1        0.0520
      3  C         18.4430  -21.8520  -10.8200 C.2     1  UNL1       -0.0140
      4  C         19.1720  -21.2780  -11.8680 C.2     1  UNL1        0.0160
      5  C         20.5190  -21.5940  -12.0140 C.2     1  UNL1        0.0410
      6  C         21.1090  -22.4840  -11.1170 C.2     1  UNL1        0.1120
      7  C         17.0130  -21.5480  -10.6520 C.2     1  UNL1        0.1500
      8  N         16.1430  -22.1710   -9.9180 N.2     1  UNL1       -0.1840
      9  N         16.5580  -23.2120   -9.1390 N.am    1  UNL1       -0.2460
     10  C         16.0180  -23.3990   -7.8740 C.2     1  UNL1        0.2500
     11  O         15.1250  -22.7230   -7.3680 O.2     1  UNL1       -0.2700
     12  H         17.2460  -23.8680   -9.4930 H       1  UNL1        0.1920
     13  C         16.6170  -24.6050   -7.1420 C.3     1  UNL1        0.1970
     14  N         16.9640  -24.2610   -5.7510 N.pl3   1  UNL1       -0.2840
     15  H         17.4110  -25.0690   -5.3130 H       1  UNL1        0.1280
     16  C         17.7700  -23.1160   -5.6240 C.2     1  UNL1        0.0080
     17  C         17.5650  -22.2220   -4.5670 C.2     1  UNL1        0.0240
     18  C         18.3680  -21.0850   -4.4250 C.2     1  UNL1        0.0080
     19  C         19.3960  -20.8210   -5.3390 C.2     1  UNL1       -0.0620
     20  C         20.2250  -19.5780   -5.2040 C.3     1  UNL1        0.0480
     21  C         19.5940  -21.7040   -6.4050 C.2     1  UNL1        0.0080
     22  C         18.7920  -22.8440   -6.5390 C.2     1  UNL1        0.0240
     23  O         21.0870  -23.8520   -9.1880 O.2     1  UNL1       -0.3530
     24  C         20.4140  -25.0560   -8.8200 C.3     1  UNL1        0.2100
     25  O         22.4580  -22.7980  -11.2920 O.3     1  UNL1       -0.2720
     26  C         23.2760  -21.8170  -10.7600 C.2     1  UNL1        0.2990
     27  O         23.0020  -21.0060   -9.8870 O.2     1  UNL1       -0.2590
     28  C         24.6010  -21.9240  -11.4200 C.2     1  UNL1        0.0510
     29  C         25.6790  -22.3660  -10.6390 C.2     1  UNL1        0.0180
     30  C         26.9380  -22.5170  -11.2060 C.2     1  UNL1        0.0020
     31  C         27.1210  -22.2340  -12.5570 C.2     1  UNL1        0.0120
     32  C         26.0550  -21.7990  -13.3600 C.2     1  UNL1       -0.0250
     33  C         26.2690  -21.5260  -14.7210 C.2     1  UNL1        0.0120
     34  C         24.7620  -21.6380  -12.8000 C.2     1  UNL1       -0.0100
     35  C         25.2290  -21.0910  -15.5430 C.2     1  UNL1        0.0010
     36  C         23.9580  -20.9240  -15.0130 C.2     1  UNL1        0.0010
     37  C         23.7290  -21.1930  -13.6580 C.2     1  UNL1        0.0130
@<TRIPOS>BOND
     1    35    36    1
     2    35    33    2
     3    36    37    2
     4    33    32    1
     5    37    34    1
     6    32    34    1
     7    32    31    2
     8    34    28    2
     9    31    30    1
    10     5     4    2
    11     5     6    1
    12     4     3    1
    13    28    26    1
    14    28    29    1
    15    25     6    1
    16    25    26    1
    17    30    29    2
    18     6     1    2
    19     3     7    1
    20     3     2    2
    21    26    27    2
    22     7     8    2
    23     1     2    1
    24     1    23    1
    25     8     9    1
    26    12     9    1
    27    23    24    1
    28     9    10   am
    29    10    11    2
    30    10    13    1
    31    13    14    1
    32    22    21    1
    33    22    16    2
    34    21    19    2
    35    14    16    1
    36    14    15    1
    37    16    17    1
    38    19    20    1
    39    19    18    1
    40    17    18    2
