@<TRIPOS>MOLECULE
76112_out_ligand_01.pdbqt
 32 35 0 0 0
SMALL
GASTEIGER

@<TRIPOS>ATOM
      1  C         22.2900  -23.2730   -9.4930 C.2     1  UNL1       -0.0170
      2  C         21.7620  -22.2390  -10.2730 C.2     1  UNL1        0.0150
      3  C         20.4060  -22.2390  -10.6030 C.2     1  UNL1        0.0380
      4  C         19.5930  -23.2790  -10.1520 C.2     1  UNL1        0.0790
      5  C         20.1060  -24.2910   -9.3380 C.2     1  UNL1        0.0380
      6  C         21.4610  -24.2870   -9.0040 C.2     1  UNL1        0.0150
      7  C         23.7130  -23.2790   -9.0980 C.2     1  UNL1        0.1500
      8  N         24.7750  -23.2600   -9.8540 N.2     1  UNL1       -0.1830
      9  N         24.6270  -23.4870  -11.1990 N.am    1  UNL1       -0.2430
     10  C         25.6320  -23.1170  -12.0950 C.2     1  UNL1        0.2710
     11  O         26.7480  -22.7090  -11.7880 O.2     1  UNL1       -0.2660
     12  H         23.6790  -23.3120  -11.5220 H       1  UNL1        0.1920
     13  C         25.2580  -23.2040  -13.5360 C.2     1  UNL1        0.0330
     14  C         25.4060  -24.3890  -14.2710 C.2     1  UNL1        0.0180
     15  C         25.0470  -24.4240  -15.6220 C.2     1  UNL1        0.0200
     16  C         24.5500  -23.2770  -16.2380 C.2     1  UNL1        0.0110
     17 BR         24.0650  -23.3300  -18.0640 Br      1  UNL1       -0.0510
     18  C         24.4130  -22.0900  -15.5200 C.2     1  UNL1        0.0200
     19  C         24.7710  -22.0530  -14.1710 C.2     1  UNL1        0.0180
     20  O         18.2120  -23.3260  -10.4090 O.3     1  UNL1       -0.2750
     21  C         17.3940  -22.3910   -9.7990 C.2     1  UNL1        0.2990
     22  O         17.0090  -21.3180  -10.2370 O.2     1  UNL1       -0.2590
     23  C         16.9450  -22.9520   -8.5100 C.2     1  UNL1        0.0510
     24  C         15.8980  -23.8830   -8.5810 C.2     1  UNL1        0.0180
     25  C         15.4210  -24.4770   -7.4180 C.2     1  UNL1        0.0020
     26  C         15.9810  -24.1360   -6.1880 C.2     1  UNL1        0.0120
     27  C         17.0160  -23.1890   -6.0960 C.2     1  UNL1       -0.0250
     28  C         17.5480  -22.8500   -4.8410 C.2     1  UNL1        0.0120
     29  C         17.5150  -22.5680   -7.2670 C.2     1  UNL1       -0.0100
     30  C         18.5600  -21.8990   -4.7220 C.2     1  UNL1        0.0010
     31  C         19.0500  -21.2690   -5.8580 C.2     1  UNL1        0.0010
     32  C         18.5330  -21.5940   -7.1140 C.2     1  UNL1        0.0130
@<TRIPOS>BOND
     1    17    16    1
     2    16    15    2
     3    16    18    1
     4    15    14    1
     5    18    19    2
     6    14    13    2
     7    19    13    1
     8    13    10    1
     9    10    11    2
    10    10     9   am
    11    12     9    1
    12     9     8    1
    13     3     2    1
    14     3     4    2
    15    20     4    1
    16    20    21    1
    17     2     1    2
    18    22    21    2
    19     4     5    1
    20     8     7    2
    21    21    23    1
    22     1     7    1
    23     1     6    1
    24     5     6    2
    25    24    23    2
    26    24    25    1
    27    23    29    1
    28    25    26    2
    29    29    32    1
    30    29    27    2
    31    32    31    2
    32    26    27    1
    33    27    28    1
    34    31    30    1
    35    28    30    2
