@<TRIPOS>MOLECULE
76123_out_ligand_01.pdbqt
 34 37 0 0 0
SMALL
GASTEIGER

@<TRIPOS>ATOM
      1  C         20.2840  -22.5130  -10.7400 C.2     1  UNL1        0.1020
      2  C         21.6500  -22.4900  -10.4540 C.2     1  UNL1        0.0520
      3  C         22.1770  -23.3600   -9.4900 C.2     1  UNL1       -0.0140
      4  C         21.3510  -24.2390   -8.7840 C.2     1  UNL1        0.0160
      5  C         19.9870  -24.2730   -9.0660 C.2     1  UNL1        0.0410
      6  C         19.4680  -23.4050  -10.0280 C.2     1  UNL1        0.1120
      7  C         23.6140  -23.3320   -9.1440 C.2     1  UNL1        0.1500
      8  N         24.6540  -23.2670   -9.9270 N.2     1  UNL1       -0.1830
      9  N         24.4910  -23.4610  -11.2740 N.am    1  UNL1       -0.2430
     10  C         25.5780  -23.3780  -12.1460 C.2     1  UNL1        0.2710
     11  O         26.7540  -23.2760  -11.8130 O.2     1  UNL1       -0.2660
     12  H         23.6310  -23.0450  -11.6220 H       1  UNL1        0.1920
     13  C         25.2280  -23.3830  -13.5970 C.2     1  UNL1        0.0330
     14  C         24.6320  -22.2390  -14.1440 C.2     1  UNL1        0.0180
     15  C         24.2940  -22.2000  -15.5000 C.2     1  UNL1        0.0200
     16  C         24.5630  -23.3020  -16.3100 C.2     1  UNL1        0.0110
     17 BR         24.1100  -23.2510  -18.1440 Br      1  UNL1       -0.0510
     18  C         25.1700  -24.4410  -15.7790 C.2     1  UNL1        0.0200
     19  C         25.5070  -24.4810  -14.4220 C.2     1  UNL1        0.0180
     20  O         19.6660  -21.7410  -11.6880 O.2     1  UNL1       -0.3530
     21  C         20.0530  -20.3750  -11.7480 C.3     1  UNL1        0.2100
     22  O         18.0960  -23.4890  -10.2940 O.3     1  UNL1       -0.2720
     23  C         17.3740  -22.4970   -9.6630 C.2     1  UNL1        0.2990
     24  O         17.1940  -21.3440  -10.0260 O.2     1  UNL1       -0.2590
     25  C         16.9430  -23.0010   -8.3390 C.2     1  UNL1        0.0510
     26  C         15.9200  -23.9620   -8.3660 C.2     1  UNL1        0.0180
     27  C         15.4250  -24.4870   -7.1790 C.2     1  UNL1        0.0020
     28  C         15.9540  -24.0590   -5.9630 C.2     1  UNL1        0.0120
     29  C         16.9930  -23.1150   -5.9130 C.2     1  UNL1       -0.0250
     30  C         17.5190  -22.7180   -4.6720 C.2     1  UNL1        0.0120
     31  C         17.5170  -22.5700   -7.1130 C.2     1  UNL1       -0.0100
     32  C         18.5630  -21.7980   -4.5940 C.2     1  UNL1        0.0010
     33  C         19.1010  -21.2670   -5.7570 C.2     1  UNL1        0.0010
     34  C         18.5890  -21.6500   -6.9990 C.2     1  UNL1        0.0130
@<TRIPOS>BOND
     1    17    16    1
     2    16    18    2
     3    16    15    1
     4    18    19    1
     5    15    14    2
     6    19    13    2
     7    14    13    1
     8    13    10    1
     9    10    11    2
    10    10     9   am
    11    21    20    1
    12    20     1    1
    13    12     9    1
    14     9     8    1
    15     1     2    2
    16     1     6    1
    17     2     3    1
    18    22     6    1
    19    22    23    1
    20     6     5    2
    21    24    23    2
    22     8     7    2
    23    23    25    1
    24     3     7    1
    25     3     4    2
    26     5     4    1
    27    26    25    2
    28    26    27    1
    29    25    31    1
    30    27    28    2
    31    31    34    1
    32    31    29    2
    33    34    33    2
    34    28    29    1
    35    29    30    1
    36    33    32    1
    37    30    32    2
