@<TRIPOS>MOLECULE
76126_out_ligand_01.pdbqt
 32 36 0 0 0
SMALL
GASTEIGER

@<TRIPOS>ATOM
      1  C         21.2350  -21.8940  -11.8350 C.2     1  UNL1        0.0330
      2  C         20.1180  -21.2070  -12.3710 C.2     1  UNL1        0.0180
      3  C         18.9050  -21.1640  -11.6720 C.2     1  UNL1        0.0190
      4  C         18.8530  -21.8020  -10.4480 C.2     1  UNL1        0.0480
      5  C         19.9440  -22.4570   -9.9160 C.2     1  UNL1        0.0490
      6  C         21.1530  -22.5220  -10.5820 C.2     1  UNL1        0.0350
      7  C         19.5390  -23.0240   -8.6330 C.2     1  UNL1        0.2660
      8  O         20.2720  -23.7790   -8.0200 O.2     1  UNL1       -0.2670
      9  N         18.2440  -22.6120   -8.4030 N.am    1  UNL1       -0.2430
     10  C         17.7520  -21.9330   -9.4980 C.2     1  UNL1        0.2660
     11  O         16.6500  -21.4740   -9.7370 O.2     1  UNL1       -0.2670
     12  C         22.5360  -21.9370  -12.5580 C.2     1  UNL1        0.2560
     13  O         23.4920  -22.4380  -11.9820 O.2     1  UNL1       -0.2670
     14  N         22.5070  -21.4210  -13.8400 N.am    1  UNL1       -0.3230
     15  H         21.6050  -21.1600  -14.2160 H       1  UNL1        0.1690
     16  C         23.5920  -21.2960  -14.7330 C.2     1  UNL1        0.0350
     17  C         24.4490  -20.1940  -14.7720 C.2     1  UNL1        0.0310
     18  C         25.5020  -20.1430  -15.6940 C.2     1  UNL1        0.0210
     19  C         25.6990  -21.1960  -16.5820 C.2     1  UNL1        0.0110
     20 BR         27.1200  -21.1270  -17.8260 Br      1  UNL1       -0.0510
     21  C         24.8540  -22.3010  -16.5580 C.2     1  UNL1        0.0210
     22  C         23.8030  -22.3490  -15.6360 C.2     1  UNL1        0.0310
     23  C         17.4530  -23.0090   -7.2840 C.2     1  UNL1        0.0570
     24  C         16.4080  -23.9270   -7.5120 C.2     1  UNL1        0.0310
     25  C         15.6420  -24.4250   -6.4640 C.2     1  UNL1        0.0030
     26  C         15.8940  -24.0070   -5.1650 C.2     1  UNL1        0.0120
     27  C         16.8910  -23.0610   -4.8960 C.2     1  UNL1       -0.0240
     28  C         17.0820  -22.6320   -3.5720 C.2     1  UNL1        0.0120
     29  C         17.6800  -22.5280   -5.9530 C.2     1  UNL1        0.0020
     30  C         18.0210  -21.6540   -3.2600 C.2     1  UNL1        0.0010
     31  C         18.7710  -21.0810   -4.2740 C.2     1  UNL1        0.0010
     32  C         18.5950  -21.5040   -5.5950 C.2     1  UNL1        0.0140
@<TRIPOS>BOND
     1    20    19    1
     2    19    21    2
     3    19    18    1
     4    21    22    1
     5    18    17    2
     6    22    16    2
     7    17    16    1
     8    16    14    1
     9    15    14    1
    10    14    12   am
    11    12    13    2
    12    12     1    1
    13     2     1    2
    14     2     3    1
    15     1     6    1
    16     3     4    2
    17     6     5    2
    18     4     5    1
    19     4    10    1
    20     5     7    1
    21    11    10    2
    22    10     9   am
    23     7     9   am
    24     7     8    2
    25     9    23    1
    26    24    23    2
    27    24    25    1
    28    23    29    1
    29    25    26    2
    30    29    32    1
    31    29    27    2
    32    32    31    2
    33    26    27    1
    34    27    28    1
    35    31    30    1
    36    28    30    2
