@<TRIPOS>MOLECULE
76153_out_ligand_01.pdbqt
 35 38 0 0 0
SMALL
GASTEIGER

@<TRIPOS>ATOM
      1  C         22.9520  -22.5980  -11.4300 C.2     1  UNL1        0.0800
      2  C         23.1310  -23.2600  -10.2140 C.2     1  UNL1        0.0270
      3  C         22.0480  -23.3950   -9.3390 C.2     1  UNL1        0.0310
      4  C         20.7890  -22.8760   -9.6740 C.2     1  UNL1        0.0350
      5  C         20.6250  -22.2260  -10.8990 C.2     1  UNL1        0.0310
      6  C         21.7020  -22.0880  -11.7820 C.2     1  UNL1        0.0270
      7  S         24.3340  -22.4160  -12.5310 S.O2    1  UNL1        0.2640
      8  O         25.2330  -21.4690  -11.9070 O.2     1  UNL1       -0.2000
      9  O         24.7820  -23.7290  -12.9380 O.2     1  UNL1       -0.2000
     10  N         23.6600  -21.6370  -13.8390 N.pl3   1  UNL1       -0.2640
     11  H         22.9830  -20.9200  -13.5910 H       1  UNL1        0.1800
     12  C         24.3730  -21.3700  -15.0240 C.2     1  UNL1        0.1450
     13  C         25.2510  -20.3350  -15.2100 C.2     1  UNL1        0.1090
     14  C         25.9130  -20.3460  -16.4120 C.2     1  UNL1        0.1710
     15  N         25.7570  -21.2960  -17.3460 N.2     1  UNL1       -0.1820
     16  C         24.8950  -22.2690  -17.0420 C.1     1  UNL1        0.2720
     17  N         24.1980  -22.3670  -15.9010 N.2     1  UNL1       -0.1890
     18  O         26.7990  -19.3090  -16.6260 O.2     1  UNL1       -0.3390
     19  C         26.5360  -18.1660  -15.8170 C.3     1  UNL1        0.2110
     20  O         24.7690  -23.2410  -18.0110 O.2     1  UNL1       -0.3240
     21  C         23.4400  -23.7220  -18.1530 C.3     1  UNL1        0.2130
     22  N         19.7560  -23.0470   -8.7310 N.am    1  UNL1       -0.3230
     23  C         18.4410  -22.6350   -8.8420 C.2     1  UNL1        0.2570
     24  O         17.9030  -22.0890   -9.7950 O.2     1  UNL1       -0.2670
     25  H         20.0010  -23.5410   -7.8810 H       1  UNL1        0.1690
     26  C         17.6100  -22.9680   -7.6580 C.2     1  UNL1        0.0430
     27  C         16.5790  -23.8940   -7.8700 C.2     1  UNL1        0.0180
     28  C         15.7930  -24.3100   -6.8020 C.2     1  UNL1        0.0020
     29  C         16.0350  -23.8010   -5.5270 C.2     1  UNL1        0.0120
     30  C         17.0490  -22.8550   -5.3000 C.2     1  UNL1       -0.0250
     31  C         17.2620  -22.3440   -4.0080 C.2     1  UNL1        0.0120
     32  C         17.8540  -22.4090   -6.3770 C.2     1  UNL1       -0.0100
     33  C         18.2480  -21.3870   -3.7680 C.2     1  UNL1        0.0010
     34  C         19.0280  -20.9190   -4.8170 C.2     1  UNL1        0.0010
     35  C         18.8310  -21.4190   -6.1060 C.2     1  UNL1        0.0130
@<TRIPOS>BOND
     1    21    20    1
     2    20    16    1
     3    15    16    2
     4    15    14    2
     5    16    17    2
     6    18    14    1
     7    18    19    1
     8    14    13    1
     9    17    12    1
    10    13    12    2
    11    12    10    1
    12    10    11    1
    13    10     7    1
    14     9     7    2
    15     7     8    2
    16     7     1    1
    17     6     1    2
    18     6     5    1
    19     1     2    1
    20     5     4    2
    21     2     3    2
    22    24    23    2
    23     4     3    1
    24     4    22    1
    25    23    22   am
    26    23    26    1
    27    22    25    1
    28    27    26    2
    29    27    28    1
    30    26    32    1
    31    28    29    2
    32    32    35    1
    33    32    30    2
    34    35    34    2
    35    29    30    1
    36    30    31    1
    37    34    33    1
    38    31    33    2
