@<TRIPOS>MOLECULE
76151_out_ligand_01.pdbqt
 30 34 0 0 0
SMALL
GASTEIGER

@<TRIPOS>ATOM
      1  C         22.9760  -22.2160  -10.0650 C.2     1  UNL1        0.0740
      2  C         22.9810  -21.9140   -8.7040 C.2     1  UNL1        0.0260
      3  C         21.7990  -22.0370   -7.9740 C.2     1  UNL1        0.0250
      4  C         20.6110  -22.4540   -8.5920 C.2     1  UNL1        0.0160
      5  C         20.5980  -22.6950   -9.9760 C.2     1  UNL1       -0.0270
      6  C         21.7950  -22.5950  -10.7060 C.2     1  UNL1        0.0340
      7  C         19.2970  -23.0150  -10.6860 C.3     1  UNL1        0.0490
      8  C         18.9700  -21.9970  -11.7490 C.3     1  UNL1       -0.0210
      9  C         18.0550  -21.1150  -11.3290 C.3     1  UNL1       -0.0290
     10  C         17.6060  -21.4220   -9.9360 C.3     1  UNL1        0.0340
     11  C         18.0500  -22.8910   -9.7760 C.3     1  UNL1        0.0230
     12  C         18.3720  -23.3950   -8.3590 C.3     1  UNL1        0.0990
     13  N         19.4720  -22.6090   -7.7980 N.pl3   1  UNL1       -0.2830
     14  H         19.1780  -21.7380   -7.3630 H       1  UNL1        0.1280
     15  C         17.2410  -23.5190   -7.3280 C.2     1  UNL1       -0.0290
     16  C         16.1060  -24.3090   -7.5910 C.2     1  UNL1        0.0100
     17  C         15.0650  -24.4230   -6.6720 C.2     1  UNL1        0.0020
     18  C         15.1420  -23.7680   -5.4520 C.2     1  UNL1        0.0120
     19  C         16.2660  -23.0070   -5.1200 C.2     1  UNL1       -0.0250
     20  C         16.3230  -22.3810   -3.8620 C.2     1  UNL1        0.0120
     21  C         17.3390  -22.8780   -6.0430 C.2     1  UNL1       -0.0180
     22  C         17.4340  -21.6340   -3.4800 C.2     1  UNL1        0.0010
     23  C         18.5030  -21.5060   -4.3520 C.2     1  UNL1        0.0010
     24  C         18.4550  -22.1190   -5.6080 C.2     1  UNL1        0.0130
     25  S         24.4820  -22.0730  -10.9890 S.O2    1  UNL1        0.2390
     26  O         25.1370  -20.8450  -10.6120 O.2     1  UNL1       -0.2060
     27  O         24.2140  -22.4250  -12.3650 O.2     1  UNL1       -0.2060
     28  N         25.3780  -23.3570  -10.3650 N.3     1  UNL1       -0.2250
     29  H         24.8330  -24.2110  -10.2550 H       1  UNL1        0.1360
     30  H         26.2000  -23.5000  -10.9520 H       1  UNL1        0.1360
@<TRIPOS>BOND
     1    27    25    2
     2     8     9    1
     3     8     7    1
     4     9    10    1
     5    25    26    2
     6    25    28    1
     7    25     1    1
     8    30    28    1
     9     6     1    2
    10     6     5    1
    11     7     5    1
    12     7    11    1
    13    28    29    1
    14     1     2    1
    15     5     4    2
    16    10    11    1
    17    11    12    1
    18     2     3    2
    19     4     3    1
    20     4    13    1
    21    12    13    1
    22    12    15    1
    23    13    14    1
    24    16    15    2
    25    16    17    1
    26    15    21    1
    27    17    18    2
    28    21    24    1
    29    21    19    2
    30    24    23    2
    31    18    19    1
    32    19    20    1
    33    23    22    1
    34    20    22    2
