@<TRIPOS>MOLECULE
76157_out_ligand_01.pdbqt
 28 31 0 0 0
SMALL
GASTEIGER

@<TRIPOS>ATOM
      1  C         21.0820  -22.2910  -10.6760 C.2     1  UNL1        0.0320
      2  C         21.5290  -22.7750   -9.4460 C.2     1  UNL1        0.0190
      3  C         20.6400  -22.9070   -8.3690 C.2     1  UNL1        0.0310
      4  C         19.2800  -22.5740   -8.4870 C.2     1  UNL1        0.0460
      5  C         18.8500  -22.1110   -9.7430 C.2     1  UNL1        0.0310
      6  C         19.7320  -21.9730  -10.8270 C.2     1  UNL1        0.0190
      7  C         22.0570  -22.1640  -11.7960 C.2     1  UNL1        0.2560
      8  O         21.6680  -21.6730  -12.8480 O.2     1  UNL1       -0.2670
      9  N         23.3190  -22.6620  -11.5280 N.am    1  UNL1       -0.3230
     10  H         23.4400  -23.1580  -10.6550 H       1  UNL1        0.1690
     11  C         24.4460  -22.6410  -12.3780 C.2     1  UNL1        0.0360
     12  C         24.9160  -23.7560  -13.0770 C.2     1  UNL1        0.0290
     13  C         26.0390  -23.6560  -13.9060 C.2     1  UNL1        0.0040
     14  C         26.7000  -22.4380  -14.0470 C.2     1  UNL1        0.0190
     15  C         26.2320  -21.3250  -13.3570 C.2     1  UNL1        0.0130
     16 BR         27.1210  -19.6650  -13.5440 Br      1  UNL1       -0.0510
     17  C         25.1130  -21.4190  -12.5270 C.2     1  UNL1        0.0480
     18  N         18.3740  -22.7080   -7.3850 N.am    1  UNL1       -0.2440
     19  C         17.2410  -23.5010   -7.3810 C.2     1  UNL1        0.2660
     20  O         16.7440  -24.2210   -8.2290 O.2     1  UNL1       -0.2670
     21  C         16.6120  -23.3530   -6.0740 C.2     1  UNL1        0.0480
     22  C         15.4650  -23.9310   -5.5610 C.2     1  UNL1        0.0180
     23  C         17.3740  -22.4750   -5.3390 C.2     1  UNL1        0.0480
     24  C         15.1020  -23.5910   -4.2540 C.2     1  UNL1        0.0010
     25  C         15.8840  -22.6930   -3.5020 C.2     1  UNL1        0.0010
     26  C         17.0390  -22.1220   -4.0440 C.2     1  UNL1        0.0180
     27  C         18.4980  -22.0580   -6.1710 C.2     1  UNL1        0.2660
     28  O         19.3210  -21.2690   -5.7450 O.2     1  UNL1       -0.2670
@<TRIPOS>BOND
     1    14    13    2
     2    14    15    1
     3    13    12    1
     4    16    15    1
     5    15    17    2
     6    12    11    2
     7     8     7    2
     8    17    11    1
     9    11     9    1
    10     7     9   am
    11     7     1    1
    12     9    10    1
    13     6     1    2
    14     6     5    1
    15     1     2    1
    16     5     4    2
    17     2     3    2
    18     4     3    1
    19     4    18    1
    20    20    19    2
    21    18    19   am
    22    18    27   am
    23    19    21    1
    24    27    28    2
    25    27    23    1
    26    21    22    2
    27    21    23    1
    28    22    24    1
    29    23    26    2
    30    24    25    2
    31    26    25    1
