@<TRIPOS>MOLECULE
76161_out_ligand_01.pdbqt
 28 31 0 0 0
SMALL
GASTEIGER

@<TRIPOS>ATOM
      1  C         21.9280  -21.9890   -9.8080 C.2     1  UNL1        0.0320
      2  C         22.1390  -22.1220   -8.4360 C.2     1  UNL1        0.0190
      3  C         21.0550  -22.3130   -7.5670 C.2     1  UNL1        0.0310
      4  C         19.7310  -22.3680   -8.0340 C.2     1  UNL1        0.0460
      5  C         19.5450  -22.2080   -9.4190 C.2     1  UNL1        0.0310
      6  C         20.6220  -22.0170  -10.2980 C.2     1  UNL1        0.0190
      7  C         23.1040  -21.7860  -10.7010 C.2     1  UNL1        0.2560
      8  O         24.1060  -21.2630  -10.2290 O.2     1  UNL1       -0.2670
      9  N         22.9420  -22.2590  -11.9910 N.am    1  UNL1       -0.3230
     10  H         22.1020  -22.7860  -12.1850 H       1  UNL1        0.1690
     11  C         23.8650  -22.1700  -13.0550 C.2     1  UNL1        0.0350
     12  C         23.6360  -21.1750  -14.0180 C.2     1  UNL1        0.0310
     13  C         24.5060  -21.0170  -15.1020 C.2     1  UNL1        0.0210
     14  C         25.6130  -21.8510  -15.2250 C.2     1  UNL1        0.0110
     15 BR         26.7910  -21.6400  -16.6870 Br      1  UNL1       -0.0510
     16  C         25.8550  -22.8400  -14.2760 C.2     1  UNL1        0.0210
     17  C         24.9820  -22.9970  -13.1930 C.2     1  UNL1        0.0310
     18  N         18.6260  -22.5660   -7.1440 N.am    1  UNL1       -0.2440
     19  C         17.5630  -23.4210   -7.3740 C.2     1  UNL1        0.2660
     20  O         17.2970  -24.1640   -8.3010 O.2     1  UNL1       -0.2670
     21  C         16.6710  -23.3220   -6.2240 C.2     1  UNL1        0.0480
     22  C         15.4780  -23.9700   -5.9600 C.2     1  UNL1        0.0180
     23  C         17.2140  -22.4120   -5.3480 C.2     1  UNL1        0.0480
     24  C         14.8360  -23.6660   -4.7560 C.2     1  UNL1        0.0010
     25  C         15.3930  -22.7340   -3.8580 C.2     1  UNL1        0.0010
     26  C         16.6000  -22.0930   -4.1520 C.2     1  UNL1        0.0180
     27  C         18.4580  -21.9230   -5.9320 C.2     1  UNL1        0.2660
     28  O         19.1280  -21.0870   -5.3500 O.2     1  UNL1       -0.2670
@<TRIPOS>BOND
     1    15    14    1
     2    14    13    2
     3    14    16    1
     4    13    12    1
     5    16    17    2
     6    12    11    2
     7    17    11    1
     8    11     9    1
     9    10     9    1
    10     9     7   am
    11     7     8    2
    12     7     1    1
    13     6     1    2
    14     6     5    1
    15     1     2    1
    16     5     4    2
    17     2     3    2
    18    20    19    2
    19     4     3    1
    20     4    18    1
    21    19    18   am
    22    19    21    1
    23    18    27   am
    24    21    22    2
    25    21    23    1
    26    22    24    1
    27    27    28    2
    28    27    23    1
    29    23    26    2
    30    24    25    2
    31    26    25    1
