@<TRIPOS>MOLECULE
76188_out_ligand_01.pdbqt
 28 31 0 0 0
SMALL
GASTEIGER

@<TRIPOS>ATOM
      1  C         20.4920  -22.4520   -7.5310 C.2     1  UNL1        0.0320
      2  C         20.4660  -23.5880   -8.3490 C.2     1  UNL1        0.0170
      3  C         21.5490  -23.8660   -9.1870 C.2     1  UNL1        0.0100
      4  C         22.6600  -23.0090   -9.2340 C.2     1  UNL1       -0.0300
      5  C         22.6710  -21.8670   -8.4200 C.2     1  UNL1        0.0100
      6  C         21.5910  -21.5880   -7.5800 C.2     1  UNL1        0.0170
      7  C         19.3610  -22.1130   -6.6210 C.2     1  UNL1        0.2560
      8  O         19.4440  -21.0960   -5.9430 O.2     1  UNL1       -0.2670
      9  N         18.3260  -23.0320   -6.6090 N.am    1  UNL1       -0.3230
     10  H         18.4720  -23.8900   -7.1250 H       1  UNL1        0.1690
     11  C         17.1200  -22.9550   -5.8800 C.2     1  UNL1        0.0360
     12  C         17.0710  -23.6360   -4.6550 C.2     1  UNL1        0.0290
     13  C         15.9150  -23.6170   -3.8700 C.2     1  UNL1        0.0040
     14  C         14.7940  -22.9160   -4.3060 C.2     1  UNL1        0.0240
     15  C         14.8360  -22.2400   -5.5230 C.2     1  UNL1        0.0360
     16 CL         13.4440  -21.3800   -6.0600 Cl      1  UNL1       -0.0840
     17  C         15.9900  -22.2570   -6.3110 C.2     1  UNL1        0.0530
     18  C         23.8340  -23.3190  -10.1410 C.3     1  UNL1        0.3110
     19  N         24.0590  -22.3000  -11.1790 N.3     1  UNL1        0.0970
     20  C         24.0530  -22.9200  -12.5140 C.3     1  UNL1        0.2770
     21  C         24.0860  -21.8470  -13.6100 C.3     1  UNL1        0.0690
     22  C         25.1670  -20.8240  -13.3830 C.2     1  UNL1       -0.0490
     23  C         25.5670  -19.9750  -14.4240 C.2     1  UNL1        0.0070
     24  C         25.7330  -20.6770  -12.1040 C.2     1  UNL1       -0.0240
     25  C         26.5430  -19.0040  -14.2050 C.2     1  UNL1        0.0010
     26  C         27.1200  -18.8680  -12.9450 C.2     1  UNL1        0.0010
     27  C         26.7200  -19.7010  -11.9000 C.2     1  UNL1        0.0090
     28  C         25.3430  -21.5990  -10.9670 C.3     1  UNL1        0.3110
@<TRIPOS>BOND
     1    23    25    1
     2    23    22    2
     3    25    26    2
     4    21    22    1
     5    21    20    1
     6    22    24    1
     7    26    27    1
     8    20    19    1
     9    24    27    2
    10    24    28    1
    11    19    28    1
    12    19    18    1
    13    18     4    1
    14     4     3    2
    15     4     5    1
    16     3     2    1
    17     5     6    2
    18     2     1    2
    19     6     1    1
    20     1     7    1
    21    10     9    1
    22     7     9   am
    23     7     8    2
    24     9    11    1
    25    17    11    2
    26    17    15    1
    27    16    15    1
    28    11    12    1
    29    15    14    2
    30    12    13    2
    31    14    13    1
