@<TRIPOS>MOLECULE
76187_out_ligand_01.pdbqt
 28 31 0 0 0
SMALL
GASTEIGER

@<TRIPOS>ATOM
      1  C         20.1110  -22.0500  -11.2180 C.2     1  UNL1        0.0320
      2  C         19.9520  -23.0670  -10.2690 C.2     1  UNL1        0.0170
      3  C         18.6970  -23.3240   -9.7150 C.2     1  UNL1        0.0100
      4  C         17.5840  -22.5570  -10.0920 C.2     1  UNL1       -0.0300
      5  C         17.7540  -21.5310  -11.0350 C.2     1  UNL1        0.0100
      6  C         19.0100  -21.2710  -11.5900 C.2     1  UNL1        0.0170
      7  C         21.4700  -21.8130  -11.7830 C.2     1  UNL1        0.2560
      8  N         22.4990  -22.4330  -11.0960 N.am    1  UNL1       -0.3230
      9  H         22.2560  -22.8970  -10.2320 H       1  UNL1        0.1690
     10  O         21.5710  -21.0800  -12.7580 O.2     1  UNL1       -0.2670
     11  C         23.8750  -22.4090  -11.4070 C.2     1  UNL1        0.0350
     12  C         24.6680  -21.4830  -10.7170 C.2     1  UNL1        0.0290
     13  C         26.0400  -21.3990  -10.9620 C.2     1  UNL1        0.0030
     14  C         26.6340  -22.2390  -11.9000 C.2     1  UNL1        0.0070
     15  C         25.8580  -23.1640  -12.6070 C.2     1  UNL1       -0.0600
     16  C         26.5010  -24.0910  -13.5960 C.3     1  UNL1        0.0480
     17  C         24.4810  -23.2500  -12.3430 C.2     1  UNL1        0.0360
     18  C         16.2180  -22.8410   -9.4990 C.3     1  UNL1        0.3110
     19  N         16.1830  -22.7430   -8.0310 N.3     1  UNL1        0.0970
     20  C         16.0340  -24.0810   -7.4350 C.3     1  UNL1        0.2770
     21  C         15.8010  -23.9820   -5.9210 C.3     1  UNL1        0.0690
     22  C         16.8050  -23.0860   -5.2430 C.2     1  UNL1       -0.0490
     23  C         16.9610  -23.1290   -3.8520 C.2     1  UNL1        0.0070
     24  C         17.5400  -22.1580   -6.0020 C.2     1  UNL1       -0.0240
     25  C         17.8620  -22.2750   -3.2170 C.2     1  UNL1        0.0010
     26  C         18.6070  -21.3680   -3.9670 C.2     1  UNL1        0.0010
     27  C         18.4500  -21.3120   -5.3530 C.2     1  UNL1        0.0090
     28  C         17.4130  -22.1080   -7.5110 C.3     1  UNL1        0.3110
@<TRIPOS>BOND
     1    16    15    1
     2    10     7    2
     3    15    17    1
     4    15    14    2
     5    17    11    2
     6    14    13    1
     7     7     1    1
     8     7     8   am
     9     6     1    2
    10     6     5    1
    11    11     8    1
    12    11    12    1
    13     1     2    1
    14     8     9    1
    15     5     4    2
    16    13    12    2
    17     2     3    2
    18     4     3    1
    19     4    18    1
    20    18    19    1
    21    19    28    1
    22    19    20    1
    23    28    24    1
    24    20    21    1
    25    24    27    1
    26    24    22    2
    27    21    22    1
    28    27    26    2
    29    22    23    1
    30    26    25    1
    31    23    25    2
