@<TRIPOS>MOLECULE
76193_out_ligand_01.pdbqt
 31 35 0 0 0
SMALL
GASTEIGER

@<TRIPOS>ATOM
      1  C         20.8990  -22.7790  -10.3110 C.2     1  UNL1        0.0320
      2  C         20.3050  -21.9240  -11.2460 C.2     1  UNL1        0.0170
      3  C         21.0540  -21.4430  -12.3220 C.2     1  UNL1        0.0100
      4  C         22.3960  -21.8180  -12.4860 C.2     1  UNL1       -0.0300
      5  C         22.9770  -22.6920  -11.5560 C.2     1  UNL1        0.0100
      6  C         22.2310  -23.1750  -10.4780 C.2     1  UNL1        0.0170
      7  C         20.1390  -23.3110   -9.1430 C.2     1  UNL1        0.2560
      8  O         20.6400  -24.2200   -8.4930 O.2     1  UNL1       -0.2670
      9  N         18.9400  -22.6640   -8.8940 N.am    1  UNL1       -0.3220
     10  H         18.7680  -21.8400   -9.4470 H       1  UNL1        0.1690
     11  C         17.9680  -22.9660   -7.9030 C.2     1  UNL1        0.0460
     12  C         16.8900  -23.8160   -8.1830 C.2     1  UNL1        0.0300
     13  C         15.9270  -24.0970   -7.2170 C.2     1  UNL1        0.0030
     14  C         16.0260  -23.5290   -5.9520 C.2     1  UNL1        0.0120
     15  C         17.0850  -22.6720   -5.6330 C.2     1  UNL1       -0.0240
     16  C         17.1520  -22.1180   -4.3450 C.2     1  UNL1        0.0120
     17  C         18.0800  -22.3720   -6.6030 C.2     1  UNL1        0.0010
     18  C         18.1890  -21.2630   -3.9800 C.2     1  UNL1        0.0010
     19  C         19.1740  -20.9530   -4.9050 C.2     1  UNL1        0.0010
     20  C         19.1230  -21.4980   -6.1900 C.2     1  UNL1        0.0140
     21  C         23.2040  -21.2910  -13.6550 C.3     1  UNL1        0.3110
     22  N         24.5930  -21.7790  -13.6550 N.3     1  UNL1        0.0970
     23  C         24.8890  -22.6070  -14.8350 C.3     1  UNL1        0.2770
     24  C         24.8230  -21.8560  -16.1740 C.3     1  UNL1        0.0690
     25  C         25.4650  -20.4920  -16.1110 C.2     1  UNL1       -0.0490
     26  C         25.6930  -19.7710  -17.2920 C.2     1  UNL1        0.0070
     27  C         25.7790  -19.9120  -14.8680 C.2     1  UNL1       -0.0240
     28  C         26.2460  -18.4940  -17.2420 C.2     1  UNL1        0.0010
     29  C         26.5730  -17.9230  -16.0150 C.2     1  UNL1        0.0010
     30  C         26.3420  -18.6290  -14.8340 C.2     1  UNL1        0.0090
     31  C         25.5770  -20.6810  -13.5780 C.3     1  UNL1        0.3110
@<TRIPOS>BOND
     1    26    28    1
     2    26    25    2
     3    28    29    2
     4    24    25    1
     5    24    23    1
     6    25    27    1
     7    29    30    1
     8    27    30    2
     9    27    31    1
    10    23    22    1
    11    22    21    1
    12    22    31    1
    13    21     4    1
    14     4     3    2
    15     4     5    1
    16     3     2    1
    17     5     6    2
    18     2     1    2
    19     6     1    1
    20     1     7    1
    21    10     9    1
    22     7     9   am
    23     7     8    2
    24     9    11    1
    25    12    11    2
    26    12    13    1
    27    11    17    1
    28    13    14    2
    29    17    20    1
    30    17    15    2
    31    20    19    2
    32    14    15    1
    33    15    16    1
    34    19    18    1
    35    16    18    2
