@<TRIPOS>MOLECULE
76206_out_ligand_01.pdbqt
 31 34 0 0 0
SMALL
GASTEIGER

@<TRIPOS>ATOM
      1  N         19.2790  -22.7580   -9.3160 N.am    1  UNL1       -0.2430
      2  C         20.4880  -23.4090   -9.1800 C.2     1  UNL1        0.2660
      3  O         20.8770  -24.2320   -8.3700 O.2     1  UNL1       -0.2670
      4  C         21.3400  -22.9610  -10.2770 C.2     1  UNL1        0.0480
      5  C         22.6310  -23.3190  -10.6140 C.2     1  UNL1        0.0190
      6  C         23.1970  -22.6960  -11.7320 C.2     1  UNL1        0.0180
      7  C         22.4690  -21.7420  -12.4870 C.2     1  UNL1        0.0330
      8  C         21.1660  -21.3890  -12.1090 C.2     1  UNL1        0.0350
      9  C         20.6320  -22.0290  -11.0030 C.2     1  UNL1        0.0490
     10  C         19.3290  -21.8680  -10.3680 C.2     1  UNL1        0.2660
     11  O         18.5540  -21.0140  -10.7580 O.2     1  UNL1       -0.2670
     12  C         23.1460  -21.1060  -13.6560 C.2     1  UNL1        0.2560
     13  O         22.4730  -20.3680  -14.3660 O.2     1  UNL1       -0.2670
     14  N         24.4900  -21.4000  -13.7870 N.am    1  UNL1       -0.3220
     15  H         24.9140  -21.9210  -13.0330 H       1  UNL1        0.1690
     16  C         25.3780  -20.9870  -14.8150 C.2     1  UNL1        0.0410
     17  C         26.0230  -19.7470  -14.7760 C.2     1  UNL1        0.0300
     18  C         26.8870  -19.3550  -15.7970 C.2     1  UNL1        0.0030
     19  C         27.1170  -20.1990  -16.8750 C.2     1  UNL1        0.0070
     20  C         26.4860  -21.4480  -16.9540 C.2     1  UNL1       -0.0540
     21  C         26.7770  -22.3130  -18.1520 C.3     1  UNL1        0.0490
     22  C         25.6040  -21.8540  -15.9190 C.2     1  UNL1       -0.0290
     23  C         24.9130  -23.1960  -15.9890 C.3     1  UNL1        0.0510
     24  C         18.1940  -22.8870   -8.4010 C.2     1  UNL1        0.0510
     25  C         17.0100  -23.5060   -8.8470 C.2     1  UNL1        0.0310
     26  C         15.9240  -23.7250   -7.9940 C.2     1  UNL1        0.0090
     27  C         15.9810  -23.3140   -6.6660 C.2     1  UNL1       -0.0610
     28  C         14.8410  -23.5870   -5.7300 C.3     1  UNL1        0.0480
     29  C         17.1410  -22.6820   -6.2100 C.2     1  UNL1        0.0150
     30  C         18.2380  -22.4310   -7.0650 C.2     1  UNL1       -0.0340
     31  C         19.3670  -21.6300   -6.4730 C.3     1  UNL1        0.0500
@<TRIPOS>BOND
     1    21    20    1
     2    20    19    2
     3    20    22    1
     4    19    18    1
     5    23    22    1
     6    22    16    2
     7    18    17    2
     8    16    17    1
     9    16    14    1
    10    13    12    2
    11    14    12   am
    12    14    15    1
    13    12     7    1
    14     7     8    2
    15     7     6    1
    16     8     9    1
    17     6     5    2
    18     9    10    1
    19     9     4    2
    20    11    10    2
    21     5     4    1
    22    10     1   am
    23     4     2    1
    24     1     2   am
    25     1    24    1
    26     2     3    2
    27    25    24    2
    28    25    26    1
    29    24    30    1
    30    26    27    2
    31    30    31    1
    32    30    29    2
    33    27    29    1
    34    27    28    1
