@<TRIPOS>MOLECULE
76203_out_ligand_01.pdbqt
 33 36 0 0 0
SMALL
GASTEIGER

@<TRIPOS>ATOM
      1  C         22.0650  -23.1100  -10.1410 C.2     1  UNL1        0.0330
      2  C         23.3510  -23.3080   -9.5820 C.2     1  UNL1        0.0180
      3  C         24.4950  -22.8490  -10.2470 C.2     1  UNL1        0.0190
      4  C         24.3140  -22.2100  -11.4620 C.2     1  UNL1        0.0480
      5  C         23.0670  -22.0300  -12.0120 C.2     1  UNL1        0.0490
      6  C         21.9180  -22.4720  -11.3820 C.2     1  UNL1        0.0350
      7  C         23.2400  -21.3330  -13.2820 C.2     1  UNL1        0.2660
      8  O         22.2700  -21.0400  -13.9570 O.2     1  UNL1       -0.2670
      9  N         24.5960  -21.1250  -13.4570 N.am    1  UNL1       -0.2440
     10  C         25.2930  -21.6350  -12.3780 C.2     1  UNL1        0.2660
     11  O         26.4780  -21.6700  -12.1020 O.2     1  UNL1       -0.2670
     12  C         20.8400  -23.6050   -9.4550 C.2     1  UNL1        0.2560
     13  N         19.7970  -22.6990   -9.3950 N.am    1  UNL1       -0.3230
     14  H         19.9020  -21.8410   -9.9210 H       1  UNL1        0.1690
     15  O         20.8410  -24.7570   -9.0430 O.2     1  UNL1       -0.2670
     16  C         18.5440  -22.8810   -8.7700 C.2     1  UNL1        0.0350
     17  C         17.4180  -22.9030   -9.6030 C.2     1  UNL1        0.0290
     18  C         16.1390  -23.0760   -9.0710 C.2     1  UNL1        0.0030
     19  C         15.9710  -23.2250   -7.6970 C.2     1  UNL1        0.0180
     20  C         17.0860  -23.1990   -6.8480 C.2     1  UNL1        0.0410
     21  C         18.3690  -23.0240   -7.3900 C.2     1  UNL1        0.0470
     22  C         16.9560  -23.3390   -5.3710 C.2     1  UNL1        0.2930
     23  O         17.3110  -24.3260   -4.7470 O.2     1  UNL1       -0.2590
     24  O         16.3920  -22.2260   -4.8350 O.3     1  UNL1       -0.3230
     25  C         15.1880  -22.4820   -4.1090 C.3     1  UNL1        0.2130
     26  C         25.1880  -20.4710  -14.5860 C.2     1  UNL1        0.0460
     27  C         25.2010  -21.0650  -15.8560 C.2     1  UNL1        0.0310
     28  C         25.7790  -20.4250  -16.9610 C.2     1  UNL1        0.0090
     29  C         26.3670  -19.1630  -16.8380 C.2     1  UNL1       -0.0560
     30  C         26.9820  -18.5130  -18.0460 C.3     1  UNL1        0.0490
     31  C         26.3820  -18.5490  -15.5770 C.2     1  UNL1       -0.0540
     32  C         27.0000  -17.1910  -15.3750 C.3     1  UNL1        0.0490
     33  C         25.7890  -19.2060  -14.4770 C.2     1  UNL1        0.0370
@<TRIPOS>BOND
     1    30    29    1
     2    28    29    2
     3    28    27    1
     4    29    31    1
     5    27    26    2
     6    31    32    1
     7    31    33    2
     8    26    33    1
     9    26     9    1
    10     8     7    2
    11     9     7   am
    12     9    10   am
    13     7     5    1
    14    10    11    2
    15    10     4    1
    16     5     4    2
    17     5     6    1
    18     4     3    1
    19     6     1    2
    20     3     2    2
    21     1     2    1
    22     1    12    1
    23    14    13    1
    24    17    18    1
    25    17    16    2
    26    12    13   am
    27    12    15    2
    28    13    16    1
    29    18    19    2
    30    16    21    1
    31    19    20    1
    32    21    20    2
    33    20    22    1
    34    22    24    1
    35    22    23    2
    36    24    25    1
