@<TRIPOS>MOLECULE
76208_out_ligand_01.pdbqt
 33 35 0 0 0
SMALL
GASTEIGER

@<TRIPOS>ATOM
      1  C         19.3370  -22.7120  -10.2310 C.2     1  UNL1        0.0330
      2  C         18.5700  -21.9250  -11.0940 C.2     1  UNL1        0.0170
      3  C         17.1960  -21.7870  -10.8760 C.2     1  UNL1        0.0090
      4  C         16.5580  -22.4460   -9.8080 C.2     1  UNL1       -0.0390
      5  C         15.0790  -22.2350   -9.6340 C.3     1  UNL1        0.0500
      6  C         17.3410  -23.2460   -8.9530 C.2     1  UNL1        0.0860
      7  C         18.7240  -23.3730   -9.1660 C.2     1  UNL1        0.0420
      8  C         20.8000  -22.8930  -10.4390 C.2     1  UNL1        0.2560
      9  N         21.4090  -21.8800  -11.1590 N.am    1  UNL1       -0.3220
     10  H         20.8400  -21.0650  -11.3430 H       1  UNL1        0.1690
     11  O         21.3390  -23.8710   -9.9430 O.2     1  UNL1       -0.2670
     12  C         22.7640  -21.8010  -11.5640 C.2     1  UNL1        0.0430
     13  C         23.1470  -21.8620  -12.9110 C.2     1  UNL1        0.0660
     14  C         24.5010  -21.7680  -13.2650 C.2     1  UNL1        0.1050
     15  C         25.4860  -21.6140  -12.2880 C.2     1  UNL1        0.0370
     16  C         25.1110  -21.5460  -10.9480 C.2     1  UNL1        0.0110
     17  C         23.7590  -21.6330  -10.5710 C.2     1  UNL1       -0.0350
     18  C         23.4270  -21.5470   -9.1040 C.3     1  UNL1        0.0500
     19  N         24.8920  -21.8250  -14.6800 N.pl3   1  UNL1       -0.1160
     20  O         26.0350  -22.2160  -14.9530 O.2     1  UNL1       -0.5320
     21  O         24.0470  -21.4820  -15.5210 O.2     1  UNL1       -0.5320
     22  S         16.6570  -24.1070   -7.5370 S.O2    1  UNL1        0.2630
     23  O         17.7430  -24.7380   -6.8180 O.2     1  UNL1       -0.2000
     24  O         15.5380  -24.9010   -7.9980 O.2     1  UNL1       -0.2000
     25  N         16.0980  -22.8560   -6.5550 N.pl3   1  UNL1       -0.2800
     26  H         15.0890  -22.8690   -6.4330 H       1  UNL1        0.1790
     27  C         16.9130  -22.3450   -5.5020 C.2     1  UNL1        0.0480
     28  C         18.0070  -21.5280   -5.8030 C.2     1  UNL1        0.0300
     29  C         18.8410  -21.0580   -4.7890 C.2     1  UNL1        0.0020
     30  C         18.5780  -21.3910   -3.4650 C.2     1  UNL1        0.0010
     31  C         17.4750  -22.1860   -3.1530 C.2     1  UNL1        0.0090
     32  C         16.6240  -22.6650   -4.1630 C.2     1  UNL1       -0.0350
     33  C         15.4560  -23.5270   -3.7750 C.3     1  UNL1        0.0500
@<TRIPOS>BOND
     1    21    19    2
     2    20    19    2
     3    19    14    1
     4    14    13    1
     5    14    15    2
     6    13    12    2
     7    15    16    1
     8    12     9    1
     9    12    17    1
    10    10     9    1
    11     9     8   am
    12     2     3    1
    13     2     1    2
    14    16    17    2
    15     3     4    2
    16    17    18    1
    17     8     1    1
    18     8    11    2
    19     1     7    1
    20     4     5    1
    21     4     6    1
    22     7     6    2
    23     6    22    1
    24    24    22    2
    25    22    23    2
    26    22    25    1
    27    25    26    1
    28    25    27    1
    29    28    27    2
    30    28    29    1
    31    27    32    1
    32    29    30    2
    33    32    33    1
    34    32    31    2
    35    30    31    1
