@<TRIPOS>MOLECULE
76200_out_ligand_01.pdbqt
 29 32 0 0 0
SMALL
GASTEIGER

@<TRIPOS>ATOM
      1  C         21.4350  -22.0470  -11.5830 C.2     1  UNL1        0.0320
      2  C         21.3330  -22.9670  -10.5360 C.2     1  UNL1        0.0170
      3  C         20.1010  -23.1880   -9.9130 C.2     1  UNL1        0.0100
      4  C         18.9530  -22.5050  -10.3390 C.2     1  UNL1       -0.0300
      5  C         19.0630  -21.5920  -11.3990 C.2     1  UNL1        0.0100
      6  C         20.2930  -21.3680  -12.0230 C.2     1  UNL1        0.0170
      7  C         22.7670  -21.8390  -12.2200 C.2     1  UNL1        0.2560
      8  N         22.7190  -21.4410  -13.5440 N.am    1  UNL1       -0.3230
      9  H         21.8080  -21.2200  -13.9230 H       1  UNL1        0.1690
     10  O         23.7680  -21.9990  -11.5320 O.2     1  UNL1       -0.2670
     11  C         23.8090  -21.2090  -14.4090 C.2     1  UNL1        0.0350
     12  C         24.7370  -20.1860  -14.2340 C.2     1  UNL1        0.0300
     13  C         25.7930  -20.0280  -15.1380 C.2     1  UNL1        0.0090
     14  C         25.9440  -20.8880  -16.2340 C.2     1  UNL1       -0.0560
     15  C         27.0940  -20.6830  -17.1800 C.3     1  UNL1        0.0490
     16  C         25.0190  -21.9330  -16.4120 C.2     1  UNL1       -0.0540
     17  C         23.9590  -22.0780  -15.4980 C.2     1  UNL1        0.0370
     18  C         25.1290  -22.8880  -17.5690 C.3     1  UNL1        0.0490
     19  C         17.6150  -22.7500   -9.6670 C.3     1  UNL1        0.3110
     20  N         17.6330  -23.0600   -8.2350 N.3     1  UNL1        0.0970
     21  C         16.4640  -23.8120   -7.7690 C.3     1  UNL1        0.2770
     22  C         16.7350  -24.4080   -6.3790 C.3     1  UNL1        0.0690
     23  C         17.3250  -23.4060   -5.4170 C.2     1  UNL1       -0.0490
     24  C         17.3480  -23.6800   -4.0430 C.2     1  UNL1        0.0070
     25  C         17.9070  -22.2230   -5.9040 C.2     1  UNL1       -0.0240
     26  C         17.9230  -22.7720   -3.1540 C.2     1  UNL1        0.0010
     27  C         18.4850  -21.5900   -3.6310 C.2     1  UNL1        0.0010
     28  C         18.4740  -21.3140   -4.9990 C.2     1  UNL1        0.0090
     29  C         17.8600  -21.8870   -7.3820 C.3     1  UNL1        0.3110
@<TRIPOS>BOND
     1    18    16    1
     2    15    14    1
     3    16    14    2
     4    16    17    1
     5    14    13    1
     6    17    11    2
     7    13    12    2
     8    11    12    1
     9    11     8    1
    10     9     8    1
    11     8     7   am
    12     7     1    1
    13     7    10    2
    14     6     1    2
    15     6     5    1
    16     1     2    1
    17     5     4    2
    18     2     3    2
    19     4     3    1
    20     4    19    1
    21    19    20    1
    22    20    21    1
    23    20    29    1
    24    21    22    1
    25    29    25    1
    26    22    23    1
    27    25    23    2
    28    25    28    1
    29    23    24    1
    30    28    27    2
    31    24    26    2
    32    27    26    1
