@<TRIPOS>MOLECULE
7621_out_ligand_01.pdbqt
 33 35 0 0 0
SMALL
GASTEIGER

@<TRIPOS>ATOM
      1  C         19.7490  -23.0270   -9.6640 C.2     1  UNL1        0.0330
      2  C         19.1290  -22.2700  -10.6610 C.2     1  UNL1        0.0170
      3  C         17.7380  -22.1280  -10.6680 C.2     1  UNL1        0.0090
      4  C         16.9370  -22.7470   -9.6910 C.2     1  UNL1       -0.0390
      5  C         15.4510  -22.5430   -9.7630 C.3     1  UNL1        0.0500
      6  C         17.5770  -23.4940   -8.6810 C.2     1  UNL1        0.0860
      7  C         18.9760  -23.6170   -8.6610 C.2     1  UNL1        0.0420
      8  C         21.2250  -23.2140   -9.6270 C.2     1  UNL1        0.2520
      9  N         21.9410  -22.5430  -10.5920 N.am    1  UNL1       -0.3490
     10  H         21.4460  -22.1390  -11.3770 H       1  UNL1        0.1630
     11  O         21.7300  -23.9590   -8.7980 O.2     1  UNL1       -0.2680
     12  C         23.3770  -22.7270  -10.7410 C.3     1  UNL1        0.1140
     13  C         24.1650  -21.7410   -9.8760 C.3     1  UNL1        0.0370
     14  C         23.7480  -22.6240  -12.2120 C.2     1  UNL1       -0.0360
     15  C         23.0940  -21.6930  -13.0310 C.2     1  UNL1        0.0100
     16  C         23.4350  -21.5650  -14.3800 C.2     1  UNL1        0.0070
     17  C         24.4460  -22.3550  -14.9360 C.2     1  UNL1       -0.0590
     18  C         25.1060  -23.2820  -14.1220 C.2     1  UNL1        0.0070
     19  C         24.7640  -23.4120  -12.7730 C.2     1  UNL1        0.0100
     20  C         24.8000  -22.2300  -16.3960 C.3     1  UNL1        0.0340
     21  C         24.1890  -23.3500  -17.2250 C.3     1  UNL1        0.0100
     22  S         16.6660  -24.3230   -7.3810 S.O2    1  UNL1        0.2630
     23  O         17.6120  -25.0300   -6.5410 O.2     1  UNL1       -0.2000
     24  O         15.5520  -25.0270   -7.9810 O.2     1  UNL1       -0.2000
     25  N         16.0700  -23.0410   -6.4550 N.pl3   1  UNL1       -0.2810
     26  H         15.0810  -23.1420   -6.2460 H       1  UNL1        0.1790
     27  C         16.9070  -22.4300   -5.4800 C.2     1  UNL1        0.0430
     28  C         16.6530  -22.6740   -4.1310 C.2     1  UNL1        0.0300
     29  C         17.4780  -22.1190   -3.1540 C.2     1  UNL1        0.0030
     30  C         18.5610  -21.3200   -3.5250 C.2     1  UNL1        0.0070
     31  C         18.8270  -21.0710   -4.8770 C.2     1  UNL1       -0.0600
     32  C         19.9680  -20.1850   -5.2800 C.3     1  UNL1        0.0480
     33  C         17.9800  -21.6170   -5.8510 C.2     1  UNL1        0.0370
@<TRIPOS>BOND
     1    21    20    1
     2    20    17    1
     3    17    16    2
     4    17    18    1
     5    16    15    1
     6    18    19    2
     7    15    14    2
     8    19    14    1
     9    14    12    1
    10    10     9    1
    11    12     9    1
    12    12    13    1
    13     3     2    1
    14     3     4    2
    15     2     1    2
    16     9     8   am
    17     5     4    1
    18     4     6    1
    19     1     8    1
    20     1     7    1
    21     8    11    2
    22     6     7    2
    23     6    22    1
    24    24    22    2
    25    22    23    2
    26    22    25    1
    27    25    26    1
    28    25    27    1
    29    33    27    2
    30    33    31    1
    31    27    28    1
    32    32    31    1
    33    31    30    2
    34    28    29    2
    35    30    29    1
