@<TRIPOS>MOLECULE
76225_out_ligand_01.pdbqt
 34 37 0 0 0
SMALL
GASTEIGER

@<TRIPOS>ATOM
      1  C         17.6170  -23.5270   -8.6530 C.2     1  UNL1        0.0860
      2  C         19.0120  -23.6980   -8.5810 C.2     1  UNL1        0.0420
      3  C         19.8450  -23.1130   -9.5380 C.2     1  UNL1        0.0330
      4  C         19.2810  -22.3510  -10.5630 C.2     1  UNL1        0.0170
      5  C         17.8950  -22.1910  -10.6440 C.2     1  UNL1        0.0090
      6  C         17.0390  -22.7720   -9.6930 C.2     1  UNL1       -0.0390
      7  C         15.5600  -22.5620   -9.8520 C.3     1  UNL1        0.0500
      8  C         21.3260  -23.2580   -9.4930 C.2     1  UNL1        0.2510
      9  O         21.8240  -24.3030   -9.0910 O.2     1  UNL1       -0.2680
     10  N         22.0610  -22.1610   -9.8880 N.am    1  UNL1       -0.3530
     11  H         21.5980  -21.2690   -9.9910 H       1  UNL1        0.1630
     12  C         23.4990  -22.1260   -9.7400 C.3     1  UNL1        0.1610
     13  C         24.1590  -21.8180  -11.0610 C.2     1  UNL1       -0.0380
     14  C         25.5280  -21.4610  -11.1000 C.2     1  UNL1        0.0120
     15  C         26.1550  -21.1370  -12.3080 C.2     1  UNL1        0.0400
     16  C         25.3910  -21.1740  -13.4530 C.2     1  UNL1        0.1050
     17  C         24.0600  -21.5160  -13.4260 C.2     1  UNL1        0.1050
     18  O         25.8270  -20.8840  -14.7090 O.2     1  UNL1       -0.3230
     19  C         23.4150  -21.8390  -12.2510 C.2     1  UNL1        0.0480
     20  O         23.4920  -21.4850  -14.6620 O.2     1  UNL1       -0.3230
     21  C         24.6170  -21.0840  -15.4690 C.3     1  UNL1        0.3520
     22  S         16.6400  -24.3380   -7.3890 S.O2    1  UNL1        0.2630
     23  O         15.4760  -24.9300   -8.0130 O.2     1  UNL1       -0.2000
     24  O         17.5390  -25.1600   -6.6040 O.2     1  UNL1       -0.2000
     25  N         16.0840  -23.0540   -6.4480 N.pl3   1  UNL1       -0.2800
     26  H         15.4360  -22.4520   -6.9480 H       1  UNL1        0.1790
     27  C         16.9330  -22.4720   -5.4590 C.2     1  UNL1        0.0490
     28  C         16.6800  -22.6730   -4.0920 C.2     1  UNL1       -0.0350
     29  C         17.4940  -22.0190   -3.1550 C.2     1  UNL1        0.0090
     30  C         15.5500  -23.5300   -3.5950 C.3     1  UNL1        0.0500
     31  C         18.5540  -21.2080   -3.5660 C.2     1  UNL1        0.0070
     32  C         18.8340  -21.0460   -4.9240 C.2     1  UNL1       -0.0600
     33  C         19.9640  -20.1640   -5.3660 C.3     1  UNL1        0.0480
     34  C         18.0110  -21.6750   -5.8640 C.2     1  UNL1        0.0370
@<TRIPOS>BOND
     1    21    18    1
     2    21    20    1
     3    18    16    1
     4    20    17    1
     5    16    17    2
     6    16    15    1
     7    17    19    1
     8    15    14    2
     9    19    13    2
    10    14    13    1
    11    13    12    1
    12     5     4    2
    13     5     6    1
    14     4     3    1
    15    11    10    1
    16    10    12    1
    17    10     8   am
    18     7     6    1
    19     6     1    2
    20     3     8    1
    21     3     2    2
    22     8     9    2
    23     1     2    1
    24     1    22    1
    25    23    22    2
    26    22    24    2
    27    22    25    1
    28    26    25    1
    29    25    27    1
    30    34    27    2
    31    34    32    1
    32    27    28    1
    33    33    32    1
    34    32    31    2
    35    28    30    1
    36    28    29    2
    37    31    29    1
