@<TRIPOS>MOLECULE
76229_out_ligand_01.pdbqt
 31 33 0 0 0
SMALL
GASTEIGER

@<TRIPOS>ATOM
      1  C         17.5410  -23.1720   -9.0250 C.2     1  UNL1        0.0860
      2  C         18.9290  -23.3150   -9.2020 C.2     1  UNL1        0.0420
      3  C         19.5820  -22.6710  -10.2540 C.2     1  UNL1        0.0330
      4  C         18.8470  -21.8840  -11.1430 C.2     1  UNL1        0.0170
      5  C         17.4630  -21.7650  -10.9860 C.2     1  UNL1        0.0090
      6  C         16.7850  -22.4060   -9.9310 C.2     1  UNL1       -0.0390
      7  C         15.2950  -22.2290   -9.8460 C.3     1  UNL1        0.0500
      8  S         16.8510  -24.0340   -7.6150 S.O2    1  UNL1        0.2630
      9  O         17.9680  -24.6080   -6.8930 O.2     1  UNL1       -0.2000
     10  O         15.7460  -24.8650   -8.0320 O.2     1  UNL1       -0.2000
     11  N         16.2690  -22.7800   -6.6480 N.pl3   1  UNL1       -0.2800
     12  H         15.2530  -22.7670   -6.5940 H       1  UNL1        0.1790
     13  C         17.0220  -22.3050   -5.5330 C.2     1  UNL1        0.0480
     14  C         18.1230  -21.4710   -5.7480 C.2     1  UNL1        0.0300
     15  C         18.8930  -21.0160   -4.6770 C.2     1  UNL1        0.0020
     16  C         18.5600  -21.3870   -3.3810 C.2     1  UNL1        0.0010
     17  C         17.4480  -22.1990   -3.1530 C.2     1  UNL1        0.0090
     18  C         16.6540  -22.6530   -4.2200 C.2     1  UNL1       -0.0350
     19  C         15.4740  -23.5300   -3.9060 C.3     1  UNL1        0.0500
     20  C         21.0630  -22.8000  -10.3590 C.2     1  UNL1        0.2560
     21  O         21.6030  -23.7110   -9.7460 O.2     1  UNL1       -0.2670
     22  N         21.6640  -21.9000  -11.2130 N.am    1  UNL1       -0.3180
     23  H         21.0680  -21.4320  -11.8870 H       1  UNL1        0.1690
     24  C         23.0520  -21.7430  -11.4420 C.2     1  UNL1        0.1130
     25  C         24.0310  -21.5850  -10.4590 C.2     1  UNL1        0.1460
     26  F         23.7230  -21.4820   -9.1590 F       1  UNL1       -0.2040
     27  C         25.3790  -21.4360  -10.8020 C.2     1  UNL1        0.0450
     28  C         25.7710  -21.4270  -12.1410 C.2     1  UNL1        0.0060
     29  C         24.8060  -21.5520  -13.1360 C.2     1  UNL1        0.0450
     30  C         23.4670  -21.7010  -12.7810 C.2     1  UNL1        0.1460
     31  F         22.5490  -21.8120  -13.7560 F       1  UNL1       -0.2040
@<TRIPOS>BOND
     1    31    30    1
     2    29    30    1
     3    29    28    2
     4    30    24    2
     5    28    27    1
     6    23    22    1
     7    24    22    1
     8    24    25    1
     9    22    20   am
    10     4     5    2
    11     4     3    1
    12     5     6    1
    13    27    25    2
    14    25    26    1
    15    20     3    1
    16    20    21    2
    17     3     2    2
    18     6     7    1
    19     6     1    2
    20     2     1    1
    21     1     8    1
    22    10     8    2
    23     8     9    2
    24     8    11    1
    25    11    12    1
    26    11    13    1
    27    14    13    2
    28    14    15    1
    29    13    18    1
    30    15    16    2
    31    18    19    1
    32    18    17    2
    33    16    17    1
