@<TRIPOS>MOLECULE
76249_out_ligand_01.pdbqt
 33 36 0 0 0
SMALL
GASTEIGER

@<TRIPOS>ATOM
      1  O         21.0220  -21.0880  -12.5110 O.2     1  UNL1       -0.2670
      2  C         20.7690  -21.6320  -11.4410 C.2     1  UNL1        0.2560
      3  N         21.7000  -22.1450  -10.5560 N.am    1  UNL1       -0.3200
      4  H         21.4000  -22.4760   -9.6500 H       1  UNL1        0.1690
      5  C         19.3480  -21.7290  -11.0000 C.2     1  UNL1        0.0330
      6  C         18.3400  -20.9380  -11.5630 C.2     1  UNL1        0.0170
      7  C         17.0220  -21.0750  -11.1230 C.2     1  UNL1        0.0020
      8  C         16.7110  -21.9880  -10.1130 C.2     1  UNL1        0.0090
      9  C         17.7140  -22.7610   -9.5110 C.2     1  UNL1       -0.0330
     10  C         19.0330  -22.6290   -9.9710 C.2     1  UNL1        0.0260
     11  C         17.3900  -23.7670   -8.4280 C.3     1  UNL1        0.2140
     12  O         18.4670  -23.8370   -7.4920 O.2     1  UNL1       -0.3470
     13  C         18.5040  -22.8870   -6.5100 C.2     1  UNL1        0.0700
     14  C         19.3610  -21.7850   -6.4630 C.2     1  UNL1        0.0370
     15  C         19.2920  -20.8840   -5.3940 C.2     1  UNL1        0.0040
     16  C         18.3680  -21.0840   -4.3690 C.2     1  UNL1        0.0240
     17  C         17.5130  -22.1810   -4.4170 C.2     1  UNL1        0.0360
     18 CL         16.3710  -22.4300   -3.1550 Cl      1  UNL1       -0.0840
     19  C         17.5780  -23.0800   -5.4810 C.2     1  UNL1        0.0600
     20  C         23.0600  -22.1650  -10.7970 C.2     1  UNL1        0.0710
     21  C         24.1340  -21.4930  -10.1740 C.2     1  UNL1        0.1690
     22  N         25.3150  -21.7980  -10.7250 N.2     1  UNL1       -0.1830
     23  N         24.9910  -22.6560  -11.7130 N.pl3   1  UNL1       -0.2750
     24  C         23.6500  -22.9170  -11.7850 C.2     1  UNL1        0.1430
     25  C         26.0400  -23.2280  -12.5460 C.3     1  UNL1        0.1900
     26  C         25.9520  -22.7180  -13.9660 C.2     1  UNL1       -0.0170
     27  C         26.2900  -21.3750  -14.2200 C.2     1  UNL1        0.0120
     28  C         26.2150  -20.8470  -15.5100 C.2     1  UNL1        0.0240
     29  C         25.7940  -21.6550  -16.5610 C.2     1  UNL1        0.0350
     30 CL         25.7000  -21.0080  -18.1520 Cl      1  UNL1       -0.0840
     31  C         25.4460  -22.9830  -16.3340 C.2     1  UNL1        0.0480
     32  C         25.5210  -23.5110  -15.0420 C.2     1  UNL1        0.0430
     33 CL         25.0640  -25.1640  -14.8340 Cl      1  UNL1       -0.0840
@<TRIPOS>BOND
     1    30    29    1
     2    29    31    2
     3    29    28    1
     4    31    32    1
     5    28    27    2
     6    32    33    1
     7    32    26    2
     8    27    26    1
     9    26    25    1
    10    25    23    1
    11     1     2    2
    12    24    23    1
    13    24    20    2
    14    23    22    1
    15     6     7    1
    16     6     5    2
    17     2     5    1
    18     2     3   am
    19     7     8    2
    20     5    10    1
    21    20     3    1
    22    20    21    1
    23    22    21    2
    24     3     4    1
    25     8     9    1
    26    10     9    2
    27     9    11    1
    28    11    12    1
    29    12    13    1
    30    13    14    2
    31    13    19    1
    32    14    15    1
    33    19    17    2
    34    15    16    2
    35    17    16    1
    36    17    18    1
