@<TRIPOS>MOLECULE
76245_out_ligand_01.pdbqt
 36 40 0 0 0
SMALL
GASTEIGER

@<TRIPOS>ATOM
      1  C         18.4930  -23.3930   -8.9720 C.2     1  UNL1        0.0800
      2  C         18.8430  -22.5440  -10.0250 C.2     1  UNL1        0.0270
      3  C         20.1780  -22.4670  -10.4360 C.2     1  UNL1        0.0310
      4  C         21.1590  -23.2470   -9.8170 C.2     1  UNL1        0.0340
      5  C         20.7850  -24.1220   -8.7860 C.2     1  UNL1        0.0310
      6  C         19.4560  -24.2010   -8.3630 C.2     1  UNL1        0.0270
      7  N         22.5250  -23.2070  -10.1530 N.am    1  UNL1       -0.3260
      8  C         23.4500  -22.2220   -9.8510 C.2     1  UNL1        0.2400
      9  O         23.2030  -21.1320   -9.3380 O.2     1  UNL1       -0.2710
     10  H         22.8790  -24.0030  -10.6760 H       1  UNL1        0.1690
     11  C         24.8670  -22.5410  -10.3440 C.3     1  UNL1        0.2350
     12  N         25.1090  -22.0940  -11.7000 N.am    1  UNL1       -0.3040
     13  C         24.7350  -22.7730  -12.8550 C.2     1  UNL1        0.2590
     14  O         24.1810  -23.8510  -12.9490 O.2     1  UNL1       -0.2670
     15  C         25.2270  -21.9460  -13.9750 C.2     1  UNL1        0.0450
     16  C         25.1560  -22.1020  -15.3440 C.2     1  UNL1        0.0180
     17  C         25.8750  -20.8720  -13.4200 C.2     1  UNL1        0.0170
     18  C         25.7690  -21.1150  -16.1380 C.2     1  UNL1        0.0020
     19  C         26.4370  -20.0100  -15.5550 C.2     1  UNL1        0.0120
     20  C         26.5030  -19.8700  -14.1510 C.2     1  UNL1       -0.0230
     21  C         27.1210  -18.8580  -13.3830 C.2     1  UNL1        0.0120
     22  C         27.0790  -18.9100  -11.9690 C.2     1  UNL1        0.0030
     23  C         26.4280  -19.9570  -11.2910 C.2     1  UNL1        0.0310
     24  C         25.8230  -20.9380  -12.0530 C.2     1  UNL1        0.0500
     25  S         16.7980  -23.4780   -8.4390 S.O2    1  UNL1        0.2630
     26  O         16.6450  -24.6570   -7.6120 O.2     1  UNL1       -0.2000
     27  O         15.9620  -23.2720   -9.6050 O.2     1  UNL1       -0.2000
     28  N         16.6160  -22.0910   -7.4940 N.pl3   1  UNL1       -0.2800
     29  H         17.1160  -21.2930   -7.8840 H       1  UNL1        0.1790
     30  C         16.5070  -22.1960   -6.0750 C.2     1  UNL1        0.0480
     31  C         15.2790  -22.5390   -5.5010 C.2     1  UNL1        0.0300
     32  C         15.1570  -22.6700   -4.1180 C.2     1  UNL1        0.0020
     33  C         16.2630  -22.4570   -3.3020 C.2     1  UNL1        0.0010
     34  C         17.4890  -22.1010   -3.8670 C.2     1  UNL1        0.0090
     35  C         17.6280  -21.9650   -5.2580 C.2     1  UNL1       -0.0350
     36  C         18.9630  -21.5610   -5.8210 C.3     1  UNL1        0.0500
@<TRIPOS>BOND
     1    18    19    2
     2    18    16    1
     3    19    20    1
     4    16    15    2
     5    20    17    2
     6    20    21    1
     7    15    17    1
     8    15    13    1
     9    17    24    1
    10    21    22    2
    11    14    13    2
    12    13    12   am
    13    24    12    1
    14    24    23    2
    15    22    23    1
    16    12    11    1
    17    10     7    1
    18     3     2    1
    19     3     4    2
    20    11     8    1
    21     7     8   am
    22     7     4    1
    23     2     1    2
    24     8     9    2
    25     4     5    1
    26    27    25    2
    27     1    25    1
    28     1     6    1
    29     5     6    2
    30    25    26    2
    31    25    28    1
    32    29    28    1
    33    28    30    1
    34    30    31    2
    35    30    35    1
    36    36    35    1
    37    31    32    1
    38    35    34    2
    39    32    33    2
    40    34    33    1
