@<TRIPOS>MOLECULE
76246_out_ligand_01.pdbqt
 35 39 0 0 0
SMALL
GASTEIGER

@<TRIPOS>ATOM
      1  O         19.8930  -21.3360   -6.3970 O.2     1  UNL1       -0.2670
      2  C         19.9500  -22.3130   -7.1330 C.2     1  UNL1        0.2560
      3  N         18.9930  -23.2990   -7.2660 N.am    1  UNL1       -0.3200
      4  H         19.2340  -24.1130   -7.8220 H       1  UNL1        0.1690
      5  C         21.1740  -22.5130   -7.9600 C.2     1  UNL1        0.0320
      6  C         21.3590  -23.7490   -8.5880 C.2     1  UNL1        0.0170
      7  C         22.4920  -23.9760   -9.3710 C.2     1  UNL1        0.0100
      8  C         23.4680  -22.9790   -9.5260 C.2     1  UNL1       -0.0300
      9  C         23.2800  -21.7460   -8.8830 C.2     1  UNL1        0.0100
     10  C         22.1460  -21.5140   -8.0980 C.2     1  UNL1        0.0170
     11  C         24.6990  -23.2300  -10.3730 C.3     1  UNL1        0.3110
     12  N         24.7010  -22.6790  -11.7320 N.3     1  UNL1        0.0970
     13  C         23.3690  -22.3660  -12.2540 C.3     1  UNL1        0.2770
     14  C         23.4770  -21.4750  -13.5010 C.3     1  UNL1        0.0690
     15  C         24.4960  -21.9750  -14.4930 C.2     1  UNL1       -0.0490
     16  C         24.5140  -21.4700  -15.8010 C.2     1  UNL1        0.0070
     17  C         25.4720  -22.9040  -14.0900 C.2     1  UNL1       -0.0240
     18  C         25.4800  -21.9010  -16.7090 C.2     1  UNL1        0.0010
     19  C         26.4370  -22.8350  -16.3190 C.2     1  UNL1        0.0010
     20  C         26.4320  -23.3370  -15.0170 C.2     1  UNL1        0.0090
     21  C         25.4490  -23.4980  -12.6950 C.3     1  UNL1        0.3110
     22  C         17.7120  -23.3560   -6.6740 C.2     1  UNL1        0.0700
     23  C         17.4670  -23.0880   -5.3260 C.2     1  UNL1        0.0560
     24  C         16.1650  -23.1750   -4.8200 C.2     1  UNL1        0.0360
     25 CL         15.8720  -22.8430   -3.1560 Cl      1  UNL1       -0.0840
     26  C         15.0970  -23.5320   -5.6430 C.2     1  UNL1        0.0260
     27  C         15.3250  -23.7970   -6.9900 C.2     1  UNL1        0.0410
     28  C         16.6210  -23.6870   -7.5020 C.2     1  UNL1        0.1020
     29  O         16.8070  -23.9890   -8.8330 O.2     1  UNL1       -0.3090
     30  C         17.1250  -22.9610   -9.6960 C.2     1  UNL1        0.0760
     31  C         18.3690  -23.0830  -10.3230 C.2     1  UNL1        0.0370
     32  C         18.8130  -22.0990  -11.2080 C.2     1  UNL1        0.0030
     33  C         18.0130  -20.9910  -11.4730 C.2     1  UNL1        0.0000
     34  C         16.7690  -20.8660  -10.8540 C.2     1  UNL1        0.0030
     35  C         16.3220  -21.8500   -9.9680 C.2     1  UNL1        0.0370
@<TRIPOS>BOND
     1    18    19    2
     2    18    16    1
     3    19    20    1
     4    16    15    2
     5    20    17    2
     6    15    17    1
     7    15    14    1
     8    17    21    1
     9    14    13    1
    10    21    12    1
    11    13    12    1
    12    12    11    1
    13    33    32    2
    14    33    34    1
    15    32    31    1
    16    34    35    2
    17    11     8    1
    18    31    30    2
    19    35    30    1
    20    30    29    1
    21     8     7    2
    22     8     9    1
    23     7     6    1
    24     9    10    2
    25    29    28    1
    26     6     5    2
    27    10     5    1
    28     5     2    1
    29     4     3    1
    30    28    27    1
    31    28    22    2
    32     3     2   am
    33     3    22    1
    34     2     1    2
    35    27    26    2
    36    22    23    1
    37    26    24    1
    38    23    24    2
    39    24    25    1
