@<TRIPOS>MOLECULE
76248_out_ligand_01.pdbqt
 40 43 0 0 0
SMALL
GASTEIGER

@<TRIPOS>ATOM
      1  C         17.7690  -23.6040   -8.6300 C.2     1  UNL1        0.0860
      2  C         19.1040  -24.0330   -8.5600 C.2     1  UNL1        0.0420
      3  C         20.0550  -23.5270   -9.4470 C.2     1  UNL1        0.0330
      4  C         19.6690  -22.5850  -10.4060 C.2     1  UNL1        0.0170
      5  C         18.3380  -22.1700  -10.4850 C.2     1  UNL1        0.0090
      6  C         17.3690  -22.6640   -9.5990 C.2     1  UNL1       -0.0390
      7  C         15.9570  -22.1710   -9.7460 C.3     1  UNL1        0.0500
      8  C         21.4690  -23.9760   -9.3100 C.2     1  UNL1        0.2560
      9  O         21.7020  -24.9630   -8.6250 O.2     1  UNL1       -0.2670
     10  N         22.3870  -23.2200  -10.0050 N.am    1  UNL1       -0.3220
     11  H         22.0190  -22.5180  -10.6470 H       1  UNL1        0.1690
     12  C         23.7930  -23.3790  -10.0750 C.2     1  UNL1        0.0500
     13  C         24.5350  -23.9670   -9.0460 C.2     1  UNL1        0.0300
     14  C         25.9190  -24.1310   -9.1640 C.2     1  UNL1        0.0020
     15  C         26.5840  -23.7130  -10.3090 C.2     1  UNL1        0.0010
     16  C         25.8670  -23.1140  -11.3420 C.2     1  UNL1        0.0190
     17  C         24.4800  -22.9170  -11.2220 C.2     1  UNL1        0.0580
     18  C         23.7430  -22.2110  -12.3170 C.2     1  UNL1        0.2540
     19  O         22.6420  -21.7110  -12.1030 O.2     1  UNL1       -0.2680
     20  N         24.3920  -22.1050  -13.5280 N.am    1  UNL1       -0.3510
     21  H         25.3980  -22.2470  -13.5470 H       1  UNL1        0.1630
     22  C         23.8720  -21.2650  -14.5830 C.3     1  UNL1        0.1870
     23  C         24.4250  -21.6970  -15.8930 C.2     1  UNL1        0.0700
     24  C         25.4130  -21.1880  -16.7120 C.2     1  UNL1        0.0360
     25  C         25.4660  -22.0330  -17.8470 C.2     1  UNL1        0.0270
     26  C         24.5090  -22.9980  -17.6530 C.2     1  UNL1        0.1420
     27  O         23.8630  -22.8040  -16.4730 O.2     1  UNL1       -0.3250
     28  S         16.6320  -24.2820   -7.4310 S.O2    1  UNL1        0.2630
     29  O         17.3700  -25.0820   -6.4870 O.2     1  UNL1       -0.2000
     30  O         15.5150  -24.8480   -8.1450 O.2     1  UNL1       -0.2000
     31  N         16.0390  -22.9030   -6.6510 N.pl3   1  UNL1       -0.2800
     32  H         15.0390  -22.9940   -6.4820 H       1  UNL1        0.1790
     33  C         16.8390  -22.3330   -5.6170 C.2     1  UNL1        0.0490
     34  C         16.5510  -22.5710   -4.2640 C.2     1  UNL1       -0.0350
     35  C         17.4330  -22.0650   -3.2980 C.2     1  UNL1        0.0090
     36  C         15.3600  -23.3780   -3.8240 C.3     1  UNL1        0.0500
     37  C         18.5740  -21.3450   -3.6670 C.2     1  UNL1        0.0070
     38  C         18.8550  -21.1090   -5.0150 C.2     1  UNL1       -0.0600
     39  C         20.0650  -20.3170   -5.4230 C.3     1  UNL1        0.0480
     40  C         17.9690  -21.5940   -5.9820 C.2     1  UNL1        0.0370
@<TRIPOS>BOND
     1    25    26    2
     2    25    24    1
     3    26    27    1
     4    24    23    2
     5    27    23    1
     6    23    22    1
     7    22    20    1
     8    21    20    1
     9    20    18   am
    10    18    19    2
    11    18    17    1
    12    16    17    1
    13    16    15    2
    14    17    12    2
    15    11    10    1
    16     5     4    2
    17     5     6    1
    18     4     3    1
    19    15    14    1
    20    12    10    1
    21    12    13    1
    22    10     8   am
    23     7     6    1
    24     6     1    2
    25     3     8    1
    26     3     2    2
    27     8     9    2
    28    14    13    2
    29     1     2    1
    30     1    28    1
    31    30    28    2
    32    28    31    1
    33    28    29    2
    34    31    32    1
    35    31    33    1
    36    40    33    2
    37    40    38    1
    38    33    34    1
    39    39    38    1
    40    38    37    2
    41    34    36    1
    42    34    35    2
    43    37    35    1
