@<TRIPOS>MOLECULE
76241_out_ligand_01.pdbqt
 33 35 0 0 0
SMALL
GASTEIGER

@<TRIPOS>ATOM
      1  C         16.8730  -22.1050   -9.7930 C.3     1  UNL1        0.0500
      2  C         18.2540  -22.0570  -10.3870 C.2     1  UNL1       -0.0390
      3  C         18.3840  -21.6170  -11.7170 C.2     1  UNL1        0.0090
      4  C         19.6340  -21.5390  -12.3360 C.2     1  UNL1        0.0170
      5  C         20.7860  -21.8930  -11.6270 C.2     1  UNL1        0.0330
      6  C         20.6840  -22.2930  -10.2930 C.2     1  UNL1        0.0420
      7  C         19.4250  -22.3920   -9.6770 C.2     1  UNL1        0.0860
      8  C         22.1340  -21.8290  -12.2550 C.2     1  UNL1        0.2560
      9  O         22.2780  -21.1320  -13.2500 O.2     1  UNL1       -0.2670
     10  N         23.1100  -22.5580  -11.6000 N.am    1  UNL1       -0.3230
     11  H         22.8480  -22.9760  -10.7160 H       1  UNL1        0.1690
     12  C         24.4600  -22.7130  -11.9810 C.2     1  UNL1        0.0370
     13  C         25.5240  -22.0440  -11.3700 C.2     1  UNL1        0.0290
     14  C         26.8420  -22.2400  -11.8040 C.2     1  UNL1        0.0050
     15  C         27.1110  -23.1070  -12.8600 C.2     1  UNL1        0.0360
     16  C         26.0490  -23.7730  -13.4810 C.2     1  UNL1        0.1050
     17  C         24.7270  -23.5810  -13.0470 C.2     1  UNL1        0.0650
     18  N         26.3160  -24.6790  -14.6050 N.pl3   1  UNL1       -0.1160
     19  O         26.7250  -25.8180  -14.3460 O.2     1  UNL1       -0.5320
     20  O         26.1180  -24.2460  -15.7510 O.2     1  UNL1       -0.5320
     21  S         19.3950  -22.9370   -7.9710 S.O2    1  UNL1        0.2630
     22  O         18.9650  -24.3190   -7.9480 O.2     1  UNL1       -0.2000
     23  O         20.6420  -22.5520   -7.3440 O.2     1  UNL1       -0.2000
     24  N         18.1970  -21.9650   -7.2860 N.pl3   1  UNL1       -0.2800
     25  H         17.4560  -21.7320   -7.9400 H       1  UNL1        0.1790
     26  C         17.8950  -22.0650   -5.8940 C.2     1  UNL1        0.0490
     27  C         18.6700  -21.3480   -4.9800 C.2     1  UNL1        0.0310
     28  C         18.4310  -21.4560   -3.6140 C.2     1  UNL1        0.0030
     29  C         17.4140  -22.2850   -3.1530 C.2     1  UNL1        0.0070
     30  C         16.6120  -23.0080   -4.0500 C.2     1  UNL1       -0.0540
     31  C         15.5230  -23.8810   -3.4850 C.3     1  UNL1        0.0490
     32  C         16.8330  -22.8830   -5.4430 C.2     1  UNL1       -0.0290
     33  C         15.9790  -23.6350   -6.4330 C.3     1  UNL1        0.0510
@<TRIPOS>BOND
     1    20    18    2
     2    18    19    2
     3    18    16    1
     4    16    17    1
     5    16    15    2
     6     9     8    2
     7    17    12    2
     8    15    14    1
     9     4     3    1
    10     4     5    2
    11     8     5    1
    12     8    10   am
    13    12    10    1
    14    12    13    1
    15    14    13    2
    16     3     2    2
    17     5     6    1
    18    10    11    1
    19     2     1    1
    20     2     7    1
    21     6     7    2
    22     7    21    1
    23    21    22    2
    24    21    23    2
    25    21    24    1
    26    25    24    1
    27    24    26    1
    28    33    32    1
    29    26    32    2
    30    26    27    1
    31    32    30    1
    32    27    28    2
    33    30    31    1
    34    30    29    2
    35    28    29    1
