@<TRIPOS>MOLECULE
76252_out_ligand_01.pdbqt
 35 37 0 0 0
SMALL
GASTEIGER

@<TRIPOS>ATOM
      1  C         19.6510  -22.8340  -10.0550 C.2     1  UNL1        0.0340
      2  C         18.9400  -22.0360  -10.9560 C.2     1  UNL1        0.0190
      3  C         17.5520  -21.9140  -10.8290 C.2     1  UNL1        0.0260
      4  C         16.8650  -22.5760   -9.8020 C.2     1  UNL1        0.0570
      5 CL         15.1590  -22.3210   -9.7310 Cl      1  UNL1       -0.0830
      6  C         17.5810  -23.3620   -8.8960 C.2     1  UNL1        0.1020
      7  C         18.9740  -23.4910   -9.0240 C.2     1  UNL1        0.0440
      8  C         21.1320  -22.9650  -10.1350 C.2     1  UNL1        0.2560
      9  N         21.7350  -22.1430  -11.0690 N.am    1  UNL1       -0.3230
     10  H         21.1260  -21.6190  -11.6830 H       1  UNL1        0.1690
     11  O         21.6720  -23.7850   -9.4050 O.2     1  UNL1       -0.2670
     12  C         23.1190  -22.0200  -11.3280 C.2     1  UNL1        0.0370
     13  C         24.0440  -21.5480  -10.3990 C.2     1  UNL1        0.0290
     14  C         25.3940  -21.4490  -10.7400 C.2     1  UNL1        0.0040
     15  C         25.8340  -21.8180  -12.0130 C.2     1  UNL1        0.0290
     16  C         24.9260  -22.2910  -12.9580 C.2     1  UNL1        0.0360
     17  C         23.5700  -22.3860  -12.6070 C.2     1  UNL1        0.0590
     18  N         25.2850  -22.6870  -14.2650 N.am    1  UNL1       -0.3270
     19  C         24.8430  -22.1460  -15.4610 C.2     1  UNL1        0.2180
     20  C         25.4620  -22.8270  -16.6560 C.3     1  UNL1        0.1170
     21  O         24.0640  -21.2120  -15.6080 O.2     1  UNL1       -0.2740
     22  H         25.9470  -23.4480  -14.3340 H       1  UNL1        0.1690
     23  S         16.7790  -24.2300   -7.5710 S.O2    1  UNL1        0.2650
     24  O         15.6270  -24.9100   -8.1210 O.2     1  UNL1       -0.2000
     25  O         17.7860  -24.9860   -6.8590 O.2     1  UNL1       -0.2000
     26  N         16.2030  -23.0050   -6.5710 N.pl3   1  UNL1       -0.2800
     27  H         15.5080  -22.4300   -7.0440 H       1  UNL1        0.1790
     28  C         17.0050  -22.4070   -5.5470 C.2     1  UNL1        0.0490
     29  C         18.0980  -21.5900   -5.8640 C.2     1  UNL1        0.0370
     30  C         18.8780  -20.9950   -4.8630 C.2     1  UNL1       -0.0600
     31  C         19.9990  -20.0680   -5.2330 C.3     1  UNL1        0.0480
     32  C         18.5660  -21.2380   -3.5270 C.2     1  UNL1        0.0070
     33  C         17.5170  -22.0960   -3.1970 C.2     1  UNL1        0.0090
     34  C         16.7390  -22.7040   -4.1970 C.2     1  UNL1       -0.0350
     35  C         15.6360  -23.6350   -3.7740 C.3     1  UNL1        0.0500
@<TRIPOS>BOND
     1    20    19    1
     2    21    19    2
     3    19    18   am
     4    22    18    1
     5    18    16    1
     6    16    17    1
     7    16    15    2
     8    17    12    2
     9    15    14    1
    10    10     9    1
    11    12     9    1
    12    12    13    1
    13     9     8   am
    14     2     3    1
    15     2     1    2
    16     3     4    2
    17    14    13    2
    18     8     1    1
    19     8    11    2
    20     1     7    1
    21     4     5    1
    22     4     6    1
    23     7     6    2
    24     6    23    1
    25    24    23    2
    26    23    25    2
    27    23    26    1
    28    27    26    1
    29    26    28    1
    30    29    28    2
    31    29    30    1
    32    28    34    1
    33    31    30    1
    34    30    32    2
    35    34    35    1
    36    34    33    2
    37    32    33    1
