@<TRIPOS>MOLECULE
76251_out_ligand_01.pdbqt
 32 35 0 0 0
SMALL
GASTEIGER

@<TRIPOS>ATOM
      1  C         17.5830  -23.2450   -8.9480 C.2     1  UNL1        0.0860
      2  C         18.9800  -23.3320   -9.0710 C.2     1  UNL1        0.0420
      3  C         19.6410  -22.6980  -10.1250 C.2     1  UNL1        0.0330
      4  C         18.9080  -21.9690  -11.0620 C.2     1  UNL1        0.0170
      5  C         17.5220  -21.8560  -10.9240 C.2     1  UNL1        0.0090
      6  C         16.8350  -22.4810   -9.8650 C.2     1  UNL1       -0.0390
      7  C         15.3470  -22.2920   -9.7860 C.3     1  UNL1        0.0500
      8  C         21.1150  -22.8700  -10.2410 C.2     1  UNL1        0.2560
      9  O         21.6480  -23.7160   -9.5360 O.2     1  UNL1       -0.2670
     10  N         21.7310  -22.0120  -11.1320 N.am    1  UNL1       -0.3230
     11  H         21.1580  -21.2850  -11.5410 H       1  UNL1        0.1690
     12  C         23.1000  -21.9740  -11.4730 C.2     1  UNL1        0.0370
     13  C         23.9980  -21.5630  -10.4600 C.2     1  UNL1        0.0320
     14  C         25.3740  -21.4860  -10.6980 C.2     1  UNL1        0.0420
     15  C         25.8240  -21.8250  -11.9530 C.2     1  UNL1        0.1050
     16  C         24.9590  -22.2220  -12.9440 C.2     1  UNL1        0.1070
     17  O         27.1190  -21.8100  -12.3660 O.2     1  UNL1       -0.3230
     18  C         23.5960  -22.3070  -12.7370 C.2     1  UNL1        0.0690
     19  O         25.6040  -22.5070  -14.1080 O.2     1  UNL1       -0.3230
     20  C         26.9730  -22.2520  -13.7310 C.3     1  UNL1        0.3520
     21  S         16.8730  -24.1350   -7.5650 S.O2    1  UNL1        0.2630
     22  O         17.9080  -24.8470   -6.8490 O.2     1  UNL1       -0.2000
     23  O         15.7180  -24.8420   -8.0790 O.2     1  UNL1       -0.2000
     24  N         16.2670  -22.9020   -6.5840 N.pl3   1  UNL1       -0.2800
     25  H         15.6310  -22.2850   -7.0850 H       1  UNL1        0.1790
     26  C         17.0440  -22.3610   -5.5170 C.2     1  UNL1        0.0480
     27  C         18.1350  -21.5310   -5.7970 C.2     1  UNL1        0.0300
     28  C         18.8970  -20.9860   -4.7630 C.2     1  UNL1        0.0020
     29  C         18.5810  -21.2790   -3.4410 C.2     1  UNL1        0.0010
     30  C         17.5140  -22.1280   -3.1530 C.2     1  UNL1        0.0090
     31  C         16.7380  -22.6870   -4.1830 C.2     1  UNL1       -0.0350
     32  C         15.6150  -23.6180   -3.8180 C.3     1  UNL1        0.0500
@<TRIPOS>BOND
     1    19    20    1
     2    19    16    1
     3    20    17    1
     4    16    18    1
     5    16    15    2
     6    18    12    2
     7    17    15    1
     8    15    14    1
     9    11    10    1
    10    12    10    1
    11    12    13    1
    12    10     8   am
    13     4     5    2
    14     4     3    1
    15     5     6    1
    16    14    13    2
    17     8     3    1
    18     8     9    2
    19     3     2    2
    20     6     7    1
    21     6     1    2
    22     2     1    1
    23     1    21    1
    24    23    21    2
    25    21    22    2
    26    21    24    1
    27    25    24    1
    28    24    26    1
    29    27    26    2
    30    27    28    1
    31    26    31    1
    32    28    29    2
    33    31    32    1
    34    31    30    2
    35    29    30    1
