@<TRIPOS>MOLECULE
7627_out_ligand_01.pdbqt
 33 36 0 0 0
SMALL
GASTEIGER

@<TRIPOS>ATOM
      1  S         16.7880  -22.4510   -9.7990 S.O2    1  UNL1        0.2680
      2  O         16.0810  -23.6740  -10.1150 O.2     1  UNL1       -0.2040
      3  O         16.5180  -21.2250  -10.5180 O.2     1  UNL1       -0.2040
      4  C         18.5110  -22.7660   -9.9990 C.ar    1  UNL1        0.2330
      5  N         19.1970  -23.6820   -9.3410 N.ar    1  UNL1       -0.1270
      6  N         20.5240  -23.6760   -9.7180 N.ar    1  UNL1       -0.1220
      7  C         20.7730  -22.7680  -10.6410 C.ar    1  UNL1        0.1970
      8  S         19.4180  -21.8450  -11.1090 S.2     1  UNL1       -0.0150
      9  N         22.0280  -22.5920  -11.1630 N.am    1  UNL1       -0.3000
     10  C         23.0190  -21.7780  -10.6710 C.2     1  UNL1        0.2580
     11  O         22.9890  -21.0740   -9.6710 O.2     1  UNL1       -0.2670
     12  H         22.2120  -23.1590  -11.9790 H       1  UNL1        0.1710
     13  C         24.2770  -21.8350  -11.4590 C.2     1  UNL1        0.0380
     14  C         25.4560  -22.0900  -10.7440 C.2     1  UNL1        0.0170
     15  C         26.6680  -22.2140  -11.4170 C.2     1  UNL1        0.0010
     16  C         26.7090  -22.0780  -12.8030 C.2     1  UNL1        0.0010
     17  C         25.5440  -21.7870  -13.5140 C.2     1  UNL1        0.0070
     18  C         24.3140  -21.6410  -12.8550 C.2     1  UNL1       -0.0460
     19  C         23.0960  -21.2860  -13.6620 C.3     1  UNL1        0.0490
     20  N         16.4620  -22.1580   -8.1680 N.3     1  UNL1       -0.2050
     21  H         16.5790  -21.1640   -7.9670 H       1  UNL1        0.1400
     22  C         17.0960  -23.0450   -7.1650 C.3     1  UNL1        0.1100
     23  C         16.0320  -23.9650   -6.5670 C.3     1  UNL1        0.0630
     24  C         15.2460  -23.3060   -5.4240 C.3     1  UNL1        0.0620
     25  C         14.3390  -22.1510   -5.8770 C.3     1  UNL1        0.0460
     26  C         14.3570  -24.3760   -4.7640 C.3     1  UNL1        0.0460
     27  O         16.1190  -22.8340   -4.3860 O.2     1  UNL1       -0.3400
     28  C         17.2590  -22.1930   -4.7860 C.2     1  UNL1        0.0770
     29  C         17.9150  -21.4610   -3.7930 C.2     1  UNL1        0.0370
     30  C         17.7820  -22.2560   -6.0810 C.2     1  UNL1       -0.0060
     31  C         19.0910  -20.7740   -4.0860 C.2     1  UNL1        0.0030
     32  C         19.6210  -20.8250   -5.3730 C.2     1  UNL1        0.0010
     33  C         18.9730  -21.5630   -6.3660 C.2     1  UNL1        0.0110
@<TRIPOS>BOND
     1    19    18    1
     2    17    18    1
     3    17    16    2
     4    18    13    2
     5    16    15    1
     6    12     9    1
     7    13    14    1
     8    13    10    1
     9    15    14    2
    10     9    10   am
    11     9     7    1
    12     8     7   ar
    13     8     4   ar
    14    10    11    2
    15     7     6   ar
    16     3     1    2
    17     2     1    2
    18     4     1    1
    19     4     5   ar
    20     1    20    1
    21     6     5   ar
    22    20    21    1
    23    20    22    1
    24    22    23    1
    25    22    30    1
    26    23    24    1
    27    33    30    1
    28    33    32    2
    29    30    28    2
    30    25    24    1
    31    24    26    1
    32    24    27    1
    33    32    31    1
    34    28    27    1
    35    28    29    1
    36    31    29    2
