@<TRIPOS>MOLECULE
76272_out_ligand_01.pdbqt
 37 41 0 0 0
SMALL
GASTEIGER

@<TRIPOS>ATOM
      1  C         18.9030  -22.7740  -10.1510 C.2     1  UNL1        0.0800
      2  C         19.7910  -23.7510   -9.7010 C.2     1  UNL1        0.0270
      3  C         21.1290  -23.6970  -10.1000 C.2     1  UNL1        0.0310
      4  C         21.5880  -22.6680  -10.9350 C.2     1  UNL1        0.0340
      5  C         20.6790  -21.7230  -11.4120 C.2     1  UNL1        0.0310
      6  C         19.3340  -21.7830  -11.0370 C.2     1  UNL1        0.0270
      7  N         22.9650  -22.6490  -11.2230 N.am    1  UNL1       -0.3260
      8  C         23.9560  -21.9230  -10.5800 C.2     1  UNL1        0.2400
      9  O         23.7910  -21.0520   -9.7320 O.2     1  UNL1       -0.2710
     10  H         23.2840  -23.3100  -11.9320 H       1  UNL1        0.1690
     11  C         25.3630  -22.2850  -11.0610 C.3     1  UNL1        0.2350
     12  N         25.7420  -21.4550  -12.1830 N.am    1  UNL1       -0.3040
     13  C         26.2450  -20.1610  -12.0820 C.2     1  UNL1        0.2590
     14  O         26.4550  -19.5190  -11.0680 O.2     1  UNL1       -0.2670
     15  C         26.3600  -19.6720  -13.4700 C.2     1  UNL1        0.0450
     16  C         26.7990  -18.4770  -14.0010 C.2     1  UNL1        0.0180
     17  C         25.8650  -20.6610  -14.2800 C.2     1  UNL1        0.0170
     18  C         26.7240  -18.3230  -15.3960 C.2     1  UNL1        0.0020
     19  C         26.2050  -19.3470  -16.2240 C.2     1  UNL1        0.0120
     20  C         25.7520  -20.5610  -15.6610 C.2     1  UNL1       -0.0230
     21  C         25.1880  -21.6810  -16.3040 C.2     1  UNL1        0.0120
     22  C         24.7740  -22.8040  -15.5460 C.2     1  UNL1        0.0030
     23  C         24.9140  -22.8410  -14.1450 C.2     1  UNL1        0.0310
     24  C         25.4760  -21.7400  -13.5310 C.2     1  UNL1        0.0500
     25  S         17.2070  -22.8000   -9.6120 S.O2    1  UNL1        0.2630
     26  O         16.7960  -21.4360   -9.3520 O.2     1  UNL1       -0.2000
     27  O         16.4700  -23.6400  -10.5370 O.2     1  UNL1       -0.2000
     28  N         17.2730  -23.6690   -8.1590 N.pl3   1  UNL1       -0.2810
     29  H         17.7300  -24.5710   -8.2810 H       1  UNL1        0.1790
     30  C         17.5200  -22.9640   -6.9480 C.2     1  UNL1        0.0430
     31  C         18.7060  -22.2610   -6.7670 C.2     1  UNL1        0.0300
     32  C         18.9720  -21.6550   -5.5400 C.2     1  UNL1        0.0090
     33  C         18.0570  -21.7470   -4.4780 C.2     1  UNL1       -0.0560
     34  C         18.4080  -21.1230   -3.1530 C.3     1  UNL1        0.0490
     35  C         16.8560  -22.4640   -4.6610 C.2     1  UNL1       -0.0540
     36  C         16.5960  -23.0600   -5.9050 C.2     1  UNL1        0.0370
     37  C         15.8600  -22.6260   -3.5460 C.3     1  UNL1        0.0490
@<TRIPOS>BOND
     1    21    20    1
     2    21    22    2
     3    19    20    2
     4    19    18    1
     5    20    17    1
     6    22    23    1
     7    18    16    2
     8    17    24    1
     9    17    15    2
    10    23    24    2
    11    16    15    1
    12    24    12    1
    13    15    13    1
    14    12    13   am
    15    12    11    1
    16    13    14    2
    17    10     7    1
    18     5     6    1
    19     5     4    2
    20     7     4    1
    21     7     8   am
    22    11     8    1
    23     6     1    2
    24     4     3    1
    25     8     9    2
    26    27    25    2
    27     1     2    1
    28     1    25    1
    29     3     2    2
    30    25    26    2
    31    25    28    1
    32    29    28    1
    33    28    30    1
    34    30    31    2
    35    30    36    1
    36    31    32    1
    37    36    35    2
    38    32    33    2
    39    35    33    1
    40    35    37    1
    41    33    34    1
