@<TRIPOS>MOLECULE
76280_out_ligand_01.pdbqt
 37 41 0 0 0
SMALL
GASTEIGER

@<TRIPOS>ATOM
      1  C         18.7470  -23.4420   -8.8260 C.2     1  UNL1        0.0800
      2  C         19.6610  -24.3460   -8.2790 C.2     1  UNL1        0.0270
      3  C         20.9950  -24.3100   -8.6930 C.2     1  UNL1        0.0310
      4  C         21.4250  -23.3770   -9.6500 C.2     1  UNL1        0.0340
      5  C         20.5060  -22.4600  -10.1660 C.2     1  UNL1        0.0310
      6  C         19.1720  -22.4790   -9.7460 C.2     1  UNL1        0.0270
      7  N         22.7740  -23.4450  -10.0440 N.am    1  UNL1       -0.3260
      8  C         23.7220  -22.4330  -10.0140 C.2     1  UNL1        0.2400
      9  O         23.5870  -21.3280   -9.4900 O.2     1  UNL1       -0.2710
     10  H         23.0930  -24.3420  -10.4030 H       1  UNL1        0.1690
     11  C         25.0750  -22.8460  -10.6050 C.3     1  UNL1        0.2350
     12  N         25.3790  -22.1500  -11.8380 N.am    1  UNL1       -0.3040
     13  C         25.7890  -20.8240  -11.9380 C.2     1  UNL1        0.2590
     14  O         26.0020  -20.0300  -11.0400 O.2     1  UNL1       -0.2670
     15  C         26.0150  -20.5890  -13.3800 C.2     1  UNL1        0.0450
     16  C         26.4200  -19.4740  -14.0870 C.2     1  UNL1        0.0180
     17  C         25.7700  -21.7780  -14.0180 C.2     1  UNL1        0.0170
     18  C         26.5660  -19.6110  -15.4790 C.2     1  UNL1        0.0020
     19  C         26.3120  -20.8450  -16.1290 C.2     1  UNL1        0.0120
     20  C         25.9020  -21.9770  -15.3870 C.2     1  UNL1       -0.0230
     21  C         25.6130  -23.2820  -15.8390 C.2     1  UNL1        0.0120
     22  C         25.2240  -24.2880  -14.9190 C.2     1  UNL1        0.0030
     23  C         25.1110  -24.0180  -13.5410 C.2     1  UNL1        0.0310
     24  C         25.3910  -22.7360  -13.1140 C.2     1  UNL1        0.0500
     25  S         17.0490  -23.4670   -8.3030 S.O2    1  UNL1        0.2630
     26  O         16.8730  -24.6240   -7.4530 O.2     1  UNL1       -0.2000
     27  O         16.2300  -23.2840   -9.4850 O.2     1  UNL1       -0.2000
     28  N         16.8590  -22.0500   -7.4050 N.pl3   1  UNL1       -0.2800
     29  H         17.2040  -21.2250   -7.8940 H       1  UNL1        0.1790
     30  C         16.9530  -22.0730   -5.9810 C.2     1  UNL1        0.0540
     31  C         15.8230  -22.3910   -5.2020 C.2     1  UNL1       -0.0340
     32  C         15.9610  -22.5050   -3.8090 C.2     1  UNL1        0.0090
     33  C         14.4570  -22.6290   -5.7850 C.3     1  UNL1        0.0500
     34  C         17.1860  -22.2720   -3.1920 C.2     1  UNL1        0.0010
     35  C         18.2910  -21.9180   -3.9610 C.2     1  UNL1        0.0090
     36  C         18.1910  -21.8050   -5.3590 C.2     1  UNL1       -0.0340
     37  C         19.4440  -21.4230   -6.1010 C.3     1  UNL1        0.0500
@<TRIPOS>BOND
     1    19    18    2
     2    19    20    1
     3    21    20    1
     4    21    22    2
     5    18    16    1
     6    20    17    2
     7    22    23    1
     8    16    15    2
     9    17    15    1
    10    17    24    1
    11    23    24    2
    12    15    13    1
    13    24    12    1
    14    13    12   am
    15    13    14    2
    16    12    11    1
    17    11     8    1
    18    10     7    1
    19     5     6    1
    20     5     4    2
    21     7     8   am
    22     7     4    1
    23     8     9    2
    24     6     1    2
    25     4     3    1
    26    27    25    2
    27     1    25    1
    28     1     2    1
    29     3     2    2
    30    25    26    2
    31    25    28    1
    32    29    28    1
    33    28    30    1
    34    37    36    1
    35    30    36    2
    36    30    31    1
    37    33    31    1
    38    36    35    1
    39    31    32    2
    40    35    34    2
    41    32    34    1
