@<TRIPOS>MOLECULE
76295_out_ligand_01.pdbqt
 36 40 0 0 0
SMALL
GASTEIGER

@<TRIPOS>ATOM
      1  C         20.0800  -23.3850   -7.9180 C.2     1  UNL1        0.0800
      2  C         20.8650  -22.2590   -7.6640 C.2     1  UNL1        0.0270
      3  C         22.1680  -22.1980   -8.1660 C.2     1  UNL1        0.0310
      4  C         22.6910  -23.2600   -8.9100 C.2     1  UNL1        0.0340
      5  C         21.9050  -24.4030   -9.1180 C.2     1  UNL1        0.0310
      6  C         20.5990  -24.4700   -8.6250 C.2     1  UNL1        0.0270
      7  N         23.9620  -23.2440   -9.5140 N.am    1  UNL1       -0.3260
      8  C         24.5250  -22.2320  -10.2750 C.2     1  UNL1        0.2400
      9  O         24.0940  -21.0880  -10.4060 O.2     1  UNL1       -0.2710
     10  H         24.5080  -24.1010   -9.4370 H       1  UNL1        0.1690
     11  C         25.8380  -22.6500  -10.9410 C.3     1  UNL1        0.2350
     12  N         25.7660  -22.4430  -12.3710 N.am    1  UNL1       -0.3040
     13  C         25.2400  -23.3500  -13.2850 C.2     1  UNL1        0.2590
     14  O         24.7640  -24.4440  -13.0580 O.2     1  UNL1       -0.2670
     15  C         25.2810  -22.6630  -14.5930 C.2     1  UNL1        0.0450
     16  C         24.9130  -23.0580  -15.8630 C.2     1  UNL1        0.0180
     17  C         25.7560  -21.4000  -14.3590 C.2     1  UNL1        0.0170
     18  C         25.0510  -22.1180  -16.8980 C.2     1  UNL1        0.0020
     19  C         25.5380  -20.8120  -16.6450 C.2     1  UNL1        0.0120
     20  C         25.9010  -20.4240  -15.3360 C.2     1  UNL1       -0.0230
     21  C         26.3840  -19.1800  -14.8790 C.2     1  UNL1        0.0120
     22  C         26.6750  -18.9900  -13.5060 C.2     1  UNL1        0.0030
     23  C         26.5030  -20.0230  -12.5670 C.2     1  UNL1        0.0310
     24  C         26.0430  -21.2370  -13.0290 C.2     1  UNL1        0.0500
     25  S         18.3960  -23.4120   -7.3600 S.O2    1  UNL1        0.2630
     26  O         18.0930  -22.0970   -6.8440 O.2     1  UNL1       -0.2000
     27  O         18.1810  -24.5940   -6.5560 O.2     1  UNL1       -0.2000
     28  N         17.5370  -23.5520   -8.8040 N.pl3   1  UNL1       -0.2810
     29  H         17.4450  -24.5250   -9.0880 H       1  UNL1        0.1790
     30  C         17.7500  -22.5840   -9.8200 C.2     1  UNL1        0.0430
     31  C         16.7160  -21.7310  -10.1960 C.2     1  UNL1        0.0300
     32  C         16.9360  -20.7770  -11.1910 C.2     1  UNL1        0.0030
     33  C         18.1810  -20.6880  -11.8160 C.2     1  UNL1        0.0070
     34  C         19.2140  -21.5640  -11.4650 C.2     1  UNL1       -0.0600
     35  C         20.5590  -21.4570  -12.1160 C.3     1  UNL1        0.0480
     36  C         18.9910  -22.5080  -10.4530 C.2     1  UNL1        0.0370
@<TRIPOS>BOND
     1    18    19    2
     2    18    16    1
     3    19    20    1
     4    16    15    2
     5    20    21    1
     6    20    17    2
     7    21    22    2
     8    15    17    1
     9    15    13    1
    10    17    24    1
    11    22    23    1
    12    13    14    2
    13    13    12   am
    14    24    23    2
    15    24    12    1
    16    12    11    1
    17    35    34    1
    18    33    34    2
    19    33    32    1
    20    34    36    1
    21    32    31    2
    22    11     8    1
    23    36    30    2
    24     9     8    2
    25     8     7   am
    26    31    30    1
    27    30    28    1
    28     7    10    1
    29     7     4    1
    30     5     4    2
    31     5     6    1
    32    29    28    1
    33     4     3    1
    34    28    25    1
    35     6     1    2
    36     3     2    2
    37     1     2    1
    38     1    25    1
    39    25    26    2
    40    25    27    2
