@<TRIPOS>MOLECULE
762_out_ligand_01.pdbqt
 32 35 0 0 0
SMALL
GASTEIGER

@<TRIPOS>ATOM
      1  O         18.6060  -20.6630  -11.9960 O.2     1  UNL1       -0.2680
      2  C         19.1480  -21.4900  -11.2720 C.2     1  UNL1        0.2520
      3  N         18.4680  -22.2000  -10.3070 N.am    1  UNL1       -0.3500
      4  H         18.8800  -23.0500   -9.9400 H       1  UNL1        0.1630
      5  C         20.5940  -21.8070  -11.4400 C.2     1  UNL1        0.0320
      6  C         21.2320  -22.5560  -10.4390 C.2     1  UNL1        0.0180
      7  C         22.5860  -22.8790  -10.5510 C.2     1  UNL1        0.0260
      8  C         23.3010  -22.4510  -11.6720 C.2     1  UNL1        0.0740
      9  C         22.6720  -21.7250  -12.6880 C.2     1  UNL1        0.0260
     10  C         21.3170  -21.4030  -12.5720 C.2     1  UNL1        0.0180
     11  S         25.0200  -22.8630  -11.8470 S.O2    1  UNL1        0.2410
     12  O         25.6500  -21.8620  -12.6810 O.2     1  UNL1       -0.2060
     13  O         25.5200  -23.1990  -10.5310 O.2     1  UNL1       -0.2060
     14  N         24.9120  -24.2680  -12.8030 N.3     1  UNL1       -0.2110
     15  H         23.9490  -24.6070  -12.7430 H       1  UNL1        0.1400
     16  C         25.3430  -24.0890  -14.1990 C.3     1  UNL1        0.0710
     17  C         25.2240  -25.1980  -15.2050 C.3     1  UNL1        0.0220
     18  C         26.5780  -24.7800  -14.7050 C.3     1  UNL1        0.0220
     19  C         17.0330  -22.0790  -10.1640 C.3     1  UNL1        0.2030
     20  C         16.6010  -22.9050   -9.0100 C.ar    1  UNL1        0.1520
     21  N         15.7470  -23.9130   -9.0620 N.ar    1  UNL1       -0.1320
     22  N         15.5940  -24.4170   -7.7940 N.ar    1  UNL1       -0.1300
     23  C         16.3510  -23.7090   -6.9870 C.ar    1  UNL1        0.1570
     24  C         16.5860  -23.7750   -5.5880 C.2     1  UNL1        0.0540
     25  N         17.0170  -22.7260   -7.7080 N.ar    1  UNL1       -0.2890
     26  C         17.4280  -22.8950   -5.0120 C.2     1  UNL1        0.0210
     27  C         18.1200  -21.8600   -5.7890 C.2     1  UNL1        0.0640
     28  C         17.8920  -21.8120   -7.1190 C.2     1  UNL1        0.1160
     29  C         19.0390  -20.9230   -5.0570 C.3     1  UNL1        0.4180
     30  F         19.2010  -21.2920   -3.7610 F       1  UNL1       -0.1660
     31  F         20.2760  -20.9020   -5.6170 F       1  UNL1       -0.1660
     32  F         18.5900  -19.6430   -5.0530 F       1  UNL1       -0.1660
@<TRIPOS>BOND
     1    17    18    1
     2    17    16    1
     3    18    16    1
     4    16    14    1
     5    14    15    1
     6    14    11    1
     7     9    10    1
     8     9     8    2
     9    12    11    2
    10    10     5    2
    11     1     2    2
    12    11     8    1
    13    11    13    2
    14     8     7    1
    15     5     2    1
    16     5     6    1
    17     2     3   am
    18     7     6    2
    19     3    19    1
    20     3     4    1
    21    19    20    1
    22    21    20   ar
    23    21    22   ar
    24    20    25   ar
    25    22    23   ar
    26    25    28    1
    27    25    23   ar
    28    28    27    2
    29    23    24    1
    30    27    29    1
    31    27    26    1
    32    31    29    1
    33    24    26    2
    34    29    32    1
    35    29    30    1
