@<TRIPOS>MOLECULE
76305_out_ligand_01.pdbqt
 33 35 0 0 0
SMALL
GASTEIGER

@<TRIPOS>ATOM
      1  C         22.5670  -23.3490   -8.8720 C.2     1  UNL1        0.0340
      2  C         21.7130  -24.4440   -9.0790 C.2     1  UNL1        0.0310
      3  C         20.4150  -24.4470   -8.5610 C.2     1  UNL1        0.0270
      4  C         19.9610  -23.3400   -7.8410 C.2     1  UNL1        0.0800
      5  C         20.8050  -22.2520   -7.6080 C.2     1  UNL1        0.0270
      6  C         22.1030  -22.2590   -8.1280 C.2     1  UNL1        0.0310
      7  S         18.3050  -23.3220   -7.1920 S.O2    1  UNL1        0.2630
      8  O         18.0850  -22.0190   -6.6000 O.2     1  UNL1       -0.2000
      9  O         18.1090  -24.5360   -6.4290 O.2     1  UNL1       -0.2000
     10  N         17.3570  -23.3760   -8.5930 N.pl3   1  UNL1       -0.2810
     11  H         16.3810  -23.5790   -8.3840 H       1  UNL1        0.1790
     12  C         17.6430  -22.4700   -9.6530 C.2     1  UNL1        0.0430
     13  C         16.6260  -21.7100  -10.2280 C.2     1  UNL1        0.0300
     14  C         16.9070  -20.8630  -11.3000 C.2     1  UNL1        0.0030
     15  C         18.2070  -20.7730  -11.7990 C.2     1  UNL1        0.0160
     16  C         19.2410  -21.5310  -11.2250 C.2     1  UNL1        0.0500
     17  C         18.9450  -22.3850  -10.1470 C.2     1  UNL1        0.0460
     18  C         20.6470  -21.4630  -11.7680 C.3     1  UNL1        0.4170
     19  F         20.6950  -20.9670  -13.0370 F       1  UNL1       -0.1660
     20  F         21.2680  -22.6750  -11.8180 F       1  UNL1       -0.1660
     21  F         21.4510  -20.6590  -11.0210 F       1  UNL1       -0.1660
     22  N         23.8540  -23.4260   -9.4410 N.am    1  UNL1       -0.3270
     23  C         24.5740  -22.4080  -10.0430 C.2     1  UNL1        0.2220
     24  O         24.2360  -21.2320  -10.1250 O.2     1  UNL1       -0.2730
     25  H         24.2840  -24.3430   -9.4330 H       1  UNL1        0.1690
     26  C         25.9220  -22.8820  -10.5680 C.3     1  UNL1        0.1080
     27  C         25.8480  -23.3340  -12.0250 C.3     1  UNL1        0.0470
     28  C         25.4120  -22.2130  -12.9420 C.2     1  UNL1       -0.0580
     29  C         26.2460  -21.1070  -13.1550 C.2     1  UNL1        0.0070
     30  C         25.8370  -20.0570  -13.9780 C.2     1  UNL1        0.0010
     31  C         24.5880  -20.1030  -14.5970 C.2     1  UNL1        0.0000
     32  C         23.7480  -21.1980  -14.3920 C.2     1  UNL1        0.0010
     33  C         24.1560  -22.2480  -13.5660 C.2     1  UNL1        0.0070
@<TRIPOS>BOND
     1    31    32    2
     2    31    30    1
     3    32    33    1
     4    30    29    2
     5    33    28    2
     6    29    28    1
     7    19    18    1
     8    28    27    1
     9    27    26    1
    10    20    18    1
    11    15    14    2
    12    15    16    1
    13    18    16    1
    14    18    21    1
    15    14    13    1
    16    16    17    2
    17    26    23    1
    18    13    12    2
    19    17    12    1
    20    24    23    2
    21    23    22   am
    22    12    10    1
    23    22    25    1
    24    22     1    1
    25     2     1    2
    26     2     3    1
    27     1     6    1
    28    10    11    1
    29    10     7    1
    30     3     4    2
    31     6     5    2
    32     4     5    1
    33     4     7    1
    34     7     8    2
    35     7     9    2
