@<TRIPOS>MOLECULE
76368_out_ligand_01.pdbqt
 29 32 0 0 0
SMALL
GASTEIGER

@<TRIPOS>ATOM
      1  C         19.3160  -23.5840   -8.1330 C.2     1  UNL1        0.0860
      2  C         19.8030  -24.4930   -9.0790 C.2     1  UNL1        0.0390
      3  C         21.1340  -24.4270   -9.5080 C.2     1  UNL1        0.0140
      4  C         21.9970  -23.4550   -8.9970 C.2     1  UNL1       -0.0340
      5  C         21.5190  -22.5380   -8.0580 C.2     1  UNL1        0.0330
      6  C         20.1900  -22.6080   -7.6270 C.2     1  UNL1        0.0450
      7 BR         19.6120  -21.3310   -6.3410 Br      1  UNL1       -0.0480
      8  C         23.3840  -23.3900   -9.4630 C.2     1  UNL1        0.0320
      9  C         23.8520  -22.8390  -10.6020 C.2     1  UNL1        0.0810
     10  C         23.0150  -22.1380  -11.6480 C.2     1  UNL1        0.1440
     11  C         25.3450  -22.9600  -10.8330 C.2     1  UNL1        0.2830
     12  N         21.7550  -21.9130  -11.4340 N.2     1  UNL1       -0.2830
     13  N         23.7020  -21.7650  -12.7920 N.pl3   1  UNL1       -0.2840
     14  H         21.3080  -21.4280  -12.2080 H       1  UNL1        0.1880
     15  C         23.1890  -21.1580  -13.9340 C.2     1  UNL1        0.1080
     16  C         25.0640  -21.9920  -12.8880 C.2     1  UNL1        0.1820
     17  C         24.0730  -20.8990  -14.9090 C.2     1  UNL1        0.0710
     18  S         25.6760  -21.4160  -14.4560 S.3     1  UNL1       -0.0620
     19  N         25.8570  -22.5270  -12.0350 N.am    1  UNL1       -0.1840
     20  O         26.0730  -23.4380   -9.9690 O.2     1  UNL1       -0.2650
     21  O         18.0350  -23.5760   -7.6510 O.2     1  UNL1       -0.3450
     22  C         17.7330  -24.4170   -6.5380 C.3     1  UNL1        0.2140
     23  C         16.8380  -23.6780   -5.5680 C.2     1  UNL1       -0.0340
     24  C         17.0770  -23.7540   -4.1900 C.2     1  UNL1        0.0090
     25  C         16.2280  -23.1130   -3.2870 C.2     1  UNL1        0.0010
     26  C         15.1270  -22.3940   -3.7500 C.2     1  UNL1        0.0070
     27  C         14.8690  -22.3020   -5.1220 C.2     1  UNL1       -0.0610
     28  C         13.6670  -21.5580   -5.6220 C.3     1  UNL1        0.0480
     29  C         15.7180  -22.9620   -6.0210 C.2     1  UNL1        0.0160
@<TRIPOS>BOND
     1    17    18    1
     2    17    15    2
     3    18    16    1
     4    15    13    1
     5    16    13    1
     6    16    19    2
     7    13    10    1
     8    14    12    1
     9    19    11    1
    10    10    12    2
    11    10     9    1
    12    11     9    1
    13    11    20    2
    14     9     8    2
    15     3     2    1
    16     3     4    2
    17     8     4    1
    18     2     1    2
    19     4     5    1
    20     1    21    1
    21     1     6    1
    22     5     6    2
    23    21    22    1
    24     6     7    1
    25    22    23    1
    26    29    23    2
    27    29    27    1
    28    28    27    1
    29    23    24    1
    30    27    26    2
    31    24    25    2
    32    26    25    1
