@<TRIPOS>MOLECULE
76381_out_ligand_01.pdbqt
 32 36 0 0 0
SMALL
GASTEIGER

@<TRIPOS>ATOM
      1  N         21.7720  -23.1580  -10.2300 N.pl3   1  UNL1       -0.3530
      2  C         21.1680  -23.9170   -9.2600 C.2     1  UNL1        0.1030
      3  C         19.8500  -23.5340   -9.1930 C.2     1  UNL1       -0.0070
      4  C         19.6270  -22.5340  -10.1840 C.2     1  UNL1        0.0020
      5  C         18.4990  -21.7980  -10.6020 C.2     1  UNL1        0.0140
      6  C         18.6250  -20.8650  -11.6370 C.2     1  UNL1        0.0010
      7  C         19.8540  -20.6580  -12.2560 C.2     1  UNL1        0.0020
      8  C         20.9880  -21.3760  -11.8610 C.2     1  UNL1        0.0300
      9  C         20.8530  -22.3120  -10.8230 C.2     1  UNL1        0.0450
     10  C         18.8930  -24.1140   -8.3150 C.3     1  UNL1        0.0340
     11  C         18.5230  -23.6860   -7.0900 C.ar    1  UNL1        0.0820
     12  C         19.0830  -22.4890   -6.3740 C.ar    1  UNL1        0.1620
     13  C         17.4340  -24.4840   -6.4000 C.ar    1  UNL1        0.2830
     14  N         20.0720  -21.7750   -6.8250 N.pl3   1  UNL1       -0.2810
     15  N         18.4780  -22.1880   -5.1680 N.ar    1  UNL1       -0.1900
     16  H         20.2340  -21.0290   -6.1340 H       1  UNL1        0.1880
     17  N         18.8590  -21.1010   -4.3930 N.2     1  UNL1       -0.1690
     18  C         17.4630  -22.9670   -4.6780 C.ar    1  UNL1        0.2000
     19  C         18.1150  -21.0710   -3.3300 C.2     1  UNL1        0.1920
     20  S         16.9000  -22.3260   -3.1530 S.3     1  UNL1       -0.0410
     21  N         16.9430  -24.0230   -5.1940 N.ar    1  UNL1       -0.1820
     22  O         16.9950  -25.5130   -6.9060 O.2     1  UNL1       -0.2650
     23  C         23.1870  -23.2360  -10.5630 C.3     1  UNL1        0.1550
     24  C         23.9480  -21.9720  -10.1690 C.3     1  UNL1        0.1960
     25  O         25.2850  -22.0620  -10.6680 O.2     1  UNL1       -0.3500
     26  C         25.6750  -21.1200  -11.5780 C.2     1  UNL1        0.0680
     27  C         25.2180  -21.3410  -12.8780 C.2     1  UNL1        0.0370
     28  C         25.5420  -20.4570  -13.9100 C.2     1  UNL1        0.0090
     29  C         26.3260  -19.3290  -13.6520 C.2     1  UNL1       -0.0620
     30  C         26.7050  -18.3920  -14.7610 C.3     1  UNL1        0.0480
     31  C         26.7990  -19.1160  -12.3510 C.2     1  UNL1        0.0090
     32  C         26.4720  -20.0030  -11.3190 C.2     1  UNL1        0.0370
@<TRIPOS>BOND
     1    30    29    1
     2    28    29    2
     3    28    27    1
     4    29    31    1
     5    27    26    2
     6    31    32    2
     7     7     8    2
     8     7     6    1
     9     8     9    1
    10     6     5    2
    11    26    32    1
    12    26    25    1
    13     9     1    1
    14     9     4    2
    15    25    24    1
    16     5     4    1
    17    23     1    1
    18    23    24    1
    19     1     2    1
    20     4     3    1
    21     2     3    2
    22     3    10    1
    23    10    11    1
    24    11    13   ar
    25    11    12   ar
    26    22    13    2
    27    14    12    1
    28    14    16    1
    29    13    21   ar
    30    12    15   ar
    31    21    18   ar
    32    15    18   ar
    33    15    17    1
    34    18    20    1
    35    17    19    2
    36    19    20    1
