@<TRIPOS>MOLECULE
76446_out_ligand_01.pdbqt
 25 27 0 0 0
SMALL
GASTEIGER

@<TRIPOS>ATOM
      1  N         19.5590  -22.4390   -9.2960 N.am    1  UNL1       -0.3230
      2  C         19.4380  -23.6050   -8.5640 C.2     1  UNL1        0.2570
      3  O         20.0990  -24.6280   -8.6640 O.2     1  UNL1       -0.2670
      4  H         18.9570  -21.6720   -9.0220 H       1  UNL1        0.1690
      5  C         20.4420  -22.1870  -10.3640 C.2     1  UNL1        0.0350
      6  C         19.9330  -21.4780  -11.4610 C.2     1  UNL1        0.0300
      7  C         20.7430  -21.1880  -12.5660 C.2     1  UNL1        0.0190
      8  C         22.0740  -21.6130  -12.5880 C.2     1  UNL1        0.0320
      9  C         22.5900  -22.3080  -11.4900 C.2     1  UNL1        0.0190
     10  C         21.7760  -22.5980  -10.3880 C.2     1  UNL1        0.0300
     11  C         22.9780  -21.3290  -13.7350 C.2     1  UNL1        0.2490
     12  N         22.6660  -20.2610  -14.5320 N.am    1  UNL1       -0.3660
     13  H         21.7410  -19.8590  -14.5450 H       1  UNL1        0.1590
     14  H         23.2170  -20.1790  -15.3790 H       1  UNL1        0.1590
     15  O         23.9440  -22.0360  -13.9880 O.2     1  UNL1       -0.2680
     16  C         18.4060  -23.5330   -7.4990 C.2     1  UNL1        0.0430
     17  C         17.3560  -24.4570   -7.5950 C.2     1  UNL1        0.0180
     18  C         16.3820  -24.5010   -6.6050 C.2     1  UNL1        0.0020
     19  C         16.4540  -23.6230   -5.5250 C.2     1  UNL1        0.0120
     20  C         17.4860  -22.6740   -5.4240 C.2     1  UNL1       -0.0250
     21  C         17.5280  -21.7880   -4.3350 C.2     1  UNL1        0.0120
     22  C         18.4830  -22.6040   -6.4280 C.2     1  UNL1       -0.0100
     23  C         18.5300  -20.8230   -4.2310 C.2     1  UNL1        0.0010
     24  C         19.5000  -20.7250   -5.2190 C.2     1  UNL1        0.0010
     25  C         19.4760  -21.6000   -6.3070 C.2     1  UNL1        0.0130
@<TRIPOS>BOND
     1    14    12    1
     2    13    12    1
     3    12    11   am
     4    15    11    2
     5    11     8    1
     6     8     7    2
     7     8     9    1
     8     7     6    1
     9     9    10    2
    10     6     5    2
    11    10     5    1
    12     5     1    1
    13     1     4    1
    14     1     2   am
    15     3     2    2
    16     2    16    1
    17    17    16    2
    18    17    18    1
    19    16    22    1
    20    18    19    2
    21    22    25    1
    22    22    20    2
    23    25    24    2
    24    19    20    1
    25    20    21    1
    26    24    23    1
    27    21    23    2
