@<TRIPOS>MOLECULE
76460_out_ligand_01.pdbqt
 37 41 0 0 0
SMALL
GASTEIGER

@<TRIPOS>ATOM
      1  O         19.4230  -21.0950   -6.1330 O.2     1  UNL1       -0.2670
      2  C         19.5650  -22.2130   -6.6150 C.2     1  UNL1        0.2560
      3  N         18.6960  -23.2780   -6.4820 N.am    1  UNL1       -0.3220
      4  H         18.8880  -24.1120   -7.0390 H       1  UNL1        0.1690
      5  C         20.7570  -22.4700   -7.4750 C.2     1  UNL1        0.0320
      6  C         21.7930  -21.5380   -7.6160 C.2     1  UNL1        0.0170
      7  C         22.8880  -21.8250   -8.4370 C.2     1  UNL1        0.0100
      8  C         22.9610  -23.0370   -9.1400 C.2     1  UNL1       -0.0300
      9  C         21.9140  -23.9600   -9.0020 C.2     1  UNL1        0.0100
     10  C         20.8190  -23.6760   -8.1830 C.2     1  UNL1        0.0170
     11  C         24.1500  -23.3410  -10.0290 C.3     1  UNL1        0.3110
     12  N         24.5490  -22.3110  -10.9930 N.3     1  UNL1        0.0970
     13  C         25.8850  -21.7550  -10.7610 C.3     1  UNL1        0.2770
     14  C         26.0680  -20.4570  -11.5610 C.3     1  UNL1        0.0690
     15  C         25.6320  -20.5900  -12.9990 C.2     1  UNL1       -0.0490
     16  C         26.0090  -19.6230  -13.9420 C.2     1  UNL1        0.0070
     17  C         24.7960  -21.6540  -13.3840 C.2     1  UNL1       -0.0240
     18  C         25.5790  -19.7250  -15.2640 C.2     1  UNL1        0.0010
     19  C         24.7660  -20.7870  -15.6540 C.2     1  UNL1        0.0010
     20  C         24.3780  -21.7490  -14.7190 C.2     1  UNL1        0.0090
     21  C         24.4080  -22.7350  -12.3930 C.3     1  UNL1        0.3110
     22  C         17.5330  -23.3750   -5.6770 C.2     1  UNL1        0.0500
     23  C         17.5920  -23.6820   -4.3130 C.2     1  UNL1        0.0300
     24  C         16.4250  -23.8080   -3.5540 C.2     1  UNL1        0.0020
     25  C         15.1780  -23.6410   -4.1480 C.2     1  UNL1        0.0010
     26  C         15.0940  -23.3300   -5.5040 C.2     1  UNL1        0.0190
     27  C         16.2630  -23.1770   -6.2710 C.2     1  UNL1        0.0580
     28  C         16.1550  -22.8160   -7.7170 C.2     1  UNL1        0.2540
     29  O         15.0620  -22.5330   -8.2020 O.2     1  UNL1       -0.2680
     30  N         17.3180  -22.8740   -8.4610 N.am    1  UNL1       -0.3520
     31  H         18.1770  -23.1850   -8.0270 H       1  UNL1        0.1630
     32  C         17.3490  -22.5090   -9.8710 C.3     1  UNL1        0.0840
     33  C         17.0750  -21.0140  -10.0570 C.3     1  UNL1        0.0250
     34  C         16.9950  -20.6300  -11.5370 C.3     1  UNL1        0.0020
     35  C         17.8090  -21.5470  -12.4520 C.3     1  UNL1        0.0000
     36  C         19.0460  -22.0900  -11.7520 C.3     1  UNL1        0.0020
     37  C         18.6920  -22.9060  -10.5060 C.3     1  UNL1        0.0250
@<TRIPOS>BOND
     1    19    18    2
     2    19    20    1
     3    18    16    1
     4    20    17    2
     5    16    15    2
     6    17    15    1
     7    17    21    1
     8    15    14    1
     9    35    36    1
    10    35    34    1
    11    21    12    1
    12    36    37    1
    13    14    13    1
    14    34    33    1
    15    12    13    1
    16    12    11    1
    17    37    32    1
    18    33    32    1
    19    11     8    1
    20    32    30    1
    21     8     9    2
    22     8     7    1
    23     9    10    1
    24    30    31    1
    25    30    28   am
    26     7     6    2
    27    29    28    2
    28    10     5    2
    29    28    27    1
    30     6     5    1
    31     5     2    1
    32     4     3    1
    33     2     3   am
    34     2     1    2
    35     3    22    1
    36    27    22    2
    37    27    26    1
    38    22    23    1
    39    26    25    2
    40    23    24    2
    41    25    24    1
