@<TRIPOS>MOLECULE
76462_out_ligand_01.pdbqt
 33 35 0 0 0
SMALL
GASTEIGER

@<TRIPOS>ATOM
      1  N         27.0830  -20.9080  -10.8660 N.1     1  UNL1       -0.1910
      2  C         26.0060  -21.3090  -11.0280 C.1     1  UNL1        0.1050
      3  C         24.6540  -21.7320  -11.1640 C.2     1  UNL1        0.1130
      4  C         23.8110  -21.6430  -10.1140 C.2     1  UNL1        0.0400
      5  C         24.2710  -22.3190  -12.4780 C.2     1  UNL1        0.2690
      6  O         24.1130  -23.5300  -12.5720 O.2     1  UNL1       -0.2660
      7  N         24.0180  -21.3890  -13.4620 N.am    1  UNL1       -0.2790
      8  C         24.1550  -21.6600  -14.7920 C.2     1  UNL1        0.2980
      9  H         24.1220  -20.4110  -13.2460 H       1  UNL1        0.1730
     10  N         23.7390  -20.6140  -15.5660 N.am    1  UNL1       -0.2540
     11  O         24.6370  -22.6570  -15.3060 O.2     1  UNL1       -0.2540
     12  H         22.8570  -20.1920  -15.3070 H       1  UNL1        0.1280
     13  H         23.7760  -20.8500  -16.5530 H       1  UNL1        0.1280
     14  C         22.4170  -22.0970  -10.0660 C.2     1  UNL1       -0.0320
     15  C         22.0390  -23.2280   -9.3340 C.2     1  UNL1        0.0380
     16  C         20.7040  -23.6430   -9.3180 C.2     1  UNL1        0.0690
     17 CL         20.3090  -25.0700   -8.4310 Cl      1  UNL1       -0.0810
     18  C         19.7280  -22.9190  -10.0130 C.2     1  UNL1        0.1080
     19  C         20.1090  -21.7930  -10.7500 C.2     1  UNL1        0.0460
     20 BR         18.8660  -20.8020  -11.7840 Br      1  UNL1       -0.0480
     21  C         21.4430  -21.3740  -10.7630 C.2     1  UNL1        0.0330
     22  O         18.4330  -23.3660  -10.0410 O.2     1  UNL1       -0.3440
     23  C         17.5380  -22.4130   -9.4510 C.3     1  UNL1        0.2150
     24  C         17.0660  -22.9410   -8.1140 C.2     1  UNL1       -0.0230
     25  C         16.0590  -23.9230   -8.1100 C.2     1  UNL1        0.0100
     26  C         15.5910  -24.4600   -6.9170 C.2     1  UNL1        0.0020
     27  C         16.1190  -24.0220   -5.7080 C.2     1  UNL1        0.0120
     28  C         17.1140  -23.0370   -5.6710 C.2     1  UNL1       -0.0250
     29  C         17.6290  -22.6040   -4.4360 C.2     1  UNL1        0.0120
     30  C         17.6000  -22.4760   -6.8800 C.2     1  UNL1       -0.0180
     31  C         18.6140  -21.6180   -4.3750 C.2     1  UNL1        0.0010
     32  C         19.0960  -21.0540   -5.5480 C.2     1  UNL1        0.0010
     33  C         18.5960  -21.4770   -6.7820 C.2     1  UNL1        0.0130
@<TRIPOS>BOND
     1    13    10    1
     2    10    12    1
     3    10     8   am
     4    11     8    2
     5     8     7   am
     6     7     9    1
     7     7     5   am
     8     6     5    2
     9     5     3    1
    10    20    19    1
    11     3     2    1
    12     3     4    2
    13     2     1    3
    14    21    19    1
    15    21    14    2
    16    19    18    2
    17     4    14    1
    18    14    15    1
    19    22    18    1
    20    22    23    1
    21    18    16    1
    22    23    24    1
    23    15    16    2
    24    16    17    1
    25    24    25    2
    26    24    30    1
    27    25    26    1
    28    26    27    2
    29    30    33    1
    30    30    28    2
    31    33    32    2
    32    27    28    1
    33    28    29    1
    34    32    31    1
    35    29    31    2
