@<TRIPOS>MOLECULE
76481_out_ligand_01.pdbqt
 34 36 0 0 0
SMALL
GASTEIGER

@<TRIPOS>ATOM
      1  C         23.6580  -21.3990   -9.9120 C.2     1  UNL1        0.0420
      2  C         24.4580  -21.5480  -11.0000 C.2     1  UNL1        0.1130
      3  C         25.7810  -21.0290  -11.0390 C.1     1  UNL1        0.1050
      4  N         26.8340  -20.5350  -11.0480 N.1     1  UNL1       -0.1910
      5  C         23.9830  -22.2690  -12.2060 C.2     1  UNL1        0.2690
      6  O         23.7120  -23.4780  -12.1500 O.2     1  UNL1       -0.2660
      7  N         23.7570  -21.4100  -13.2740 N.am    1  UNL1       -0.2790
      8  C         23.9260  -21.7690  -14.5930 C.2     1  UNL1        0.2980
      9  H         23.8290  -20.4020  -13.1320 H       1  UNL1        0.1730
     10  N         23.7250  -20.7270  -15.4520 N.am    1  UNL1       -0.2540
     11  O         24.2810  -22.8550  -15.0220 O.2     1  UNL1       -0.2540
     12  H         22.9370  -20.1180  -15.2760 H       1  UNL1        0.1280
     13  H         23.7840  -21.0140  -16.4250 H       1  UNL1        0.1280
     14  C         22.3410  -21.9140   -9.7870 C.2     1  UNL1       -0.0060
     15  C         21.9860  -22.8630   -8.8560 C.2     1  UNL1        0.1040
     16  N         20.6480  -23.1310   -9.0330 N.pl3   1  UNL1       -0.3460
     17  C         20.1510  -22.4090  -10.1060 C.2     1  UNL1        0.0450
     18  C         18.8740  -22.3830  -10.7000 C.2     1  UNL1        0.0300
     19  C         21.1930  -21.5910  -10.5640 C.2     1  UNL1        0.0020
     20  C         18.6530  -21.4940  -11.7600 C.2     1  UNL1        0.0020
     21  C         19.6660  -20.6520  -12.2140 C.2     1  UNL1        0.0010
     22  C         20.9390  -20.6930  -11.6280 C.2     1  UNL1        0.0140
     23  C         19.8900  -24.0340   -8.1830 C.3     1  UNL1        0.2310
     24  C         19.0140  -23.3020   -7.1820 C.2     1  UNL1        0.2400
     25  N         17.7790  -23.8900   -6.9740 N.am    1  UNL1       -0.3260
     26  H         17.5480  -24.6720   -7.5590 H       1  UNL1        0.1690
     27  O         19.4500  -22.3190   -6.5900 O.2     1  UNL1       -0.2710
     28  C         16.7790  -23.4970   -6.0610 C.2     1  UNL1        0.0350
     29  C         16.9220  -23.9390   -4.7420 C.2     1  UNL1        0.0290
     30  C         15.9970  -23.5820   -3.7560 C.2     1  UNL1        0.0030
     31  C         14.9070  -22.7800   -4.0900 C.2     1  UNL1        0.0070
     32  C         14.7460  -22.3280   -5.4030 C.2     1  UNL1       -0.0600
     33  C         13.5690  -21.4870   -5.7850 C.3     1  UNL1        0.0480
     34  C         15.6890  -22.6790   -6.3860 C.2     1  UNL1        0.0360
@<TRIPOS>BOND
     1    13    10    1
     2    10    12    1
     3    10     8   am
     4    11     8    2
     5     8     7   am
     6     7     9    1
     7     7     5   am
     8    21    20    2
     9    21    22    1
    10     5     6    2
    11     5     2    1
    12    20    18    1
    13    22    19    2
    14     4     3    3
    15     3     2    1
    16     2     1    2
    17    18    17    2
    18    19    17    1
    19    19    14    1
    20    17    16    1
    21     1    14    1
    22    14    15    2
    23    16    15    1
    24    16    23    1
    25    23    24    1
    26    26    25    1
    27    24    25   am
    28    24    27    2
    29    25    28    1
    30    34    28    2
    31    34    32    1
    32    28    29    1
    33    33    32    1
    34    32    31    2
    35    29    30    2
    36    31    30    1
