@<TRIPOS>MOLECULE
76491_out_ligand_01.pdbqt
 36 39 0 0 0
SMALL
GASTEIGER

@<TRIPOS>ATOM
      1  N         14.7580  -22.1310   -3.8270 N.1     1  UNL1       -0.1910
      2  C         15.6210  -22.4070   -4.5560 C.1     1  UNL1        0.1050
      3  C         16.7040  -22.6620   -5.4430 C.2     1  UNL1        0.1130
      4  C         17.7910  -21.8660   -5.4280 C.2     1  UNL1        0.0390
      5  C         16.5740  -23.8560   -6.3190 C.2     1  UNL1        0.2620
      6  O         17.1100  -24.9160   -6.0220 O.2     1  UNL1       -0.2670
      7  N         15.8040  -23.6680   -7.4420 N.am    1  UNL1       -0.3560
      8  H         15.3890  -22.7620   -7.6260 H       1  UNL1        0.1620
      9  C         15.5880  -24.7260   -8.4100 C.3     1  UNL1        0.1230
     10  C         15.4360  -24.2100   -9.8390 C.3     1  UNL1        0.0240
     11  C         15.4610  -22.6820   -9.9130 C.3     1  UNL1        0.0400
     12  C         16.7510  -22.1760  -10.5130 C.2     1  UNL1       -0.0580
     13  C         16.8300  -20.8880  -11.0590 C.2     1  UNL1        0.0070
     14  C         18.0330  -20.4210  -11.5960 C.2     1  UNL1        0.0010
     15  C         19.1660  -21.2330  -11.5870 C.2     1  UNL1        0.0000
     16  C         19.0990  -22.5140  -11.0410 C.2     1  UNL1        0.0010
     17  C         17.8980  -22.9840  -10.5040 C.2     1  UNL1        0.0070
     18  C         19.0200  -22.0240   -6.2180 C.2     1  UNL1       -0.0330
     19  C         20.0040  -21.0300   -6.1450 C.2     1  UNL1        0.0140
     20  C         21.1860  -21.1520   -6.8770 C.2     1  UNL1        0.0390
     21  C         21.4040  -22.2790   -7.6710 C.2     1  UNL1        0.0860
     22  C         20.4270  -23.2720   -7.7580 C.2     1  UNL1        0.0450
     23 BR         20.6310  -24.7870   -8.8790 Br      1  UNL1       -0.0480
     24  C         19.2480  -23.1540   -7.0160 C.2     1  UNL1        0.0330
     25  O         22.5600  -22.3260   -8.4030 O.2     1  UNL1       -0.3450
     26  C         22.3430  -21.8430   -9.7360 C.3     1  UNL1        0.2150
     27  C         23.5130  -22.2550  -10.6060 C.2     1  UNL1       -0.0230
     28  C         24.5800  -22.9400   -9.9950 C.2     1  UNL1        0.0100
     29  C         25.6790  -23.3590  -10.7410 C.2     1  UNL1        0.0020
     30  C         25.7330  -23.0890  -12.1050 C.2     1  UNL1        0.0120
     31  C         24.6920  -22.3990  -12.7460 C.2     1  UNL1       -0.0250
     32  C         24.7690  -22.1310  -14.1230 C.2     1  UNL1        0.0120
     33  C         23.5640  -21.9680  -11.9990 C.2     1  UNL1       -0.0180
     34  C         23.7490  -21.4440  -14.7800 C.2     1  UNL1        0.0010
     35  C         22.6390  -21.0150  -14.0660 C.2     1  UNL1        0.0010
     36  C         22.5490  -21.2730  -12.6960 C.2     1  UNL1        0.0130
@<TRIPOS>BOND
     1    34    32    2
     2    34    35    1
     3    32    31    1
     4    35    36    2
     5    31    30    2
     6    31    33    1
     7    36    33    1
     8    30    29    1
     9    33    27    2
    10    14    15    2
    11    14    13    1
    12    15    16    1
    13    13    12    2
    14    16    17    2
    15    29    28    2
    16    27    28    1
    17    27    26    1
    18    12    17    1
    19    12    11    1
    20    11    10    1
    21    10     9    1
    22    26    25    1
    23    23    22    1
    24     9     7    1
    25    25    21    1
    26    22    21    2
    27    22    24    1
    28    21    20    1
    29     8     7    1
    30     7     5   am
    31    24    18    2
    32    20    19    2
    33     5     6    2
    34     5     3    1
    35    18    19    1
    36    18     4    1
    37     3     4    2
    38     3     2    1
    39     2     1    3
