@<TRIPOS>MOLECULE
7649_out_ligand_01.pdbqt
 38 41 0 0 0
SMALL
GASTEIGER

@<TRIPOS>ATOM
      1  C         21.1710  -22.2350  -11.0580 C.2     1  UNL1        0.0330
      2  C         20.7150  -21.2890  -11.9800 C.2     1  UNL1        0.0190
      3  C         19.3790  -20.8790  -11.9570 C.2     1  UNL1        0.0260
      4  C         18.4740  -21.4040  -11.0220 C.2     1  UNL1        0.0570
      5 CL         16.8770  -20.7620  -11.0940 Cl      1  UNL1       -0.0830
      6  C         18.9220  -22.3560  -10.1060 C.2     1  UNL1        0.1020
      7  C         20.2670  -22.7760  -10.1350 C.2     1  UNL1        0.0440
      8  C         22.5830  -22.7140  -11.0240 C.2     1  UNL1        0.2520
      9  N         23.3870  -22.3730  -12.0880 N.am    1  UNL1       -0.3480
     10  H         23.0510  -21.7670  -12.8230 H       1  UNL1        0.1630
     11  O         22.9860  -23.3560  -10.0610 O.2     1  UNL1       -0.2680
     12  C         24.7930  -22.7320  -12.1260 C.3     1  UNL1        0.1230
     13  C         25.1550  -23.6590  -13.2840 C.3     1  UNL1        0.0680
     14  C         25.4670  -22.9590  -14.6340 C.3     1  UNL1        0.0690
     15  O         25.6210  -21.5270  -14.5970 O.2     1  UNL1       -0.3400
     16  C         25.9700  -20.9490  -13.4150 C.2     1  UNL1        0.0780
     17  C         26.6520  -19.7360  -13.4900 C.2     1  UNL1        0.0370
     18  C         25.6280  -21.4890  -12.1800 C.2     1  UNL1       -0.0020
     19  C         27.0260  -19.0690  -12.3230 C.2     1  UNL1        0.0030
     20  C         26.7010  -19.6100  -11.0810 C.2     1  UNL1        0.0010
     21  C         25.9960  -20.8110  -11.0090 C.2     1  UNL1        0.0120
     22  C         26.7670  -23.5550  -15.2640 C.3     1  UNL1        0.0340
     23  C         27.1210  -24.9770  -14.8400 C.3     1  UNL1        0.0080
     24  C         24.3390  -23.2320  -15.6740 C.3     1  UNL1        0.0340
     25  C         24.7730  -23.2160  -17.1330 C.3     1  UNL1        0.0080
     26  S         17.8690  -23.1250   -8.9020 S.O2    1  UNL1        0.2650
     27  O         18.6920  -24.0610   -8.1610 O.2     1  UNL1       -0.2000
     28  O         16.6420  -23.5870   -9.5070 O.2     1  UNL1       -0.2000
     29  N         17.5550  -21.8710   -7.8150 N.pl3   1  UNL1       -0.2800
     30  H         18.1150  -21.0470   -8.0350 H       1  UNL1        0.1790
     31  C         17.3620  -22.1830   -6.4400 C.2     1  UNL1        0.0490
     32  C         16.2150  -22.9050   -6.0930 C.2     1  UNL1        0.0370
     33  C         15.9800  -23.2820   -4.7670 C.2     1  UNL1       -0.0600
     34  C         14.7720  -24.0950   -4.4110 C.3     1  UNL1        0.0480
     35  C         16.9240  -22.9440   -3.7940 C.2     1  UNL1        0.0070
     36  C         18.0650  -22.2140   -4.1360 C.2     1  UNL1        0.0090
     37  C         18.2920  -21.8090   -5.4600 C.2     1  UNL1       -0.0350
     38  C         19.5510  -21.0530   -5.7790 C.3     1  UNL1        0.0500
@<TRIPOS>BOND
     1    25    24    1
     2    24    14    1
     3    22    23    1
     4    22    14    1
     5    14    15    1
     6    14    13    1
     7    15    16    1
     8    17    16    2
     9    17    19    1
    10    16    18    1
    11    13    12    1
    12    10     9    1
    13    19    20    2
    14    18    12    1
    15    18    21    2
    16    12     9    1
    17     9     8   am
    18     2     3    1
    19     2     1    2
    20     3     4    2
    21     5     4    1
    22    20    21    1
    23     1     8    1
    24     1     7    1
    25     8    11    2
    26     4     6    1
    27     7     6    2
    28     6    26    1
    29    28    26    2
    30    26    27    2
    31    26    29    1
    32    30    29    1
    33    29    31    1
    34    31    32    2
    35    31    37    1
    36    32    33    1
    37    38    37    1
    38    37    36    2
    39    33    34    1
    40    33    35    2
    41    36    35    1
