@<TRIPOS>MOLECULE
76501_out_ligand_01.pdbqt
 32 34 0 0 0
SMALL
GASTEIGER

@<TRIPOS>ATOM
      1  N         27.0820  -23.8420  -11.2410 N.1     1  UNL1       -0.1910
      2  C         26.0280  -23.4630  -10.9310 C.1     1  UNL1        0.1050
      3  C         24.7230  -23.0710  -10.5210 C.2     1  UNL1        0.1130
      4  C         24.1440  -23.6750   -9.4630 C.2     1  UNL1        0.0390
      5  C         24.0970  -21.9560  -11.2870 C.2     1  UNL1        0.2620
      6  O         24.3680  -20.7880  -11.0320 O.2     1  UNL1       -0.2670
      7  N         23.2490  -22.3460  -12.2980 N.am    1  UNL1       -0.3560
      8  H         23.0680  -23.3280  -12.4540 H       1  UNL1        0.1620
      9  C         22.5220  -21.3830  -13.1030 C.3     1  UNL1        0.1230
     10  C         21.1780  -21.0200  -12.4740 C.3     1  UNL1        0.0240
     11  C         20.6290  -22.1250  -11.5660 C.3     1  UNL1        0.0400
     12  C         19.1880  -21.9470  -11.1550 C.2     1  UNL1       -0.0580
     13  C         18.4860  -23.0060  -10.5620 C.2     1  UNL1        0.0070
     14  C         17.1510  -22.8490  -10.1830 C.2     1  UNL1        0.0010
     15  C         16.5040  -21.6350  -10.3950 C.2     1  UNL1        0.0000
     16  C         17.1880  -20.5780  -10.9920 C.2     1  UNL1        0.0010
     17  C         18.5210  -20.7340  -11.3730 C.2     1  UNL1        0.0070
     18  C         22.8480  -23.3480   -8.8540 C.2     1  UNL1       -0.0340
     19  C         22.6720  -22.0980   -8.2510 C.2     1  UNL1        0.0140
     20  C         21.4490  -21.7550   -7.6630 C.2     1  UNL1        0.0370
     21  C         20.3850  -22.6560   -7.6830 C.2     1  UNL1        0.0690
     22  C         20.5530  -23.8950   -8.3050 C.2     1  UNL1        0.0370
     23  C         21.7720  -24.2400   -8.8940 C.2     1  UNL1        0.0140
     24  O         19.1450  -22.4530   -7.1460 O.2     1  UNL1       -0.3470
     25  C         18.3880  -23.6100   -6.7920 C.3     1  UNL1        0.2140
     26  C         17.2130  -23.1990   -5.9340 C.2     1  UNL1       -0.0310
     27  C         17.2780  -23.2760   -4.5330 C.2     1  UNL1        0.0090
     28  C         16.2010  -22.8640   -3.7420 C.2     1  UNL1        0.0040
     29  C         15.0510  -22.3600   -4.3430 C.2     1  UNL1        0.0420
     30  C         14.9870  -22.2730   -5.7280 C.2     1  UNL1        0.1170
     31  F         13.8810  -21.7890   -6.3070 F       1  UNL1       -0.2060
     32  C         16.0530  -22.6810   -6.5250 C.2     1  UNL1        0.0510
@<TRIPOS>BOND
     1     9    10    1
     2     9     7    1
     3    10    11    1
     4     8     7    1
     5     7     5   am
     6    11    12    1
     7    17    12    2
     8    17    16    1
     9     5     6    2
    10     5     3    1
    11     1     2    3
    12    12    13    1
    13    16    15    2
    14     2     3    1
    15    13    14    2
    16     3     4    2
    17    15    14    1
    18     4    18    1
    19    23    18    2
    20    23    22    1
    21    18    19    1
    22    22    21    2
    23    19    20    2
    24    21    20    1
    25    21    24    1
    26    24    25    1
    27    25    26    1
    28    32    26    2
    29    32    30    1
    30    31    30    1
    31    26    27    1
    32    30    29    2
    33    27    28    2
    34    29    28    1
