@<TRIPOS>MOLECULE
76507_out_ligand_01.pdbqt
 35 37 0 0 0
SMALL
GASTEIGER

@<TRIPOS>ATOM
      1  C         18.9940  -23.0450  -10.3980 C.2     1  UNL1        0.0690
      2  C         19.4720  -24.1330   -9.6620 C.2     1  UNL1        0.0370
      3  C         20.7740  -24.1280   -9.1550 C.2     1  UNL1        0.0150
      4  C         21.6020  -23.0290   -9.3890 C.2     1  UNL1       -0.0170
      5  C         21.1420  -21.9580  -10.1570 C.2     1  UNL1        0.0150
      6  C         19.8360  -21.9630  -10.6570 C.2     1  UNL1        0.0370
      7  C         22.9890  -23.0740   -8.8790 C.2     1  UNL1        0.1500
      8  N         24.1030  -23.2770   -9.5230 N.2     1  UNL1       -0.1830
      9  N         24.0990  -23.2470  -10.8950 N.am    1  UNL1       -0.2430
     10  C         24.5710  -22.1270  -11.5830 C.2     1  UNL1        0.2710
     11  O         24.8840  -21.0530  -11.0770 O.2     1  UNL1       -0.2660
     12  H         24.3710  -24.1390  -11.2970 H       1  UNL1        0.1920
     13  C         24.7380  -22.3090  -13.0550 C.2     1  UNL1        0.0330
     14  C         24.3890  -21.2450  -13.9010 C.2     1  UNL1        0.0190
     15  C         24.5230  -21.3680  -15.2880 C.2     1  UNL1        0.0370
     16  C         25.0020  -22.5660  -15.8310 C.2     1  UNL1        0.1020
     17  C         25.3390  -23.6400  -14.9960 C.2     1  UNL1        0.0370
     18  C         25.2030  -23.5110  -13.6100 C.2     1  UNL1        0.0190
     19  N         25.1470  -22.7000  -17.2860 N.pl3   1  UNL1       -0.1160
     20  O         24.1600  -22.4470  -17.9910 O.2     1  UNL1       -0.5320
     21  O         26.2530  -23.0530  -17.7220 O.2     1  UNL1       -0.5320
     22  O         17.7130  -23.1770  -10.8590 O.2     1  UNL1       -0.3420
     23  C         16.7070  -22.4300  -10.1790 C.3     1  UNL1        0.2780
     24  C         16.3540  -22.9510   -8.7800 C.2     1  UNL1        0.2460
     25  N         16.6310  -22.0270   -7.7870 N.am    1  UNL1       -0.3250
     26  H         17.0840  -21.1840   -8.1210 H       1  UNL1        0.1690
     27  O         15.8740  -24.0720   -8.6380 O.2     1  UNL1       -0.2710
     28  C         16.4370  -22.1470   -6.3930 C.2     1  UNL1        0.0410
     29  C         15.1740  -22.3940   -5.8450 C.2     1  UNL1        0.0300
     30  C         15.0020  -22.5040   -4.4660 C.2     1  UNL1        0.0030
     31  C         16.0930  -22.3720   -3.6160 C.2     1  UNL1        0.0070
     32  C         17.3740  -22.1230   -4.1290 C.2     1  UNL1       -0.0540
     33  C         18.5160  -22.0070   -3.1530 C.3     1  UNL1        0.0490
     34  C         17.5560  -22.0060   -5.5300 C.2     1  UNL1       -0.0290
     35  C         18.9290  -21.7400   -6.1070 C.3     1  UNL1        0.0510
@<TRIPOS>BOND
     1    20    19    2
     2    21    19    2
     3    19    16    1
     4    16    15    2
     5    16    17    1
     6    15    14    1
     7    17    18    2
     8    14    13    2
     9    18    13    1
    10    13    10    1
    11    10    11    2
    12    10     9   am
    13    12     9    1
    14     9     8    1
    15    22     1    1
    16    22    23    1
    17     6     1    2
    18     6     5    1
    19     1     2    1
    20    23    24    1
    21     5     4    2
    22     2     3    2
    23     8     7    2
    24     4     3    1
    25     4     7    1
    26    24    27    2
    27    24    25   am
    28    26    25    1
    29    25    28    1
    30    28    29    2
    31    28    34    1
    32    35    34    1
    33    29    30    1
    34    34    32    2
    35    30    31    2
    36    32    31    1
    37    32    33    1
