@<TRIPOS>MOLECULE
76522_out_ligand_01.pdbqt
 37 39 0 0 0
SMALL
GASTEIGER

@<TRIPOS>ATOM
      1  N         14.7280  -22.1470   -3.8760 N.1     1  UNL1       -0.1910
      2  C         15.6150  -22.3900   -4.5840 C.1     1  UNL1        0.1050
      3  C         16.7510  -22.6580   -5.3990 C.2     1  UNL1        0.1130
      4  C         17.8590  -21.8980   -5.3000 C.2     1  UNL1        0.0390
      5  C         16.6260  -23.7700   -6.3780 C.2     1  UNL1        0.2620
      6  O         17.0880  -24.8790   -6.1390 O.2     1  UNL1       -0.2670
      7  N         15.9590  -23.4390   -7.5380 N.am    1  UNL1       -0.3560
      8  H         15.4920  -22.5430   -7.5890 H       1  UNL1        0.1620
      9  C         15.5800  -24.4580   -8.4970 C.3     1  UNL1        0.1230
     10  C         15.5460  -23.8900   -9.9150 C.3     1  UNL1        0.0240
     11  C         15.8090  -22.3830   -9.9620 C.3     1  UNL1        0.0400
     12  C         17.1490  -22.0130  -10.5450 C.2     1  UNL1       -0.0580
     13  C         18.2170  -22.9210  -10.5080 C.2     1  UNL1        0.0070
     14  C         19.4570  -22.5780  -11.0500 C.2     1  UNL1        0.0010
     15  C         19.6420  -21.3240  -11.6300 C.2     1  UNL1        0.0000
     16  C         18.5880  -20.4140  -11.6710 C.2     1  UNL1        0.0010
     17  C         17.3470  -20.7560  -11.1300 C.2     1  UNL1        0.0070
     18  C         19.0630  -22.0100   -6.1330 C.2     1  UNL1       -0.0330
     19  C         20.0400  -21.0100   -6.1370 C.2     1  UNL1        0.0140
     20  C         21.1790  -21.1260   -6.9430 C.2     1  UNL1        0.0390
     21  C         21.3640  -22.2500   -7.7510 C.2     1  UNL1        0.0860
     22  C         20.3880  -23.2580   -7.7290 C.2     1  UNL1        0.0450
     23 BR         20.5780  -24.8370   -8.7730 Br      1  UNL1       -0.0480
     24  C         19.2500  -23.1470   -6.9230 C.2     1  UNL1        0.0330
     25  O         22.4410  -22.4500   -8.5750 O.2     1  UNL1       -0.3410
     26  C         22.7550  -21.4540   -9.5420 C.3     1  UNL1        0.2780
     27  C         23.8030  -21.8870  -10.5730 C.2     1  UNL1        0.2460
     28  O         24.9480  -22.1630  -10.2270 O.2     1  UNL1       -0.2710
     29  N         23.2990  -21.8890  -11.8620 N.am    1  UNL1       -0.3250
     30  H         22.3130  -21.6560  -11.9430 H       1  UNL1        0.1690
     31  C         23.9590  -22.2520  -13.0510 C.2     1  UNL1        0.0350
     32  C         24.8090  -23.3560  -13.1650 C.2     1  UNL1        0.0320
     33  C         25.4200  -23.6510  -14.3870 C.2     1  UNL1        0.0440
     34  C         25.1790  -22.8450  -15.4920 C.2     1  UNL1        0.1160
     35  F         25.7630  -23.1340  -16.6620 F       1  UNL1       -0.2060
     36  C         24.3400  -21.7440  -15.3970 C.2     1  UNL1        0.0440
     37  C         23.7300  -21.4470  -14.1770 C.2     1  UNL1        0.0320
@<TRIPOS>BOND
     1    35    34    1
     2    34    36    2
     3    34    33    1
     4    36    37    1
     5    33    32    2
     6    37    31    2
     7    32    31    1
     8    31    29    1
     9    30    29    1
    10    29    27   am
    11    16    15    2
    12    16    17    1
    13    15    14    1
    14    17    12    2
    15    14    13    2
    16    27    28    2
    17    27    26    1
    18    12    13    1
    19    12    11    1
    20    11    10    1
    21    10     9    1
    22    26    25    1
    23    23    22    1
    24    25    21    1
    25     9     7    1
    26    21    22    2
    27    21    20    1
    28    22    24    1
    29     8     7    1
    30     7     5   am
    31    20    19    2
    32    24    18    2
    33     5     6    2
    34     5     3    1
    35    19    18    1
    36    18     4    1
    37     3     4    2
    38     3     2    1
    39     2     1    3
