@<TRIPOS>MOLECULE
7652_out_ligand_01.pdbqt
 40 43 0 0 0
SMALL
GASTEIGER

@<TRIPOS>ATOM
      1  S         24.7510  -22.8330  -10.5610 S.O2    1  UNL1        0.2720
      2  O         25.5770  -23.8380   -9.9150 O.2     1  UNL1       -0.2030
      3  O         25.3100  -21.5370  -10.8920 O.2     1  UNL1       -0.2030
      4  C         23.4070  -22.5030   -9.4570 C.ar    1  UNL1        0.2330
      5  N         23.2020  -21.3840   -8.7910 N.ar    1  UNL1       -0.1270
      6  N         22.0390  -21.4490   -8.0470 N.ar    1  UNL1       -0.1220
      7  C         21.4270  -22.6020   -8.1870 C.ar    1  UNL1        0.1970
      8  S         22.2120  -23.7000   -9.2240 S.2     1  UNL1       -0.0150
      9  N         20.2470  -22.8770   -7.5420 N.am    1  UNL1       -0.3000
     10  C         19.5930  -22.0830   -6.6350 C.2     1  UNL1        0.2590
     11  O         19.9820  -21.0020   -6.2110 O.2     1  UNL1       -0.2670
     12  H         19.8420  -23.7590   -7.8300 H       1  UNL1        0.1710
     13  C         18.3150  -22.6220   -6.0700 C.2     1  UNL1        0.0540
     14  C         17.6330  -23.5590   -6.8680 C.2     1  UNL1        0.0200
     15  C         16.4270  -24.1260   -6.4480 C.2     1  UNL1        0.0250
     16  C         15.8910  -23.7650   -5.2190 C.2     1  UNL1        0.0350
     17 CL         14.4050  -24.4570   -4.6940 Cl      1  UNL1       -0.0840
     18  C         16.5510  -22.8460   -4.4060 C.2     1  UNL1        0.0480
     19  C         17.7640  -22.2790   -4.8240 C.2     1  UNL1        0.0510
     20 CL         18.5140  -21.1920   -3.7080 Cl      1  UNL1       -0.0830
     21  N         24.1360  -23.4660  -12.0320 N.pl3   1  UNL1       -0.1790
     22  H         23.9980  -24.4760  -11.8670 H       1  UNL1        0.1460
     23  C         24.9050  -23.2070  -13.2240 C.2     1  UNL1        0.0380
     24  C         26.0670  -23.9560  -13.4390 C.2     1  UNL1        0.0250
     25  C         26.8270  -23.7700  -14.5930 C.2     1  UNL1        0.0020
     26  C         26.4320  -22.8310  -15.5450 C.2     1  UNL1        0.0010
     27  C         25.2830  -22.0620  -15.3380 C.2     1  UNL1        0.0190
     28  C         24.5200  -22.2280  -14.1710 C.2     1  UNL1        0.0540
     29  C         23.2930  -21.4160  -13.9390 C.2     1  UNL1        0.2530
     30  O         23.2060  -20.3000  -14.4430 O.2     1  UNL1       -0.2680
     31  N         22.2840  -21.9730  -13.1930 N.am    1  UNL1       -0.3570
     32  H         22.2830  -22.9660  -13.0070 H       1  UNL1        0.1620
     33  C         21.0530  -21.2350  -12.9510 C.3     1  UNL1        0.1270
     34  C         20.7540  -21.0960  -11.4570 C.3     1  UNL1        0.0580
     35  C         19.3150  -21.4180  -11.1370 C.2     1  UNL1       -0.0570
     36  C         18.3160  -20.4660  -11.3710 C.2     1  UNL1        0.0070
     37  C         16.9800  -20.7600  -11.0850 C.2     1  UNL1        0.0010
     38  C         16.6310  -22.0100  -10.5740 C.2     1  UNL1        0.0000
     39  C         17.6170  -22.9680  -10.3480 C.2     1  UNL1        0.0010
     40  C         18.9550  -22.6740  -10.6280 C.2     1  UNL1        0.0070
@<TRIPOS>BOND
     1    26    27    2
     2    26    25    1
     3    27    28    1
     4    25    24    2
     5    30    29    2
     6    28    29    1
     7    28    23    2
     8    29    31   am
     9    24    23    1
    10    23    21    1
    11    31    32    1
    12    31    33    1
    13    33    34    1
    14    21    22    1
    15    21     1    1
    16    34    35    1
    17    36    35    2
    18    36    37    1
    19    35    40    1
    20    37    38    2
    21     3     1    2
    22    40    39    2
    23    38    39    1
    24     1     2    2
    25     1     4    1
    26     4     8   ar
    27     4     5   ar
    28     8     7   ar
    29     5     6   ar
    30     7     6   ar
    31     7     9    1
    32    12     9    1
    33     9    10   am
    34    14    15    1
    35    14    13    2
    36    10    11    2
    37    10    13    1
    38    15    16    2
    39    13    19    1
    40    16    17    1
    41    16    18    1
    42    19    18    2
    43    19    20    1
