@<TRIPOS>MOLECULE
76548_out_ligand_01.pdbqt
 37 42 0 0 0
SMALL
GASTEIGER

@<TRIPOS>ATOM
      1  C         19.3920  -22.1840   -9.3200 C.2     1  UNL1        0.1030
      2  C         20.2560  -22.1890  -10.4170 C.2     1  UNL1        0.0550
      3  C         21.6430  -22.2950  -10.2210 C.2     1  UNL1        0.0130
      4  C         22.1740  -22.4380   -8.9330 C.2     1  UNL1        0.0180
      5  C         21.3190  -22.4460   -7.8340 C.2     1  UNL1        0.0410
      6  C         19.9460  -22.2980   -8.0370 C.2     1  UNL1        0.1120
      7  C         22.5320  -22.2600  -11.4090 C.ar    1  UNL1        0.1420
      8  N         23.5550  -23.0580  -11.4900 N.ar    1  UNL1       -0.2220
      9  C         24.2880  -22.9320  -12.6290 C.ar    1  UNL1        0.1160
     10  S         25.6870  -23.8740  -12.8980 S.2     1  UNL1       -0.0730
     11  C         24.0340  -22.0820  -13.6870 C.ar    1  UNL1        0.0750
     12  C         25.9510  -23.1590  -14.4200 C.ar    1  UNL1       -0.0080
     13  C         24.9980  -22.2070  -14.7370 C.ar    1  UNL1       -0.0260
     14  C         27.1190  -23.5310  -15.2790 C.3     1  UNL1        0.0470
     15  C         25.0190  -21.4640  -16.0410 C.3     1  UNL1        0.0410
     16  C         26.3750  -21.5940  -16.7510 C.3     1  UNL1        0.0050
     17  C         26.9030  -23.0360  -16.7190 C.3     1  UNL1        0.0050
     18  C         22.8670  -21.2300  -13.5890 C.ar    1  UNL1        0.2600
     19  O         22.4910  -20.4650  -14.4710 O.2     1  UNL1       -0.2670
     20  N         22.1830  -21.3570  -12.4000 N.ar    1  UNL1       -0.3070
     21  H         21.3400  -20.8060  -12.3350 H       1  UNL1        0.1700
     22  O         18.0280  -22.0730   -9.3780 O.2     1  UNL1       -0.3490
     23  C         17.4010  -22.3280  -10.6340 C.3     1  UNL1        0.1710
     24  C         17.2130  -20.9940  -11.3360 C.3     1  UNL1        0.0340
     25  O         19.1110  -22.3150   -6.9150 O.3     1  UNL1       -0.2720
     26  C         18.5260  -23.5530   -6.7340 C.2     1  UNL1        0.2990
     27  O         18.6800  -24.5590   -7.4050 O.2     1  UNL1       -0.2590
     28  C         17.6490  -23.4700   -5.5420 C.2     1  UNL1        0.0510
     29  C         18.1530  -23.9590   -4.3240 C.2     1  UNL1        0.0180
     30  C         17.3830  -23.8790   -3.1710 C.2     1  UNL1        0.0020
     31  C         16.1120  -23.3050   -3.2260 C.2     1  UNL1        0.0120
     32  C         15.5860  -22.8100   -4.4320 C.2     1  UNL1       -0.0250
     33  C         14.3000  -22.2370   -4.4590 C.2     1  UNL1        0.0120
     34  C         16.3520  -22.8860   -5.6220 C.2     1  UNL1       -0.0100
     35  C         13.7560  -21.7390   -5.6430 C.2     1  UNL1        0.0010
     36  C         14.4890  -21.8180   -6.8190 C.2     1  UNL1        0.0010
     37  C         15.7660  -22.3870   -6.8110 C.2     1  UNL1        0.0130
@<TRIPOS>BOND
     1    16    17    1
     2    16    15    1
     3    17    14    1
     4    15    13    1
     5    14    12    1
     6    13    12   ar
     7    13    11   ar
     8    19    18    2
     9    12    10   ar
    10    11    18   ar
    11    11     9   ar
    12    18    20   ar
    13    10     9   ar
    14     9     8   ar
    15    20    21    1
    16    20     7   ar
    17     8     7   ar
    18     7     3    1
    19    24    23    1
    20    23    22    1
    21     2     3    1
    22     2     1    2
    23     3     4    2
    24    22     1    1
    25     1     6    1
    26     4     5    1
    27     6     5    2
    28     6    25    1
    29    27    26    2
    30    25    26    1
    31    36    37    2
    32    36    35    1
    33    37    34    1
    34    26    28    1
    35    35    33    2
    36    34    28    2
    37    34    32    1
    38    28    29    1
    39    33    32    1
    40    32    31    2
    41    29    30    2
    42    31    30    1
