@<TRIPOS>MOLECULE
76554_out_ligand_01.pdbqt
 31 32 0 0 0
SMALL
GASTEIGER

@<TRIPOS>ATOM
      1  N         25.7000  -20.9250  -13.5830 N.1     1  UNL1       -0.1910
      2  C         24.8780  -21.2390  -12.8280 C.1     1  UNL1        0.1050
      3  C         23.8240  -21.6700  -11.9700 C.2     1  UNL1        0.1130
      4  C         22.5660  -21.7650  -12.4490 C.2     1  UNL1        0.0400
      5  C         24.1870  -21.9440  -10.5500 C.2     1  UNL1        0.2690
      6  O         23.7360  -21.2360   -9.6560 O.2     1  UNL1       -0.2660
      7  N         25.1730  -22.8910  -10.3840 N.am    1  UNL1       -0.2790
      8  C         25.0680  -23.8220   -9.3900 C.2     1  UNL1        0.2980
      9  H         25.5870  -23.2870  -11.2120 H       1  UNL1        0.1730
     10  N         26.1050  -24.7090   -9.4100 N.am    1  UNL1       -0.2540
     11  O         24.1630  -23.9450   -8.5810 O.2     1  UNL1       -0.2540
     12  H         26.0580  -25.3550   -8.6290 H       1  UNL1        0.1280
     13  H         27.0280  -24.3120   -9.5270 H       1  UNL1        0.1280
     14  C         21.3540  -22.1160  -11.6990 C.2     1  UNL1       -0.0320
     15  C         20.1530  -21.4690  -12.0110 C.2     1  UNL1        0.0380
     16  C         18.9790  -21.7860  -11.3220 C.2     1  UNL1        0.0690
     17 CL         17.5260  -20.9890  -11.8030 Cl      1  UNL1       -0.0810
     18  C         18.9960  -22.7300  -10.2890 C.2     1  UNL1        0.1080
     19  C         20.1960  -23.3820   -9.9810 C.2     1  UNL1        0.0460
     20 BR         20.2860  -24.7150   -8.6320 Br      1  UNL1       -0.0480
     21  C         21.3720  -23.0660  -10.6710 C.2     1  UNL1        0.0330
     22  O         17.8390  -23.0820   -9.6410 O.2     1  UNL1       -0.3440
     23  C         17.3820  -22.0280   -8.7860 C.3     1  UNL1        0.2160
     24  C         17.1050  -22.6260   -7.4250 C.2     1  UNL1       -0.0130
     25  C         15.8690  -23.2540   -7.1910 C.2     1  UNL1        0.0110
     26  C         15.5680  -23.7990   -5.9420 C.2     1  UNL1        0.0010
     27  C         16.4940  -23.7210   -4.9060 C.2     1  UNL1        0.0020
     28  C         17.7220  -23.0920   -5.1170 C.2     1  UNL1        0.0230
     29  C         18.0330  -22.5400   -6.3690 C.2     1  UNL1        0.0530
     30  C         19.3090  -21.9010   -6.5340 C.1     1  UNL1        0.1000
     31  N         20.3530  -21.4080   -6.6570 N.1     1  UNL1       -0.1910
@<TRIPOS>BOND
     1     1     2    3
     2     2     3    1
     3     4     3    2
     4     4    14    1
     5    15    14    2
     6    15    16    1
     7     3     5    1
     8    17    16    1
     9    14    21    1
    10    16    18    2
    11     9     7    1
    12    21    19    2
    13     5     7   am
    14     5     6    2
    15     7     8   am
    16    18    19    1
    17    18    22    1
    18    19    20    1
    19    22    23    1
    20    13    10    1
    21    10     8   am
    22    10    12    1
    23     8    11    2
    24    23    24    1
    25    24    25    2
    26    24    29    1
    27    25    26    1
    28    31    30    3
    29    30    29    1
    30    29    28    2
    31    26    27    2
    32    28    27    1
