@<TRIPOS>MOLECULE
76577_out_ligand_01.pdbqt
 36 38 0 0 0
SMALL
GASTEIGER

@<TRIPOS>ATOM
      1  C         21.1050  -23.0290  -10.2980 C.2     1  UNL1        0.0420
      2  C         21.7570  -23.0130   -9.1200 C.2     1  UNL1        0.1130
      3  C         23.0590  -23.5740   -9.0040 C.1     1  UNL1        0.1050
      4  N         24.1120  -24.0590   -8.9390 N.1     1  UNL1       -0.1910
      5  C         21.1970  -22.3640   -7.9010 C.2     1  UNL1        0.2660
      6  O         21.8200  -21.4650   -7.3520 O.2     1  UNL1       -0.2670
      7  N         19.9940  -22.9140   -7.5000 N.am    1  UNL1       -0.3220
      8  H         19.6290  -23.6720   -8.0690 H       1  UNL1        0.1690
      9  C         19.1860  -22.5180   -6.4150 C.2     1  UNL1        0.0360
     10  C         19.5130  -21.3070   -5.7900 C.2     1  UNL1        0.0290
     11  C         18.7730  -20.8380   -4.7030 C.2     1  UNL1        0.0040
     12  C         17.6960  -21.5820   -4.2290 C.2     1  UNL1        0.0240
     13  C         17.3680  -22.7870   -4.8440 C.2     1  UNL1        0.0360
     14 CL         16.0380  -23.7060   -4.2470 Cl      1  UNL1       -0.0840
     15  C         18.1040  -23.2580   -5.9330 C.2     1  UNL1        0.0530
     16  C         19.7970  -22.4130  -10.5610 C.2     1  UNL1        0.0000
     17  C         18.6450  -23.0290  -10.0570 C.2     1  UNL1        0.0330
     18  C         17.3920  -22.4710  -10.3110 C.2     1  UNL1        0.0110
     19  C         17.2700  -21.3100  -11.0730 C.2     1  UNL1        0.0220
     20 BR         15.8410  -23.3060   -9.6280 Br      1  UNL1       -0.0510
     21  C         18.4120  -20.6900  -11.5800 C.2     1  UNL1        0.0390
     22  C         19.6740  -21.2260  -11.3050 C.2     1  UNL1        0.0790
     23  O         20.8070  -20.6680  -11.8470 O.2     1  UNL1       -0.3410
     24  C         21.2930  -21.4060  -12.9680 C.3     1  UNL1        0.2780
     25  C         22.8240  -21.3950  -13.1420 C.2     1  UNL1        0.2460
     26  N         23.2190  -20.8660  -14.3630 N.am    1  UNL1       -0.3250
     27  H         22.4820  -20.5460  -14.9730 H       1  UNL1        0.1690
     28  O         23.5560  -21.8240  -12.2550 O.2     1  UNL1       -0.2710
     29  C         24.5360  -20.6770  -14.8500 C.2     1  UNL1        0.0410
     30  C         25.3310  -19.6040  -14.4370 C.2     1  UNL1        0.0300
     31  C         26.6150  -19.4220  -14.9500 C.2     1  UNL1        0.0030
     32  C         27.1200  -20.3090  -15.8920 C.2     1  UNL1        0.0070
     33  C         26.3540  -21.3980  -16.3320 C.2     1  UNL1       -0.0540
     34  C         26.9590  -22.3180  -17.3590 C.3     1  UNL1        0.0490
     35  C         25.0570  -21.6030  -15.7960 C.2     1  UNL1       -0.0290
     36  C         24.2310  -22.7860  -16.2450 C.3     1  UNL1        0.0510
@<TRIPOS>BOND
     1    34    33    1
     2    33    32    2
     3    33    35    1
     4    36    35    1
     5    32    31    1
     6    35    29    2
     7    27    26    1
     8    31    30    2
     9    29    30    1
    10    29    26    1
    11    26    25   am
    12    25    24    1
    13    25    28    2
    14    24    23    1
    15    23    22    1
    16    21    22    1
    17    21    19    2
    18    22    16    2
    19    19    18    1
    20    16     1    1
    21    16    17    1
    22    18    17    2
    23    18    20    1
    24     1     2    2
    25     2     3    1
    26     2     5    1
    27     3     4    3
    28     8     7    1
    29     5     7   am
    30     5     6    2
    31     7     9    1
    32     9    15    2
    33     9    10    1
    34    15    13    1
    35    10    11    2
    36    13    14    1
    37    13    12    2
    38    11    12    1
