@<TRIPOS>MOLECULE
76618_out_ligand_01.pdbqt
 37 39 0 0 0
SMALL
GASTEIGER

@<TRIPOS>ATOM
      1  C         23.7900  -23.6440   -9.5090 C.2     1  UNL1        0.0390
      2  C         24.9250  -23.2790  -10.1420 C.2     1  UNL1        0.1130
      3  C         26.1470  -23.9480   -9.8450 C.1     1  UNL1        0.1050
      4  N         27.1210  -24.4980   -9.5390 N.1     1  UNL1       -0.1910
      5  C         24.9860  -22.2230  -11.1990 C.2     1  UNL1        0.2660
      6  O         24.9290  -21.0440  -10.8740 O.2     1  UNL1       -0.2670
      7  N         25.0800  -22.7200  -12.4840 N.am    1  UNL1       -0.3220
      8  H         25.1220  -23.7270  -12.5840 H       1  UNL1        0.1690
      9  C         25.1830  -21.9870  -13.6840 C.2     1  UNL1        0.0370
     10  C         25.4400  -20.6120  -13.5640 C.2     1  UNL1        0.0290
     11  C         25.5520  -19.7970  -14.6930 C.2     1  UNL1        0.0050
     12  C         25.4130  -20.3500  -15.9640 C.2     1  UNL1        0.0360
     13  C         25.1600  -21.7220  -16.0910 C.2     1  UNL1        0.1050
     14  C         25.0430  -22.5430  -14.9570 C.2     1  UNL1        0.0650
     15  N         25.0160  -22.3040  -17.4300 N.pl3   1  UNL1       -0.1160
     16  O         23.9440  -22.1150  -18.0250 O.2     1  UNL1       -0.5320
     17  O         25.9730  -22.9400  -17.8940 O.2     1  UNL1       -0.5320
     18  C         22.4460  -23.1080   -9.7500 C.2     1  UNL1       -0.0340
     19  C         21.5610  -22.9710   -8.6780 C.2     1  UNL1        0.0140
     20  C         20.2830  -22.4450   -8.8870 C.2     1  UNL1        0.0370
     21  C         19.8690  -22.0610  -10.1650 C.2     1  UNL1        0.0690
     22  C         20.7420  -22.2200  -11.2400 C.2     1  UNL1        0.0370
     23  C         22.0230  -22.7450  -11.0340 C.2     1  UNL1        0.0140
     24  O         18.5910  -21.5770  -10.2230 O.2     1  UNL1       -0.3420
     25  C         17.5370  -22.5010  -10.4730 C.3     1  UNL1        0.2780
     26  C         16.6890  -22.8660   -9.2480 C.2     1  UNL1        0.2460
     27  N         17.1100  -22.2070   -8.1030 N.am    1  UNL1       -0.3250
     28  H         17.9370  -21.6380   -8.2330 H       1  UNL1        0.1690
     29  O         15.7450  -23.6430   -9.3540 O.2     1  UNL1       -0.2710
     30  C         16.5770  -22.2770   -6.7960 C.2     1  UNL1        0.0410
     31  C         15.2230  -22.5360   -6.5660 C.2     1  UNL1        0.0300
     32  C         14.7150  -22.5940   -5.2700 C.2     1  UNL1        0.0030
     33  C         15.5550  -22.3890   -4.1830 C.2     1  UNL1        0.0070
     34  C         16.9180  -22.1220   -4.3740 C.2     1  UNL1       -0.0540
     35  C         17.7710  -21.9000   -3.1530 C.3     1  UNL1        0.0490
     36  C         17.4440  -22.0730   -5.6890 C.2     1  UNL1       -0.0290
     37  C         18.9130  -21.7970   -5.9160 C.3     1  UNL1        0.0510
@<TRIPOS>BOND
     1    16    15    2
     2    17    15    2
     3    15    13    1
     4    13    12    2
     5    13    14    1
     6    12    11    1
     7    14     9    2
     8    11    10    2
     9     9    10    1
    10     9     7    1
    11     8     7    1
    12     7     5   am
    13    22    23    1
    14    22    21    2
    15     5     6    2
    16     5     2    1
    17    23    18    2
    18    25    24    1
    19    25    26    1
    20    24    21    1
    21    21    20    1
    22     2     3    1
    23     2     1    2
    24     3     4    3
    25    18     1    1
    26    18    19    1
    27    29    26    2
    28    26    27   am
    29    20    19    2
    30    28    27    1
    31    27    30    1
    32    30    31    2
    33    30    36    1
    34    31    32    1
    35    37    36    1
    36    36    34    2
    37    32    33    2
    38    34    33    1
    39    34    35    1
