@<TRIPOS>MOLECULE
76613_out_ligand_01.pdbqt
 33 35 0 0 0
SMALL
GASTEIGER

@<TRIPOS>ATOM
      1  C         20.5720  -22.2880  -10.6540 C.2     1  UNL1        0.0160
      2  C         21.8360  -22.8510  -10.4350 C.2     1  UNL1        0.0160
      3  C         21.9840  -23.8940   -9.5230 C.2     1  UNL1        0.0010
      4  C         20.8750  -24.3590   -8.8210 C.2     1  UNL1        0.0030
      5  C         19.6160  -23.7860   -9.0230 C.2     1  UNL1        0.0370
      6  C         19.4510  -22.7460   -9.9440 C.2     1  UNL1        0.0810
      7  O         18.2610  -22.1060  -10.1790 O.2     1  UNL1       -0.3410
      8  C         17.0950  -22.9170  -10.3150 C.3     1  UNL1        0.2780
      9  C         16.3900  -23.1940   -8.9820 C.2     1  UNL1        0.2460
     10  O         15.4920  -24.0270   -8.9050 O.2     1  UNL1       -0.2710
     11  N         16.8770  -22.3950   -7.9610 N.am    1  UNL1       -0.3250
     12  H         17.6410  -21.7900   -8.2440 H       1  UNL1        0.1690
     13  C         16.4950  -22.3570   -6.6010 C.2     1  UNL1        0.0410
     14  C         15.1750  -22.5890   -6.2010 C.2     1  UNL1        0.0300
     15  C         14.8200  -22.5530   -4.8540 C.2     1  UNL1        0.0030
     16  C         15.7800  -22.2840   -3.8860 C.2     1  UNL1        0.0070
     17  C         17.1140  -22.0440   -4.2480 C.2     1  UNL1       -0.0540
     18  C         18.1040  -21.7520   -3.1540 C.3     1  UNL1        0.0490
     19  C         17.4830  -22.0760   -5.6180 C.2     1  UNL1       -0.0290
     20  C         18.9130  -21.8220   -6.0330 C.3     1  UNL1        0.0510
     21  C         20.4290  -21.1390  -11.5770 C.2     1  UNL1        0.1530
     22  N         21.1500  -20.8100  -12.6130 N.2     1  UNL1       -0.1830
     23  N         22.0450  -21.7160  -13.1210 N.am    1  UNL1       -0.2430
     24  C         23.1410  -21.2970  -13.8760 C.2     1  UNL1        0.2710
     25  O         23.3300  -20.1580  -14.2940 O.2     1  UNL1       -0.2660
     26  H         22.2380  -22.4710  -12.4700 H       1  UNL1        0.1920
     27  C         24.1650  -22.3490  -14.1370 C.2     1  UNL1        0.0330
     28  C         24.7630  -22.9850  -13.0430 C.2     1  UNL1        0.0170
     29  C         25.7230  -23.9790  -13.2460 C.2     1  UNL1        0.0070
     30  C         26.1110  -24.3350  -14.5420 C.2     1  UNL1       -0.0620
     31  C         27.1200  -25.4240  -14.7620 C.3     1  UNL1        0.0480
     32  C         25.5140  -23.6950  -15.6350 C.2     1  UNL1        0.0070
     33  C         24.5520  -22.7010  -15.4370 C.2     1  UNL1        0.0170
@<TRIPOS>BOND
     1    32    33    1
     2    32    30    2
     3    33    27    2
     4    31    30    1
     5    30    29    1
     6    25    24    2
     7    27    24    1
     8    27    28    1
     9    24    23   am
    10    29    28    2
    11    23    22    1
    12    23    26    1
    13    22    21    2
    14    21     1    1
    15     1     2    2
    16     1     6    1
    17     2     3    1
    18     8     7    1
    19     8     9    1
    20     7     6    1
    21     6     5    2
    22     3     4    2
    23     5     4    1
    24     9    10    2
    25     9    11   am
    26    12    11    1
    27    11    13    1
    28    13    14    2
    29    13    19    1
    30    14    15    1
    31    20    19    1
    32    19    17    2
    33    15    16    2
    34    17    16    1
    35    17    18    1
