@<TRIPOS>MOLECULE
76629_out_ligand_01.pdbqt
 36 38 0 0 0
SMALL
GASTEIGER

@<TRIPOS>ATOM
      1  C         21.1840  -23.0340  -10.3280 C.2     1  UNL1        0.0420
      2  C         21.8570  -23.0040   -9.1620 C.2     1  UNL1        0.1130
      3  C         23.1460  -23.5980   -9.0630 C.1     1  UNL1        0.1050
      4  N         24.1780  -24.1280   -9.0330 N.1     1  UNL1       -0.1910
      5  C         21.3390  -22.3160   -7.9440 C.2     1  UNL1        0.2660
      6  O         22.0190  -21.4440   -7.4170 O.2     1  UNL1       -0.2670
      7  N         20.1090  -22.7930   -7.5310 N.am    1  UNL1       -0.3220
      8  H         19.7110  -23.5450   -8.0770 H       1  UNL1        0.1690
      9  C         19.3200  -22.3410   -6.4450 C.2     1  UNL1        0.0410
     10  C         19.5720  -21.1300   -5.7890 C.2     1  UNL1        0.0300
     11  C         18.7690  -20.7050   -4.7280 C.2     1  UNL1        0.0020
     12  C         17.7000  -21.4850   -4.3060 C.2     1  UNL1        0.0010
     13  C         17.4340  -22.6930   -4.9460 C.2     1  UNL1        0.0090
     14  C         18.2360  -23.1370   -6.0140 C.2     1  UNL1       -0.0350
     15  C         17.8860  -24.4500   -6.6620 C.3     1  UNL1        0.0500
     16  C         19.8780  -22.4060  -10.5950 C.2     1  UNL1        0.0000
     17  C         18.7150  -22.9960  -10.0790 C.2     1  UNL1        0.0330
     18  C         17.4740  -22.4130  -10.3250 C.2     1  UNL1        0.0110
     19  C         17.3810  -21.2430  -11.0710 C.2     1  UNL1        0.0220
     20 BR         15.9070  -23.2140   -9.6360 Br      1  UNL1       -0.0510
     21  C         18.5370  -20.6450  -11.5850 C.2     1  UNL1        0.0390
     22  C         19.7910  -21.2210  -11.3550 C.2     1  UNL1        0.0790
     23  O         20.9820  -20.7220  -11.8190 O.2     1  UNL1       -0.3410
     24  C         21.2470  -20.7830  -13.2170 C.3     1  UNL1        0.2780
     25  C         22.6850  -21.1610  -13.5970 C.2     1  UNL1        0.2460
     26  N         23.2400  -22.0700  -12.7160 N.am    1  UNL1       -0.3250
     27  H         22.6490  -22.3110  -11.9280 H       1  UNL1        0.1690
     28  O         23.2050  -20.6830  -14.6000 O.2     1  UNL1       -0.2710
     29  C         24.5310  -22.6440  -12.7370 C.2     1  UNL1        0.0410
     30  C         25.4790  -22.2140  -11.7840 C.2     1  UNL1       -0.0350
     31  C         26.7660  -22.7780  -11.7910 C.2     1  UNL1        0.0090
     32  C         25.1660  -21.1660  -10.7490 C.3     1  UNL1        0.0500
     33  C         27.1180  -23.7510  -12.7250 C.2     1  UNL1        0.0070
     34  C         26.1920  -24.1730  -13.6780 C.2     1  UNL1       -0.0600
     35  C         26.5470  -25.2410  -14.6700 C.3     1  UNL1        0.0480
     36  C         24.9010  -23.6230  -13.6680 C.2     1  UNL1        0.0370
@<TRIPOS>BOND
     1    35    34    1
     2    28    25    2
     3    34    36    1
     4    34    33    2
     5    36    29    2
     6    25    24    1
     7    25    26   am
     8    24    23    1
     9    29    26    1
    10    29    30    1
    11    33    31    1
    12    26    27    1
    13    23    22    1
    14    31    30    2
    15    30    32    1
    16    21    22    1
    17    21    19    2
    18    22    16    2
    19    19    18    1
    20    16     1    1
    21    16    17    1
    22     1     2    2
    23    18    17    2
    24    18    20    1
    25     2     3    1
    26     2     5    1
    27     3     4    3
    28     8     7    1
    29     5     7   am
    30     5     6    2
    31     7     9    1
    32    15    14    1
    33     9    14    2
    34     9    10    1
    35    14    13    1
    36    10    11    2
    37    13    12    2
    38    11    12    1
