@<TRIPOS>MOLECULE
76633_out_ligand_01.pdbqt
 37 39 0 0 0
SMALL
GASTEIGER

@<TRIPOS>ATOM
      1  C         21.2140  -23.0440  -10.3740 C.2     1  UNL1        0.0420
      2  C         21.8980  -22.9850   -9.2140 C.2     1  UNL1        0.1130
      3  C         23.1930  -23.5660   -9.1140 C.1     1  UNL1        0.1050
      4  N         24.2300  -24.0850   -9.0820 N.1     1  UNL1       -0.1910
      5  C         21.3810  -22.2810   -8.0050 C.2     1  UNL1        0.2660
      6  O         22.0750  -21.4210   -7.4770 O.2     1  UNL1       -0.2670
      7  N         20.1370  -22.7330   -7.6020 N.am    1  UNL1       -0.3220
      8  H         19.7370  -23.4790   -8.1520 H       1  UNL1        0.1690
      9  C         19.3520  -22.2760   -6.5140 C.2     1  UNL1        0.0410
     10  C         19.6330  -21.0730   -5.8570 C.2     1  UNL1        0.0300
     11  C         18.8470  -20.6380   -4.7920 C.2     1  UNL1        0.0030
     12  C         17.7670  -21.3990   -4.3670 C.2     1  UNL1        0.0070
     13  C         17.4530  -22.6110   -5.0000 C.2     1  UNL1       -0.0540
     14  C         16.2630  -23.3840   -4.4950 C.3     1  UNL1        0.0490
     15  C         18.2490  -23.0620   -6.0830 C.2     1  UNL1       -0.0290
     16  C         17.9200  -24.3620   -6.7800 C.3     1  UNL1        0.0510
     17  C         19.8970  -22.4380  -10.6360 C.2     1  UNL1        0.0010
     18  C         18.7430  -23.0550  -10.1320 C.2     1  UNL1        0.0380
     19  C         17.4940  -22.4880  -10.3710 C.2     1  UNL1        0.0350
     20  C         17.3840  -21.3110  -11.1040 C.2     1  UNL1        0.0260
     21 CL         16.0790  -23.2430   -9.7490 Cl      1  UNL1       -0.0840
     22  C         18.5300  -20.6870  -11.6080 C.2     1  UNL1        0.0390
     23  C         19.7920  -21.2440  -11.3810 C.2     1  UNL1        0.0790
     24  O         20.9770  -20.7170  -11.8310 O.2     1  UNL1       -0.3410
     25  C         21.2330  -20.7040  -13.2320 C.3     1  UNL1        0.2780
     26  C         22.6520  -21.1120  -13.6490 C.2     1  UNL1        0.2460
     27  N         23.2440  -21.9690  -12.7400 N.am    1  UNL1       -0.3250
     28  H         22.6900  -22.1560  -11.9130 H       1  UNL1        0.1690
     29  O         23.1320  -20.6910  -14.6970 O.2     1  UNL1       -0.2710
     30  C         24.5350  -22.5400  -12.7780 C.2     1  UNL1        0.0410
     31  C         25.4920  -22.1110  -11.8340 C.2     1  UNL1       -0.0350
     32  C         26.7790  -22.6750  -11.8550 C.2     1  UNL1        0.0090
     33  C         25.1940  -21.0610  -10.7980 C.3     1  UNL1        0.0500
     34  C         27.1210  -23.6440  -12.7950 C.2     1  UNL1        0.0070
     35  C         26.1860  -24.0640  -13.7410 C.2     1  UNL1       -0.0600
     36  C         26.5430  -25.1310  -14.7340 C.3     1  UNL1        0.0480
     37  C         24.8940  -23.5170  -13.7160 C.2     1  UNL1        0.0370
@<TRIPOS>BOND
     1    36    35    1
     2    29    26    2
     3    35    37    1
     4    35    34    2
     5    37    30    2
     6    26    25    1
     7    26    27   am
     8    25    24    1
     9    34    32    1
    10    30    27    1
    11    30    31    1
    12    27    28    1
    13    32    31    2
    14    31    33    1
    15    24    23    1
    16    22    23    1
    17    22    20    2
    18    23    17    2
    19    20    19    1
    20    17     1    1
    21    17    18    1
    22     1     2    2
    23    19    18    2
    24    19    21    1
    25     2     3    1
    26     2     5    1
    27     3     4    3
    28     8     7    1
    29     5     7   am
    30     5     6    2
    31     7     9    1
    32    16    15    1
    33     9    15    2
    34     9    10    1
    35    15    13    1
    36    10    11    2
    37    13    14    1
    38    13    12    2
    39    11    12    1
