@<TRIPOS>MOLECULE
76648_out_ligand_01.pdbqt
 33 35 0 0 0
SMALL
GASTEIGER

@<TRIPOS>ATOM
      1  C         17.9980  -21.8720   -5.2870 C.2     1  UNL1        0.0390
      2  C         16.8770  -22.6230   -5.3090 C.2     1  UNL1        0.1130
      3  C         15.8610  -22.4020   -4.3340 C.1     1  UNL1        0.1050
      4  N         15.0510  -22.1550   -3.5400 N.1     1  UNL1       -0.1910
      5  C         16.6300  -23.7240   -6.2790 C.2     1  UNL1        0.2620
      6  O         17.0010  -24.8690   -6.0430 O.2     1  UNL1       -0.2670
      7  N         15.9280  -23.3630   -7.4030 N.am    1  UNL1       -0.3560
      8  H         15.6250  -22.4060   -7.5320 H       1  UNL1        0.1620
      9  C         15.5860  -24.3130   -8.4400 C.3     1  UNL1        0.1230
     10  C         15.5340  -23.6920   -9.8370 C.3     1  UNL1        0.0240
     11  C         15.8840  -22.2000   -9.8870 C.3     1  UNL1        0.0400
     12  C         17.2190  -21.8890  -10.5200 C.2     1  UNL1       -0.0580
     13  C         18.2720  -22.8120  -10.4610 C.2     1  UNL1        0.0070
     14  C         19.5050  -22.5180  -11.0460 C.2     1  UNL1        0.0010
     15  C         19.6960  -21.3020  -11.7010 C.2     1  UNL1        0.0000
     16  C         18.6520  -20.3830  -11.7760 C.2     1  UNL1        0.0010
     17  C         17.4190  -20.6740  -11.1910 C.2     1  UNL1        0.0070
     18  C         19.1770  -21.9990   -6.1530 C.2     1  UNL1       -0.0330
     19  C         20.1360  -20.9800   -6.1500 C.2     1  UNL1        0.0140
     20  C         21.2820  -21.0740   -6.9490 C.2     1  UNL1        0.0390
     21  C         21.4950  -22.1940   -7.7580 C.2     1  UNL1        0.0860
     22  C         20.5370  -23.2200   -7.7490 C.2     1  UNL1        0.0450
     23  C         19.3920  -23.1290   -6.9480 C.2     1  UNL1        0.0330
     24 BR         20.7460  -24.7800   -8.8140 Br      1  UNL1       -0.0480
     25  O         22.5840  -22.3730   -8.5670 O.2     1  UNL1       -0.3450
     26  C         22.9350  -21.3270   -9.4700 C.3     1  UNL1        0.2140
     27  C         23.8190  -21.8730  -10.5680 C.2     1  UNL1       -0.0340
     28  C         23.3310  -22.8060  -11.4940 C.2     1  UNL1        0.0100
     29  C         24.1450  -23.2800  -12.5250 C.2     1  UNL1        0.0070
     30  C         25.4640  -22.8330  -12.6510 C.2     1  UNL1       -0.0620
     31  C         26.3300  -23.3200  -13.7760 C.3     1  UNL1        0.0480
     32  C         25.9470  -21.8810  -11.7470 C.2     1  UNL1        0.0070
     33  C         25.1320  -21.4050  -10.7150 C.2     1  UNL1        0.0100
@<TRIPOS>BOND
     1    31    30    1
     2    30    29    2
     3    30    32    1
     4    29    28    1
     5    16    15    2
     6    16    17    1
     7    32    33    2
     8    15    14    1
     9    28    27    2
    10    17    12    2
    11    14    13    2
    12    33    27    1
    13    27    26    1
    14    12    13    1
    15    12    11    1
    16    11    10    1
    17    10     9    1
    18    26    25    1
    19    24    22    1
    20    25    21    1
    21     9     7    1
    22    21    22    2
    23    21    20    1
    24    22    23    1
    25     8     7    1
    26     7     5   am
    27    20    19    2
    28    23    18    2
    29     5     6    2
    30     5     2    1
    31    18    19    1
    32    18     1    1
    33     2     1    2
    34     2     3    1
    35     3     4    3
