@<TRIPOS>MOLECULE
76645_out_ligand_01.pdbqt
 36 38 0 0 0
SMALL
GASTEIGER

@<TRIPOS>ATOM
      1  C         21.6040  -23.0340   -9.1680 C.2     1  UNL1        0.1130
      2  C         22.8580  -23.6830   -8.9960 C.1     1  UNL1        0.1050
      3  N         23.8900  -24.2010   -8.8960 N.1     1  UNL1       -0.1910
      4  C         21.0250  -22.9740  -10.3830 C.2     1  UNL1        0.0420
      5  C         20.9420  -22.5030   -7.9400 C.2     1  UNL1        0.2660
      6  N         19.6980  -23.0570   -7.7070 N.am    1  UNL1       -0.3220
      7  H         19.3520  -23.7120   -8.4000 H       1  UNL1        0.1690
      8  O         21.5060  -21.6390   -7.2770 O.2     1  UNL1       -0.2670
      9  C         18.8630  -22.8520   -6.5910 C.2     1  UNL1        0.0350
     10  C         18.8620  -21.6910   -5.8170 C.2     1  UNL1        0.0300
     11  C         18.0130  -21.5770   -4.7110 C.2     1  UNL1        0.0090
     12  C         17.1430  -22.6160   -4.3660 C.2     1  UNL1       -0.0620
     13  C         16.2660  -22.5020   -3.1560 C.3     1  UNL1        0.0480
     14  C         17.1540  -23.7850   -5.1330 C.2     1  UNL1        0.0090
     15  C         18.0030  -23.8980   -6.2380 C.2     1  UNL1        0.0300
     16  C         19.7010  -22.4060  -10.6710 C.2     1  UNL1        0.0010
     17  C         18.5650  -22.9940  -10.1040 C.2     1  UNL1        0.0380
     18  C         17.3050  -22.4490  -10.3460 C.2     1  UNL1        0.0350
     19 CL         15.9110  -23.1740   -9.6460 Cl      1  UNL1       -0.0840
     20  C         17.1640  -21.3120  -11.1420 C.2     1  UNL1        0.0260
     21  C         18.2910  -20.7140  -11.7100 C.2     1  UNL1        0.0390
     22  C         19.5540  -21.2760  -11.4970 C.2     1  UNL1        0.0790
     23  O         20.6850  -20.6800  -11.9970 O.2     1  UNL1       -0.3410
     24  C         21.2340  -21.3930  -13.1060 C.3     1  UNL1        0.2780
     25  C         22.7700  -21.3420  -13.2350 C.2     1  UNL1        0.2460
     26  O         23.4900  -21.7770  -12.3410 O.2     1  UNL1       -0.2710
     27  N         23.1860  -20.7810  -14.4340 N.am    1  UNL1       -0.3250
     28  H         22.4620  -20.4140  -15.0330 H       1  UNL1        0.1690
     29  C         24.5100  -20.6430  -14.9250 C.2     1  UNL1        0.0410
     30  C         25.3410  -19.5910  -14.5230 C.2     1  UNL1        0.0300
     31  C         26.6360  -19.4670  -15.0240 C.2     1  UNL1        0.0030
     32  C         27.1180  -20.3890  -15.9430 C.2     1  UNL1        0.0070
     33  C         26.3170  -21.4570  -16.3730 C.2     1  UNL1       -0.0540
     34  C         26.9010  -22.4190  -17.3750 C.3     1  UNL1        0.0490
     35  C         25.0080  -21.6050  -15.8480 C.2     1  UNL1       -0.0290
     36  C         24.1440  -22.7640  -16.2870 C.3     1  UNL1        0.0510
@<TRIPOS>BOND
     1    34    33    1
     2    33    32    2
     3    33    35    1
     4    36    35    1
     5    32    31    1
     6    35    29    2
     7    28    27    1
     8    31    30    2
     9    29    30    1
    10    29    27    1
    11    27    25   am
    12    25    24    1
    13    25    26    2
    14    24    23    1
    15    23    22    1
    16    21    22    1
    17    21    20    2
    18    22    16    2
    19    20    18    1
    20    16     4    1
    21    16    17    1
    22     4     1    2
    23    18    17    2
    24    18    19    1
    25     1     2    1
    26     1     5    1
    27     2     3    3
    28     7     6    1
    29     5     6   am
    30     5     8    2
    31     6     9    1
    32     9    15    2
    33     9    10    1
    34    15    14    1
    35    10    11    2
    36    14    12    2
    37    11    12    1
    38    12    13    1
