@<TRIPOS>MOLECULE
76646_out_ligand_01.pdbqt
 33 35 0 0 0
SMALL
GASTEIGER

@<TRIPOS>ATOM
      1  C         21.6920  -23.2370   -8.4440 C.2     1  UNL1       -0.0580
      2  C         21.1230  -22.1520   -7.7630 C.2     1  UNL1        0.0090
      3  C         19.8440  -22.2500   -7.2120 C.2     1  UNL1        0.0260
      4  C         19.1300  -23.4420   -7.3430 C.2     1  UNL1        0.0790
      5  C         19.6750  -24.5270   -8.0320 C.2     1  UNL1        0.0260
      6  C         20.9570  -24.4240   -8.5760 C.2     1  UNL1        0.0090
      7  C         23.0630  -23.1100   -9.0670 C.3     1  UNL1        0.0480
      8  C         23.3380  -21.6950   -9.5690 C.3     1  UNL1        0.1080
      9  C         24.3760  -21.6720  -10.6850 C.2     1  UNL1        0.2220
     10  N         24.1420  -22.6530  -11.6350 N.am    1  UNL1       -0.3270
     11  H         23.3270  -23.2280  -11.4810 H       1  UNL1        0.1690
     12  O         25.3070  -20.8750  -10.6710 O.2     1  UNL1       -0.2730
     13  C         24.8580  -22.9050  -12.8330 C.2     1  UNL1        0.0420
     14  C         25.9520  -23.7790  -12.8680 C.2     1  UNL1        0.0300
     15  C         26.6490  -24.0180  -14.0510 C.2     1  UNL1        0.0040
     16  C         26.2560  -23.3900  -15.2230 C.2     1  UNL1        0.0240
     17  C         25.1690  -22.5130  -15.2140 C.2     1  UNL1        0.0420
     18  C         24.4590  -22.2450  -14.0250 C.2     1  UNL1       -0.0130
     19 CL         24.7580  -21.7870  -16.7290 Cl      1  UNL1       -0.0840
     20  C         23.2910  -21.2900  -14.0160 C.3     1  UNL1        0.0520
     21  S         17.5090  -23.5910   -6.6370 S.O2    1  UNL1        0.2590
     22  O         17.2010  -24.9950   -6.4850 O.2     1  UNL1       -0.2010
     23  O         17.4280  -22.6660   -5.5290 O.2     1  UNL1       -0.2010
     24  N         16.5210  -22.9910   -7.8360 N.3     1  UNL1       -0.3070
     25  H         16.1380  -22.0630   -7.6800 H       1  UNL1        0.1730
     26  C         16.5960  -23.5210   -9.1980 C.3     1  UNL1        0.1220
     27  C         15.1740  -23.8300   -9.6720 C.3     1  UNL1        0.0380
     28  C         17.3040  -22.5430  -10.1200 C.2     1  UNL1       -0.0350
     29  C         16.7180  -21.3230  -10.4970 C.2     1  UNL1        0.0090
     30  C         17.4000  -20.4330  -11.3300 C.2     1  UNL1        0.0010
     31  C         18.6770  -20.7440  -11.7920 C.2     1  UNL1        0.0000
     32  C         19.2740  -21.9460  -11.4220 C.2     1  UNL1        0.0010
     33  C         18.5930  -22.8400  -10.5930 C.2     1  UNL1        0.0090
@<TRIPOS>BOND
     1    19    17    1
     2    16    17    2
     3    16    15    1
     4    17    18    1
     5    15    14    2
     6    18    20    1
     7    18    13    2
     8    14    13    1
     9    13    10    1
    10    31    32    2
    11    31    30    1
    12    10    11    1
    13    10     9   am
    14    32    33    1
    15    30    29    2
    16     9    12    2
    17     9     8    1
    18    33    28    2
    19    29    28    1
    20    28    26    1
    21    27    26    1
    22     8     7    1
    23    26    24    1
    24     7     1    1
    25     6     1    2
    26     6     5    1
    27     1     2    1
    28     5     4    2
    29    24    25    1
    30    24    21    1
    31     2     3    2
    32     4     3    1
    33     4    21    1
    34    21    22    2
    35    21    23    2
