@<TRIPOS>MOLECULE
76659_out_ligand_01.pdbqt
 30 31 0 0 0
SMALL
GASTEIGER

@<TRIPOS>ATOM
      1  N         24.8290  -20.4880  -15.0820 N.1     1  UNL1       -0.1910
      2  C         24.2600  -20.8890  -14.1530 C.1     1  UNL1        0.1050
      3  C         23.4970  -21.3950  -13.0630 C.2     1  UNL1        0.1130
      4  C         22.1510  -21.4260  -13.1390 C.2     1  UNL1        0.0400
      5  C         24.2620  -21.8150  -11.8560 C.2     1  UNL1        0.2690
      6  O         24.2070  -21.1350  -10.8380 O.2     1  UNL1       -0.2660
      7  N         24.8900  -23.0360  -11.9810 N.am    1  UNL1       -0.2790
      8  C         26.0650  -23.3190  -11.3430 C.2     1  UNL1        0.2980
      9  H         24.8020  -23.5310  -12.8530 H       1  UNL1        0.1730
     10  N         26.4820  -24.5960  -11.5940 N.am    1  UNL1       -0.2540
     11  O         26.7420  -22.5720  -10.6570 O.2     1  UNL1       -0.2540
     12  H         27.3180  -24.8220  -11.0640 H       1  UNL1        0.1280
     13  H         25.7750  -25.3160  -11.5210 H       1  UNL1        0.1280
     14  C         21.2170  -21.8240  -12.0780 C.2     1  UNL1       -0.0320
     15  C         21.5730  -22.7700  -11.1070 C.2     1  UNL1        0.0330
     16  C         20.6640  -23.1290  -10.1060 C.2     1  UNL1        0.0460
     17 BR         21.1900  -24.4740   -8.8720 Br      1  UNL1       -0.0480
     18  C         19.4050  -22.5210  -10.0410 C.2     1  UNL1        0.1030
     19  C         19.0440  -21.5900  -11.0210 C.2     1  UNL1        0.0460
     20 BR         17.3170  -20.8020  -11.0640 Br      1  UNL1       -0.0480
     21  C         19.9510  -21.2300  -12.0250 C.2     1  UNL1        0.0330
     22  O         18.5030  -22.8980   -9.0780 O.2     1  UNL1       -0.3440
     23  C         18.7750  -22.2310   -7.8380 C.3     1  UNL1        0.2140
     24  C         17.6940  -22.6060   -6.8560 C.2     1  UNL1       -0.0310
     25  C         17.9730  -23.4550   -5.7720 C.2     1  UNL1        0.0090
     26  C         16.9700  -23.8010   -4.8630 C.2     1  UNL1        0.0040
     27  C         15.6780  -23.3040   -5.0300 C.2     1  UNL1        0.0420
     28  C         15.3990  -22.4700   -6.1050 C.2     1  UNL1        0.1170
     29  F         14.1560  -21.9950   -6.2670 F       1  UNL1       -0.2060
     30  C         16.3890  -22.1170   -7.0160 C.2     1  UNL1        0.0510
@<TRIPOS>BOND
     1     1     2    3
     2     2     3    1
     3     4     3    2
     4     4    14    1
     5     3     5    1
     6     9     7    1
     7    14    21    2
     8    14    15    1
     9    21    19    1
    10     7     5   am
    11     7     8   am
    12     5     6    2
    13    10    13    1
    14    10     8   am
    15    10    12    1
    16     8    11    2
    17    15    16    2
    18    20    19    1
    19    19    18    2
    20    16    18    1
    21    16    17    1
    22    18    22    1
    23    22    23    1
    24    23    24    1
    25    30    24    2
    26    30    28    1
    27    24    25    1
    28    29    28    1
    29    28    27    2
    30    25    26    2
    31    27    26    1
