@<TRIPOS>MOLECULE
76662_out_ligand_01.pdbqt
 37 39 0 0 0
SMALL
GASTEIGER

@<TRIPOS>ATOM
      1  C         21.0530  -23.0410  -10.3500 C.2     1  UNL1        0.0420
      2  C         21.7520  -22.9880   -9.1990 C.2     1  UNL1        0.1130
      3  C         23.0590  -23.5460   -9.1300 C.1     1  UNL1        0.1050
      4  N         24.1050  -24.0460   -9.1230 N.1     1  UNL1       -0.1910
      5  C         21.2430  -22.3080   -7.9720 C.2     1  UNL1        0.2660
      6  O         21.9020  -21.4010   -7.4800 O.2     1  UNL1       -0.2670
      7  N         20.0490  -22.8330   -7.5150 N.am    1  UNL1       -0.3220
      8  H         19.6730  -23.6100   -8.0400 H       1  UNL1        0.1690
      9  C         19.2590  -22.3860   -6.4250 C.2     1  UNL1        0.0410
     10  C         19.5080  -21.1670   -5.7860 C.2     1  UNL1        0.0300
     11  C         18.7000  -20.7270   -4.7390 C.2     1  UNL1        0.0030
     12  C         17.6220  -21.4980   -4.3220 C.2     1  UNL1        0.0070
     13  C         17.3380  -22.7240   -4.9380 C.2     1  UNL1       -0.0540
     14  C         16.1510  -23.5070   -4.4410 C.3     1  UNL1        0.0490
     15  C         18.1740  -23.1920   -5.9860 C.2     1  UNL1       -0.0290
     16  C         17.8870  -24.5200   -6.6450 C.3     1  UNL1        0.0510
     17  C         19.7230  -22.4530  -10.5900 C.2     1  UNL1        0.0000
     18  C         18.5900  -23.0560  -10.0250 C.2     1  UNL1        0.0330
     19  C         17.3300  -22.5080  -10.2470 C.2     1  UNL1        0.0110
     20  C         17.1870  -21.3620  -11.0220 C.2     1  UNL1        0.0220
     21 BR         15.8040  -23.3270   -9.4920 Br      1  UNL1       -0.0510
     22  C         18.3120  -20.7510  -11.5840 C.2     1  UNL1        0.0390
     23  C         19.5850  -21.2900  -11.3760 C.2     1  UNL1        0.0790
     24  O         20.7500  -20.7730  -11.8870 O.2     1  UNL1       -0.3410
     25  C         21.2440  -21.2900  -13.1180 C.3     1  UNL1        0.2780
     26  C         22.7730  -21.3000  -13.2580 C.2     1  UNL1        0.2460
     27  N         23.1920  -20.7790  -14.4700 N.am    1  UNL1       -0.3250
     28  H         22.4400  -20.5320  -15.1010 H       1  UNL1        0.1690
     29  O         23.4750  -21.7200  -12.3450 O.2     1  UNL1       -0.2710
     30  C         24.5100  -20.6260  -14.9580 C.2     1  UNL1        0.0410
     31  C         25.3150  -19.5490  -14.5780 C.2     1  UNL1        0.0300
     32  C         26.6110  -19.4150  -15.0710 C.2     1  UNL1        0.0030
     33  C         27.1210  -20.3580  -15.9570 C.2     1  UNL1        0.0070
     34  C         26.3430  -21.4500  -16.3640 C.2     1  UNL1       -0.0540
     35  C         26.9540  -22.4360  -17.3250 C.3     1  UNL1        0.0490
     36  C         25.0230  -21.5940  -15.8640 C.2     1  UNL1       -0.0290
     37  C         24.1690  -22.7680  -16.2870 C.3     1  UNL1        0.0510
@<TRIPOS>BOND
     1    35    34    1
     2    34    33    2
     3    34    36    1
     4    37    36    1
     5    33    32    1
     6    36    30    2
     7    28    27    1
     8    32    31    2
     9    30    31    1
    10    30    27    1
    11    27    26   am
    12    26    25    1
    13    26    29    2
    14    25    24    1
    15    24    23    1
    16    22    23    1
    17    22    20    2
    18    23    17    2
    19    20    19    1
    20    17     1    1
    21    17    18    1
    22     1     2    2
    23    19    18    2
    24    19    21    1
    25     2     3    1
    26     2     5    1
    27     3     4    3
    28     8     7    1
    29     5     7   am
    30     5     6    2
    31     7     9    1
    32    16    15    1
    33     9    15    2
    34     9    10    1
    35    15    13    1
    36    10    11    2
    37    13    14    1
    38    13    12    2
    39    11    12    1
