@<TRIPOS>MOLECULE
76679_out_ligand_01.pdbqt
 36 38 0 0 0
SMALL
GASTEIGER

@<TRIPOS>ATOM
      1  C         21.1370  -23.0020  -10.2730 C.2     1  UNL1        0.0420
      2  C         21.7900  -22.9680   -9.0940 C.2     1  UNL1        0.1130
      3  C         23.0380  -23.6350   -8.9480 C.1     1  UNL1        0.1050
      4  N         24.0670  -24.1680   -8.8980 N.1     1  UNL1       -0.1910
      5  C         21.2380  -22.2980   -7.8800 C.2     1  UNL1        0.2660
      6  O         21.8900  -21.4200   -7.3290 O.2     1  UNL1       -0.2670
      7  N         19.9830  -22.7560   -7.5230 N.am    1  UNL1       -0.3220
      8  H         19.5680  -23.4660   -8.1130 H       1  UNL1        0.1690
      9  C         19.2180  -22.3700   -6.4030 C.2     1  UNL1        0.0360
     10  C         19.5770  -21.1710   -5.7720 C.2     1  UNL1        0.0290
     11  C         18.8710  -20.7070   -4.6590 C.2     1  UNL1        0.0040
     12  C         17.7970  -21.4420   -4.1660 C.2     1  UNL1        0.0240
     13  C         17.4350  -22.6340   -4.7890 C.2     1  UNL1        0.0360
     14 CL         16.1040  -23.5390   -4.1760 Cl      1  UNL1       -0.0840
     15  C         18.1390  -23.1010   -5.9020 C.2     1  UNL1        0.0530
     16  C         19.8140  -22.4160  -10.5470 C.2     1  UNL1        0.0000
     17  C         18.6710  -23.0180  -10.0020 C.2     1  UNL1        0.0330
     18  C         17.4160  -22.4680  -10.2480 C.2     1  UNL1        0.0110
     19  C         17.2860  -21.3300  -11.0370 C.2     1  UNL1        0.0220
     20 BR         15.8770  -23.2740   -9.5050 Br      1  UNL1       -0.0510
     21  C         18.4220  -20.7270  -11.5890 C.2     1  UNL1        0.0390
     22  C         19.6910  -21.2610  -11.3490 C.2     1  UNL1        0.0790
     23  O         20.8680  -20.7430  -11.8320 O.2     1  UNL1       -0.3410
     24  C         21.1530  -20.8830  -13.2210 C.3     1  UNL1        0.2780
     25  C         22.6180  -21.1890  -13.5600 C.2     1  UNL1        0.2460
     26  N         23.1780  -22.1060  -12.6880 N.am    1  UNL1       -0.3250
     27  H         22.5350  -22.4870  -12.0050 H       1  UNL1        0.1690
     28  O         23.1660  -20.6250  -14.5020 O.2     1  UNL1       -0.2710
     29  C         24.4910  -22.6250  -12.6800 C.2     1  UNL1        0.0410
     30  C         25.3930  -22.1710  -11.6940 C.2     1  UNL1       -0.0350
     31  C         26.7010  -22.6850  -11.6670 C.2     1  UNL1        0.0090
     32  C         25.0070  -21.1570  -10.6500 C.3     1  UNL1        0.0500
     33  C         27.1190  -23.6290  -12.6030 C.2     1  UNL1        0.0070
     34  C         26.2410  -24.0700  -13.5920 C.2     1  UNL1       -0.0600
     35  C         26.6710  -25.1090  -14.5870 C.3     1  UNL1        0.0480
     36  C         24.9290  -23.5720  -13.6150 C.2     1  UNL1        0.0370
@<TRIPOS>BOND
     1    35    34    1
     2    28    25    2
     3    36    34    1
     4    36    29    2
     5    34    33    2
     6    25    24    1
     7    25    26   am
     8    24    23    1
     9    26    29    1
    10    26    27    1
    11    29    30    1
    12    33    31    1
    13    23    22    1
    14    30    31    2
    15    30    32    1
    16    21    22    1
    17    21    19    2
    18    22    16    2
    19    19    18    1
    20    16     1    1
    21    16    17    1
    22     1     2    2
    23    18    17    2
    24    18    20    1
    25     2     3    1
    26     2     5    1
    27     3     4    3
    28     8     7    1
    29     5     7   am
    30     5     6    2
    31     7     9    1
    32     9    15    2
    33     9    10    1
    34    15    13    1
    35    10    11    2
    36    13    14    1
    37    13    12    2
    38    11    12    1
