@<TRIPOS>MOLECULE
766_out_ligand_01.pdbqt
 30 33 0 0 0
SMALL
GASTEIGER

@<TRIPOS>ATOM
      1  S         16.7740  -24.0850   -7.5000 S.O2    1  UNL1        0.2640
      2  O         17.2270  -24.9700   -6.4480 O.2     1  UNL1       -0.2000
      3  O         15.6660  -24.4370   -8.3600 O.2     1  UNL1       -0.2000
      4  N         16.4350  -22.6070   -6.7790 N.pl3   1  UNL1       -0.2800
      5  H         15.9910  -21.9560   -7.4470 H       1  UNL1        0.1790
      6  C         17.2670  -21.9910   -5.7820 C.2     1  UNL1        0.0580
      7  C         18.5160  -21.4400   -6.1010 C.2     1  UNL1        0.0310
      8  C         19.3400  -20.9000   -5.1090 C.2     1  UNL1        0.0020
      9  C         18.9370  -20.9170   -3.7790 C.2     1  UNL1        0.0010
     10  C         17.7180  -21.4960   -3.4320 C.2     1  UNL1        0.0190
     11  C         16.8920  -22.0630   -4.4190 C.2     1  UNL1        0.0590
     12  C         15.6070  -22.7150   -4.0260 C.2     1  UNL1        0.2510
     13  N         15.6260  -24.0460   -3.7110 N.am    1  UNL1       -0.3660
     14  H         14.7230  -24.4790   -3.5600 H       1  UNL1        0.1590
     15  H         16.3910  -24.6570   -3.9580 H       1  UNL1        0.1590
     16  O         14.5450  -22.0990   -4.0260 O.2     1  UNL1       -0.2680
     17  C         18.2150  -23.7320   -8.4870 C.2     1  UNL1        0.0910
     18  C         19.4220  -24.4110   -8.1500 C.2     1  UNL1        0.0280
     19  C         20.6140  -24.1710   -8.8490 C.2     1  UNL1        0.0320
     20  C         20.5650  -23.2570   -9.8740 C.2     1  UNL1        0.0470
     21  C         19.3970  -22.6180  -10.2000 C.2     1  UNL1        0.0180
     22  N         21.5750  -22.8230  -10.7270 N.am    1  UNL1       -0.3220
     23  C         19.6240  -21.7750  -11.2590 C.2     1  UNL1        0.0450
     24  C         18.1680  -22.7980   -9.5650 C.2     1  UNL1        0.0010
     25  C         18.6090  -21.0140  -11.7980 C.2     1  UNL1        0.0180
     26  C         21.0550  -21.8960  -11.6160 C.2     1  UNL1        0.2570
     27  C         17.3400  -21.1440  -11.2220 C.2     1  UNL1        0.0020
     28  C         17.1150  -22.0190  -10.1290 C.2     1  UNL1        0.0140
     29  O         21.6320  -21.3010  -12.5020 O.2     1  UNL1       -0.2670
     30  H         22.5370  -23.1240  -10.7280 H       1  UNL1        0.1690
@<TRIPOS>BOND
     1    29    26    2
     2    25    23    2
     3    25    27    1
     4    26    23    1
     5    26    22   am
     6    23    21    1
     7    27    28    2
     8    30    22    1
     9    22    20    1
    10    21    20    2
    11    21    24    1
    12    28    24    1
    13    20    19    1
    14    24    17    2
    15    19    18    2
    16    17    18    1
    17    17     1    1
    18     3     1    2
    19     1     4    1
    20     1     2    2
    21     5     4    1
    22     4     6    1
    23     7     6    2
    24     7     8    1
    25     6    11    1
    26     8     9    2
    27    11    12    1
    28    11    10    2
    29    16    12    2
    30    12    13   am
    31    15    13    1
    32     9    10    1
    33    13    14    1
