@<TRIPOS>MOLECULE
76707_out_ligand_01.pdbqt
 34 36 0 0 0
SMALL
GASTEIGER

@<TRIPOS>ATOM
      1  C         19.1510  -23.0330  -10.1600 C.2     1  UNL1        0.0860
      2  C         19.6150  -24.0430   -9.3110 C.2     1  UNL1        0.0390
      3  C         20.9430  -24.0390   -8.8710 C.2     1  UNL1        0.0160
      4  C         21.8120  -23.0220   -9.2760 C.2     1  UNL1       -0.0160
      5  C         21.3730  -22.0340  -10.1580 C.2     1  UNL1        0.0340
      6  C         20.0450  -22.0420  -10.5930 C.2     1  UNL1        0.0450
      7 BR         19.4930  -20.6630  -11.7780 Br      1  UNL1       -0.0480
      8  C         23.2270  -23.0000   -8.8520 C.2     1  UNL1        0.1500
      9  N         24.3110  -23.0100   -9.5740 N.2     1  UNL1       -0.1830
     10  N         24.2330  -23.2820  -10.9140 N.am    1  UNL1       -0.2430
     11  C         25.3700  -23.2510  -11.7220 C.2     1  UNL1        0.2710
     12  O         26.5280  -23.1720  -11.3260 O.2     1  UNL1       -0.2660
     13  H         23.3920  -22.8920  -11.3340 H       1  UNL1        0.1920
     14  C         25.1070  -23.2930  -13.1890 C.2     1  UNL1        0.0330
     15  C         24.5160  -22.1720  -13.7960 C.2     1  UNL1        0.0190
     16  C         24.2570  -22.1630  -15.1690 C.2     1  UNL1        0.0370
     17  C         24.5980  -23.2800  -15.9430 C.2     1  UNL1        0.1020
     18  C         25.2020  -24.3990  -15.3500 C.2     1  UNL1        0.0370
     19  C         25.4580  -24.4020  -13.9750 C.2     1  UNL1        0.0190
     20  N         24.3260  -23.2780  -17.3870 N.pl3   1  UNL1       -0.1160
     21  O         23.1500  -23.4090  -17.7540 O.2     1  UNL1       -0.5320
     22  O         25.2920  -23.1490  -18.1530 O.2     1  UNL1       -0.5320
     23  O         17.8690  -22.9800  -10.6450 O.2     1  UNL1       -0.3410
     24  C         16.9190  -22.2420   -9.8820 C.3     1  UNL1        0.2780
     25  C         16.4690  -22.9610   -8.6070 C.2     1  UNL1        0.2460
     26  O         15.8730  -24.0330   -8.6690 O.2     1  UNL1       -0.2710
     27  N         16.8370  -22.2790   -7.4610 N.am    1  UNL1       -0.3250
     28  H         17.2810  -21.3790   -7.6190 H       1  UNL1        0.1690
     29  C         16.6360  -22.6580   -6.1220 C.2     1  UNL1        0.0340
     30  C         17.6420  -23.1560   -5.2920 C.2     1  UNL1        0.0290
     31  C         17.3600  -23.5010   -3.9660 C.2     1  UNL1        0.0020
     32  C         16.0720  -23.3480   -3.4590 C.2     1  UNL1        0.0000
     33  C         15.0610  -22.8520   -4.2780 C.2     1  UNL1        0.0020
     34  C         15.3430  -22.5070   -5.6030 C.2     1  UNL1        0.0290
@<TRIPOS>BOND
     1    22    20    2
     2    21    20    2
     3    20    17    1
     4    17    18    2
     5    17    16    1
     6    18    19    1
     7    16    15    2
     8    19    14    2
     9    15    14    1
    10    14    11    1
    11     7     6    1
    12    11    12    2
    13    11    10   am
    14    13    10    1
    15    10     9    1
    16    23     1    1
    17    23    24    1
    18     6     1    2
    19     6     5    1
    20     1     2    1
    21     5     4    2
    22    24    25    1
    23     9     8    2
    24     2     3    2
    25     4     3    1
    26     4     8    1
    27    26    25    2
    28    25    27   am
    29    28    27    1
    30    27    29    1
    31    29    34    2
    32    29    30    1
    33    34    33    1
    34    30    31    2
    35    33    32    2
    36    31    32    1
