@<TRIPOS>MOLECULE
76716_out_ligand_01.pdbqt
 30 31 0 0 0
SMALL
GASTEIGER

@<TRIPOS>ATOM
      1  C         23.3970  -21.6280  -14.2230 C.2     1  UNL1        0.0400
      2  C         24.7210  -21.4800  -14.4390 C.2     1  UNL1        0.1130
      3  C         25.2110  -21.4310  -15.7760 C.1     1  UNL1        0.1050
      4  N         25.5400  -21.3500  -16.8860 N.1     1  UNL1       -0.1910
      5  C         25.7430  -21.4200  -13.3520 C.2     1  UNL1        0.2690
      6  O         26.3090  -22.4460  -12.9890 O.2     1  UNL1       -0.2660
      7  N         26.1040  -20.1480  -12.9680 N.am    1  UNL1       -0.2790
      8  C         26.2790  -19.8610  -11.6440 C.2     1  UNL1        0.2980
      9  H         25.6830  -19.3730  -13.4560 H       1  UNL1        0.1730
     10  N         26.5990  -18.5480  -11.4440 N.am    1  UNL1       -0.2540
     11  O         26.1250  -20.6120  -10.6950 O.2     1  UNL1       -0.2540
     12  H         26.7900  -18.3600  -10.4650 H       1  UNL1        0.1280
     13  H         27.3070  -18.1670  -12.0580 H       1  UNL1        0.1280
     14  C         22.7160  -21.7660  -12.9310 C.2     1  UNL1       -0.0320
     15  C         21.4150  -21.2660  -12.7960 C.2     1  UNL1        0.0330
     16  C         20.7380  -21.3780  -11.5770 C.2     1  UNL1        0.0460
     17  C         21.3420  -22.0190  -10.4880 C.2     1  UNL1        0.1030
     18 BR         18.9990  -20.6260  -11.4560 Br      1  UNL1       -0.0480
     19  C         22.6500  -22.5050  -10.6180 C.2     1  UNL1        0.0460
     20  C         23.3250  -22.3960  -11.8390 C.2     1  UNL1        0.0330
     21 BR         23.5680  -23.3060   -9.1630 Br      1  UNL1       -0.0480
     22  O         20.6850  -22.0920   -9.2870 O.2     1  UNL1       -0.3440
     23  C         19.8670  -23.2700   -9.2160 C.3     1  UNL1        0.2140
     24  C         19.1360  -23.2750   -7.8960 C.2     1  UNL1       -0.0340
     25  C         18.2680  -24.3260   -7.5690 C.2     1  UNL1        0.0090
     26  C         17.5790  -24.3230   -6.3570 C.2     1  UNL1        0.0010
     27  C         17.7490  -23.2700   -5.4590 C.2     1  UNL1        0.0070
     28  C         18.6120  -22.2130   -5.7620 C.2     1  UNL1       -0.0610
     29  C         18.7600  -21.0610   -4.8130 C.3     1  UNL1        0.0480
     30  C         19.2950  -22.2170   -6.9870 C.2     1  UNL1        0.0160
@<TRIPOS>BOND
     1     4     3    3
     2     3     2    1
     3     2     1    2
     4     2     5    1
     5     1    14    1
     6     9     7    1
     7     5     6    2
     8     5     7   am
     9     7     8   am
    10    14    15    2
    11    14    20    1
    12    15    16    1
    13    13    10    1
    14    20    19    2
    15     8    10   am
    16     8    11    2
    17    16    18    1
    18    16    17    2
    19    10    12    1
    20    19    17    1
    21    19    21    1
    22    17    22    1
    23    22    23    1
    24    23    24    1
    25    24    25    2
    26    24    30    1
    27    25    26    1
    28    30    28    2
    29    26    27    2
    30    28    27    1
    31    28    29    1
