@<TRIPOS>MOLECULE
76734_out_ligand_01.pdbqt
 34 36 0 0 0
SMALL
GASTEIGER

@<TRIPOS>ATOM
      1  C         16.6820  -23.7190   -7.5460 C.2     1  UNL1        0.0420
      2  C         16.5100  -23.5590   -6.2190 C.2     1  UNL1        0.1130
      3  C         15.2120  -23.7530   -5.6620 C.1     1  UNL1        0.1050
      4  N         14.1410  -23.9600   -5.2640 N.1     1  UNL1       -0.1910
      5  C         17.5860  -23.1630   -5.2610 C.2     1  UNL1        0.2690
      6  O         18.0250  -23.9940   -4.4740 O.2     1  UNL1       -0.2660
      7  N         18.1220  -21.9130   -5.4800 N.am    1  UNL1       -0.2790
      8  C         18.6600  -21.1650   -4.4690 C.2     1  UNL1        0.2980
      9  H         17.6990  -21.3390   -6.1920 H       1  UNL1        0.1730
     10  N         19.0650  -19.9350   -4.9120 N.am    1  UNL1       -0.2540
     11  O         18.8120  -21.4750   -3.2980 O.2     1  UNL1       -0.2540
     12  H         19.6090  -19.9480   -5.7620 H       1  UNL1        0.1280
     13  H         19.5330  -19.4250   -4.1690 H       1  UNL1        0.1280
     14  C         17.8630  -23.5200   -8.3190 C.2     1  UNL1       -0.0060
     15  C         19.0480  -24.1590   -8.0400 C.2     1  UNL1        0.1040
     16  N         19.9690  -23.7710   -8.9810 N.pl3   1  UNL1       -0.3460
     17  C         19.4010  -22.8740   -9.8630 C.2     1  UNL1        0.0450
     18  C         19.9410  -22.1990  -10.9720 C.2     1  UNL1        0.0300
     19  C         18.0610  -22.7210   -9.4840 C.2     1  UNL1        0.0020
     20  C         19.1020  -21.3610  -11.7090 C.2     1  UNL1        0.0020
     21  C         17.7660  -21.2040  -11.3630 C.2     1  UNL1        0.0010
     22  C         17.2330  -21.8810  -10.2610 C.2     1  UNL1        0.0140
     23  C         21.3320  -24.2800   -9.0370 C.3     1  UNL1        0.2310
     24  C         22.3470  -23.1920   -9.3470 C.2     1  UNL1        0.2400
     25  N         22.9740  -23.3400  -10.5740 N.am    1  UNL1       -0.3260
     26  H         22.7600  -24.1780  -11.1060 H       1  UNL1        0.1690
     27  O         22.5110  -22.2690   -8.5530 O.2     1  UNL1       -0.2710
     28  C         23.9490  -22.5000  -11.1480 C.2     1  UNL1        0.0340
     29  C         25.0790  -22.0330  -10.4770 C.2     1  UNL1        0.0300
     30  C         26.0000  -21.2040  -11.1270 C.2     1  UNL1        0.0090
     31  C         25.8020  -20.8210  -12.4580 C.2     1  UNL1       -0.0620
     32  C         26.7970  -19.9480  -13.1650 C.3     1  UNL1        0.0480
     33  C         24.6740  -21.2930  -13.1330 C.2     1  UNL1        0.0090
     34  C         23.7530  -22.1210  -12.4830 C.2     1  UNL1        0.0300
@<TRIPOS>BOND
     1    32    31    1
     2    33    34    1
     3    33    31    2
     4    34    28    2
     5    31    30    1
     6    20    21    2
     7    20    18    1
     8    21    22    1
     9    28    25    1
    10    28    29    1
    11    30    29    2
    12    26    25    1
    13    18    17    2
    14    25    24   am
    15    22    19    2
    16    17    19    1
    17    17    16    1
    18    19    14    1
    19    24    23    1
    20    24    27    2
    21    23    16    1
    22    16    15    1
    23    14    15    2
    24    14     1    1
    25     1     2    2
    26     2     3    1
    27     2     5    1
    28     9     7    1
    29    12    10    1
    30     3     4    3
    31     7     5   am
    32     7     8   am
    33     5     6    2
    34    10     8   am
    35    10    13    1
    36     8    11    2
