@<TRIPOS>MOLECULE
76736_out_ligand_01.pdbqt
 34 38 0 0 0
SMALL
GASTEIGER

@<TRIPOS>ATOM
      1  C         20.7160  -22.4280   -7.6270 C.2     1  UNL1        0.0320
      2  C         20.7820  -23.6600   -8.2860 C.2     1  UNL1        0.0170
      3  C         21.9030  -23.9790   -9.0580 C.2     1  UNL1        0.0100
      4  C         22.9850  -23.0900   -9.1580 C.2     1  UNL1       -0.0300
      5  C         22.9060  -21.8540   -8.5000 C.2     1  UNL1        0.0100
      6  C         21.7830  -21.5300   -7.7330 C.2     1  UNL1        0.0170
      7  C         19.5550  -22.0610   -6.7630 C.2     1  UNL1        0.2560
      8  O         19.6240  -21.0390   -6.0940 O.2     1  UNL1       -0.2670
      9  N         18.4820  -22.9230   -6.8340 N.am    1  UNL1       -0.3220
     10  H         18.4840  -23.6200   -7.5720 H       1  UNL1        0.1690
     11  C         17.3000  -22.9150   -6.0550 C.2     1  UNL1        0.0520
     12  C         17.1900  -22.2150   -4.8510 C.2     1  UNL1        0.0310
     13  C         16.0080  -22.2680   -4.1040 C.2     1  UNL1        0.0020
     14  C         14.9250  -23.0190   -4.5520 C.2     1  UNL1        0.0020
     15  C         15.0180  -23.7230   -5.7510 C.2     1  UNL1        0.0210
     16  C         16.2010  -23.6830   -6.5030 C.2     1  UNL1        0.0320
     17  S         16.2760  -24.6010   -8.0480 S.3     1  UNL1       -0.0880
     18  C         16.7090  -23.3100   -9.2050 C.2     1  UNL1        0.0050
     19  C         15.8510  -22.2310   -9.4480 C.2     1  UNL1        0.0190
     20  C         16.2030  -21.2420  -10.3680 C.2     1  UNL1        0.0010
     21  C         17.4120  -21.3290  -11.0560 C.2     1  UNL1        0.0000
     22  C         18.2710  -22.4060  -10.8260 C.2     1  UNL1        0.0010
     23  C         17.9180  -23.3950   -9.9070 C.2     1  UNL1        0.0190
     24  C         24.2080  -23.4450   -9.9810 C.3     1  UNL1        0.3110
     25  N         24.5990  -22.3920  -10.9330 N.3     1  UNL1        0.0970
     26  C         26.0450  -22.1300  -10.8580 C.3     1  UNL1        0.2770
     27  C         26.4110  -20.8860  -11.6820 C.3     1  UNL1        0.0690
     28  C         25.8000  -20.8940  -13.0600 C.2     1  UNL1       -0.0490
     29  C         26.2500  -19.9970  -14.0380 C.2     1  UNL1        0.0070
     30  C         24.7340  -21.7670  -13.3490 C.2     1  UNL1       -0.0240
     31  C         25.6640  -19.9790  -15.3030 C.2     1  UNL1        0.0010
     32  C         24.6250  -20.8600  -15.6040 C.2     1  UNL1        0.0010
     33  C         24.1650  -21.7520  -14.6310 C.2     1  UNL1        0.0090
     34  C         24.2400  -22.7590  -12.3170 C.3     1  UNL1        0.3110
@<TRIPOS>BOND
     1    32    31    2
     2    32    33    1
     3    31    29    1
     4    33    30    2
     5    29    28    2
     6    30    28    1
     7    30    34    1
     8    28    27    1
     9    34    25    1
    10    27    26    1
    11    21    22    2
    12    21    20    1
    13    25    26    1
    14    25    24    1
    15    22    23    1
    16    20    19    2
    17    24     4    1
    18    23    18    2
    19    19    18    1
    20    18    17    1
    21     4     3    2
    22     4     5    1
    23     3     2    1
    24     5     6    2
    25     2     1    2
    26    17    16    1
    27     6     1    1
    28     1     7    1
    29    10     9    1
    30     9     7   am
    31     9    11    1
    32     7     8    2
    33    16    11    2
    34    16    15    1
    35    11    12    1
    36    15    14    2
    37    12    13    2
    38    14    13    1
