@<TRIPOS>MOLECULE
76747_out_ligand_01.pdbqt
 38 41 0 0 0
SMALL
GASTEIGER

@<TRIPOS>ATOM
      1  C         21.2100  -23.5740   -8.7790 C.2     1  UNL1        0.0690
      2  C         20.9240  -22.4040   -8.0720 C.2     1  UNL1        0.0380
      3  C         19.8180  -22.3530   -7.2180 C.2     1  UNL1        0.0280
      4  C         19.0040  -23.4810   -7.0660 C.2     1  UNL1        0.0790
      5  C         19.2740  -24.6490   -7.7780 C.2     1  UNL1        0.0280
      6  C         20.3800  -24.6920   -8.6280 C.2     1  UNL1        0.0380
      7  O         22.2390  -23.7530   -9.6640 O.2     1  UNL1       -0.3420
      8  C         23.5330  -23.2820   -9.3050 C.3     1  UNL1        0.2780
      9  C         23.9410  -21.9320   -9.9140 C.2     1  UNL1        0.2460
     10  O         23.3490  -20.9020   -9.6080 O.2     1  UNL1       -0.2710
     11  N         25.0080  -22.0420  -10.7810 N.am    1  UNL1       -0.3240
     12  H         25.3520  -22.9860  -10.9470 H       1  UNL1        0.1690
     13  C         25.6330  -21.0400  -11.5550 C.2     1  UNL1        0.0520
     14  C         26.5420  -20.1210  -11.0250 C.2     1  UNL1        0.0310
     15  C         27.1210  -19.1440  -11.8410 C.2     1  UNL1        0.0020
     16  C         26.7970  -19.0750  -13.1930 C.2     1  UNL1        0.0020
     17  C         25.8920  -19.9850  -13.7360 C.2     1  UNL1        0.0210
     18  C         25.3010  -20.9640  -12.9250 C.2     1  UNL1        0.0320
     19  S         24.1210  -22.1000  -13.6630 S.3     1  UNL1       -0.0880
     20  C         24.5100  -21.9830  -15.4040 C.2     1  UNL1        0.0050
     21  C         24.7240  -20.7640  -16.0550 C.2     1  UNL1        0.0190
     22  C         25.0010  -20.7310  -17.4240 C.2     1  UNL1        0.0010
     23  C         25.0560  -21.9160  -18.1510 C.2     1  UNL1        0.0000
     24  C         24.8310  -23.1350  -17.5140 C.2     1  UNL1        0.0010
     25  C         24.5610  -23.1680  -16.1460 C.2     1  UNL1        0.0190
     26  S         17.5900  -23.4130   -5.9930 S.O2    1  UNL1        0.2580
     27  O         17.4000  -22.0400   -5.5830 O.2     1  UNL1       -0.2010
     28  O         17.7010  -24.4840   -5.0330 O.2     1  UNL1       -0.2010
     29  N         16.3430  -23.7700   -7.0380 N.3     1  UNL1       -0.3150
     30  H         15.8700  -24.6630   -6.9060 H       1  UNL1        0.1720
     31  C         15.8650  -22.7980   -8.0170 C.3     1  UNL1        0.1370
     32  C         16.1170  -23.2920   -9.4470 C.3     1  UNL1        0.0580
     33  C         17.0540  -22.4590  -10.2940 C.2     1  UNL1       -0.0570
     34  C         16.6960  -21.1420  -10.6250 C.2     1  UNL1        0.0070
     35  C         17.5520  -20.3360  -11.3750 C.2     1  UNL1        0.0010
     36  C         18.7840  -20.8290  -11.7980 C.2     1  UNL1        0.0000
     37  C         19.1580  -22.1300  -11.4690 C.2     1  UNL1        0.0010
     38  C         18.3030  -22.9390  -10.7150 C.2     1  UNL1        0.0070
@<TRIPOS>BOND
     1    23    24    2
     2    23    22    1
     3    24    25    1
     4    22    21    2
     5    25    20    2
     6    21    20    1
     7    20    19    1
     8    17    16    2
     9    17    18    1
    10    19    18    1
    11    16    15    1
    12    18    13    2
    13    15    14    2
    14    36    37    2
    15    36    35    1
    16    13    14    1
    17    13    11    1
    18    37    38    1
    19    35    34    2
    20    12    11    1
    21    11     9   am
    22    38    33    2
    23    34    33    1
    24    33    32    1
    25     9    10    2
    26     9     8    1
    27     7     8    1
    28     7     1    1
    29    32    31    1
    30     1     6    2
    31     1     2    1
    32     6     5    1
    33     2     3    2
    34    31    29    1
    35     5     4    2
    36     3     4    1
    37     4    26    1
    38    29    30    1
    39    29    26    1
    40    26    27    2
    41    26    28    2
