@<TRIPOS>MOLECULE
76741_out_ligand_01.pdbqt
 34 36 0 0 0
SMALL
GASTEIGER

@<TRIPOS>ATOM
      1  C         25.0420  -20.0080  -14.7990 C.2     1  UNL1        0.0400
      2  C         25.4870  -20.4430  -15.9960 C.2     1  UNL1        0.1130
      3  C         26.0450  -19.5160  -16.9240 C.1     1  UNL1        0.1050
      4  N         26.4410  -18.6960  -17.6420 N.1     1  UNL1       -0.1910
      5  C         25.4800  -21.8810  -16.3960 C.2     1  UNL1        0.2690
      6  O         26.3620  -22.6270  -15.9930 O.2     1  UNL1       -0.2660
      7  N         24.4890  -22.2070  -17.2970 N.am    1  UNL1       -0.2790
      8  C         23.9660  -23.4660  -17.4020 C.2     1  UNL1        0.2980
      9  H         23.8640  -21.4820  -17.6010 H       1  UNL1        0.1730
     10  N         22.7090  -23.4610  -17.9330 N.am    1  UNL1       -0.2540
     11  O         24.5180  -24.5240  -17.1510 O.2     1  UNL1       -0.2540
     12  H         22.0480  -22.7960  -17.5520 H       1  UNL1        0.1280
     13  H         22.3160  -24.3950  -17.9720 H       1  UNL1        0.1280
     14  C         24.4920  -20.8380  -13.7190 C.2     1  UNL1       -0.0320
     15  C         23.1010  -20.9660  -13.6000 C.2     1  UNL1        0.0510
     16  C         22.5460  -21.7980  -12.6240 C.2     1  UNL1        0.1020
     17  C         23.4050  -22.4820  -11.7540 C.2     1  UNL1        0.1020
     18  C         24.7880  -22.3540  -11.8570 C.2     1  UNL1        0.0400
     19  C         25.3320  -21.5180  -12.8290 C.2     1  UNL1        0.0140
     20  O         21.2100  -22.0100  -12.4300 O.2     1  UNL1       -0.3490
     21  C         20.4440  -20.9610  -11.8400 C.3     1  UNL1        0.1710
     22  C         19.3210  -21.5980  -11.0430 C.3     1  UNL1        0.0340
     23  O         22.8880  -23.3620  -10.8390 O.2     1  UNL1       -0.3440
     24  C         22.9670  -22.8100   -9.5180 C.3     1  UNL1        0.2140
     25  C         21.6820  -23.1080   -8.7860 C.2     1  UNL1       -0.0330
     26  C         20.9860  -24.2950   -9.0420 C.2     1  UNL1        0.0100
     27  C         19.7800  -24.5650   -8.3920 C.2     1  UNL1        0.0130
     28  C         19.2410  -23.6500   -7.4750 C.2     1  UNL1       -0.0260
     29  C         18.0270  -23.9040   -6.8170 C.2     1  UNL1        0.0120
     30  C         19.9370  -22.4510   -7.2050 C.2     1  UNL1       -0.0250
     31  C         17.5040  -22.9850   -5.9070 C.2     1  UNL1        0.0010
     32  C         18.1890  -21.8030   -5.6410 C.2     1  UNL1        0.0010
     33  C         19.3990  -21.5390   -6.2840 C.2     1  UNL1        0.0120
     34  C         21.1500  -22.1950   -7.8660 C.2     1  UNL1        0.0210
@<TRIPOS>BOND
     1    13    10    1
     2    10    12    1
     3    10     8   am
     4     4     3    3
     5     9     7    1
     6     8     7   am
     7     8    11    2
     8     7     5   am
     9     3     2    1
    10     5     2    1
    11     5     6    2
    12     2     1    2
    13     1    14    1
    14    14    15    2
    15    14    19    1
    16    15    16    1
    17    19    18    2
    18    16    20    1
    19    16    17    2
    20    20    21    1
    21    18    17    1
    22    21    22    1
    23    17    23    1
    24    23    24    1
    25    24    25    1
    26    26    25    2
    27    26    27    1
    28    25    34    1
    29    27    28    2
    30    34    30    2
    31    28    30    1
    32    28    29    1
    33    30    33    1
    34    29    31    2
    35    33    32    2
    36    31    32    1
