@<TRIPOS>MOLECULE
76756_out_ligand_01.pdbqt
 29 30 0 0 0
SMALL
GASTEIGER

@<TRIPOS>ATOM
      1  N         24.5430  -20.6720  -14.9430 N.1     1  UNL1       -0.1910
      2  C         23.9940  -21.0530  -13.9940 C.1     1  UNL1        0.1050
      3  C         23.2550  -21.4650  -12.8470 C.2     1  UNL1        0.1130
      4  C         21.9080  -21.5070  -12.8960 C.2     1  UNL1        0.0390
      5  C         24.0470  -21.8780  -11.6520 C.2     1  UNL1        0.2690
      6  O         23.9800  -21.2240  -10.6170 O.2     1  UNL1       -0.2660
      7  N         24.6660  -23.1020  -11.7730 N.am    1  UNL1       -0.2790
      8  C         25.9280  -23.2950  -11.2830 C.2     1  UNL1        0.2980
      9  H         24.5230  -23.6180  -12.6270 H       1  UNL1        0.1730
     10  N         26.3680  -24.5690  -11.4950 N.am    1  UNL1       -0.2540
     11  O         26.6560  -22.4690  -10.7560 O.2     1  UNL1       -0.2540
     12  H         25.7020  -25.3070  -11.3020 H       1  UNL1        0.1280
     13  H         27.2690  -24.7340  -11.0590 H       1  UNL1        0.1280
     14  C         21.0050  -21.9740  -11.8370 C.2     1  UNL1       -0.0330
     15  C         21.4250  -22.8900  -10.8680 C.2     1  UNL1        0.0140
     16  C         20.5550  -23.3010   -9.8500 C.2     1  UNL1        0.0390
     17  C         19.2460  -22.8160   -9.7940 C.2     1  UNL1        0.0860
     18  C         18.8200  -21.9240  -10.7900 C.2     1  UNL1        0.0450
     19 BR         17.0510  -21.2250  -10.8050 Br      1  UNL1       -0.0480
     20  C         19.6890  -21.5070  -11.8060 C.2     1  UNL1        0.0330
     21  O         18.3330  -23.1520   -8.8340 O.2     1  UNL1       -0.3450
     22  C         18.8020  -23.8320   -7.6710 C.3     1  UNL1        0.2140
     23  C         18.6230  -22.9390   -6.4640 C.2     1  UNL1       -0.0310
     24  C         17.8930  -23.3770   -5.3440 C.2     1  UNL1        0.0090
     25  C         17.7540  -22.5610   -4.2180 C.2     1  UNL1        0.0040
     26  C         18.3510  -21.3030   -4.1930 C.2     1  UNL1        0.0420
     27  C         19.0830  -20.8720   -5.2930 C.2     1  UNL1        0.1170
     28  F         19.6620  -19.6650   -5.2680 F       1  UNL1       -0.2060
     29  C         19.2270  -21.6760   -6.4200 C.2     1  UNL1        0.0510
@<TRIPOS>BOND
     1     1     2    3
     2     2     3    1
     3     4     3    2
     4     4    14    1
     5     3     5    1
     6     9     7    1
     7    14    20    2
     8    14    15    1
     9    20    18    1
    10     7     5   am
    11     7     8   am
    12     5     6    2
    13    10    12    1
    14    10     8   am
    15    10    13    1
    16     8    11    2
    17    15    16    2
    18    19    18    1
    19    18    17    2
    20    16    17    1
    21    17    21    1
    22    21    22    1
    23    22    23    1
    24    23    29    2
    25    23    24    1
    26    29    27    1
    27    24    25    2
    28    27    28    1
    29    27    26    2
    30    25    26    1
