@<TRIPOS>MOLECULE
7676_out_ligand_01.pdbqt
 31 34 0 0 0
SMALL
GASTEIGER

@<TRIPOS>ATOM
      1  C         18.8870  -21.7220  -11.4270 C.ar    1  UNL1        0.1970
      2  N         17.9360  -20.8200  -11.4360 N.ar    1  UNL1       -0.1220
      3  N         16.8680  -21.1940  -10.6380 N.ar    1  UNL1       -0.1270
      4  C         17.0760  -22.3700  -10.0780 C.ar    1  UNL1        0.2330
      5  S         18.5680  -23.1040  -10.4750 S.2     1  UNL1       -0.0150
      6  S         15.9950  -23.1810   -8.9440 S.O2    1  UNL1        0.2720
      7  O         15.2450  -24.1610   -9.7050 O.2     1  UNL1       -0.2030
      8  O         15.2920  -22.1430   -8.2150 O.2     1  UNL1       -0.2030
      9  N         16.9030  -24.0700   -7.7930 N.pl3   1  UNL1       -0.1790
     10  H         16.6110  -25.0450   -7.8840 H       1  UNL1        0.1460
     11  C         16.7820  -23.5990   -6.4360 C.2     1  UNL1        0.0340
     12  C         15.7170  -24.0460   -5.6490 C.2     1  UNL1        0.0250
     13  C         15.5330  -23.5240   -4.3720 C.2     1  UNL1        0.0030
     14  C         16.4090  -22.5560   -3.8820 C.2     1  UNL1        0.0120
     15  C         17.4900  -22.1030   -4.6540 C.2     1  UNL1       -0.0240
     16  C         18.3700  -21.1290   -4.1530 C.2     1  UNL1        0.0120
     17  C         17.6970  -22.6340   -5.9490 C.2     1  UNL1       -0.0040
     18  C         19.4550  -20.6850   -4.9080 C.2     1  UNL1        0.0010
     19  C         19.6810  -21.2130   -6.1720 C.2     1  UNL1        0.0010
     20  C         18.8150  -22.1780   -6.6870 C.2     1  UNL1        0.0140
     21  N         20.0980  -21.7460  -12.0630 N.am    1  UNL1       -0.3000
     22  C         21.2820  -21.8180  -11.3670 C.2     1  UNL1        0.2570
     23  O         21.4150  -21.9110  -10.1530 O.2     1  UNL1       -0.2670
     24  H         20.0770  -21.7890  -13.0700 H       1  UNL1        0.1710
     25  C         22.5090  -21.8240  -12.2140 C.2     1  UNL1        0.0320
     26  C         22.4530  -21.1990  -13.4680 C.2     1  UNL1        0.0180
     27  C         23.5790  -21.1800  -14.2960 C.2     1  UNL1        0.0250
     28  C         24.7570  -21.7950  -13.8740 C.2     1  UNL1        0.0340
     29 CL         26.1440  -21.7720  -14.8910 Cl      1  UNL1       -0.0840
     30  C         24.8160  -22.4350  -12.6360 C.2     1  UNL1        0.0250
     31  C         23.6920  -22.4560  -11.8060 C.2     1  UNL1        0.0180
@<TRIPOS>BOND
     1    29    28    1
     2    27    28    2
     3    27    26    1
     4    28    30    1
     5    26    25    2
     6    24    21    1
     7    30    31    2
     8    25    31    1
     9    25    22    1
    10    21     1    1
    11    21    22   am
    12     2     1   ar
    13     2     3   ar
    14     1     5   ar
    15    22    23    2
    16     3     4   ar
    17     5     4   ar
    18     4     6    1
    19     7     6    2
    20     6     8    2
    21     6     9    1
    22    10     9    1
    23     9    11    1
    24    20    19    2
    25    20    17    1
    26    11    17    2
    27    11    12    1
    28    19    18    1
    29    17    15    1
    30    12    13    2
    31    18    16    2
    32    15    16    1
    33    15    14    2
    34    13    14    1
