@<TRIPOS>MOLECULE
76779_out_ligand_01.pdbqt
 33 35 0 0 0
SMALL
GASTEIGER

@<TRIPOS>ATOM
      1  C         21.7210  -23.0990   -8.4210 C.2     1  UNL1       -0.0580
      2  C         21.0990  -22.0900   -7.6710 C.2     1  UNL1        0.0090
      3  C         19.7990  -22.2610   -7.1930 C.2     1  UNL1        0.0260
      4  C         19.1170  -23.4490   -7.4660 C.2     1  UNL1        0.0790
      5  C         19.7260  -24.4700   -8.2010 C.2     1  UNL1        0.0260
      6  C         21.0240  -24.2900   -8.6800 C.2     1  UNL1        0.0090
      7  C         23.1420  -22.9250   -8.9060 C.3     1  UNL1        0.0480
      8  C         23.3740  -21.5370   -9.5050 C.3     1  UNL1        0.1080
      9  C         24.2800  -21.5770  -10.7280 C.2     1  UNL1        0.2220
     10  N         23.8200  -22.4600  -11.6920 N.am    1  UNL1       -0.3270
     11  H         22.9490  -22.9280  -11.4850 H       1  UNL1        0.1690
     12  O         25.3120  -20.9180  -10.7780 O.2     1  UNL1       -0.2730
     13  C         24.3950  -22.7490  -12.9540 C.2     1  UNL1        0.0420
     14  C         25.3750  -23.7330  -13.1280 C.2     1  UNL1        0.0530
     15  C         25.9160  -23.9840  -14.3890 C.2     1  UNL1        0.0360
     16  C         25.4940  -23.2600  -15.4970 C.2     1  UNL1        0.0240
     17 CL         27.1210  -25.1990  -14.5790 Cl      1  UNL1       -0.0840
     18  C         24.5200  -22.2780  -15.3430 C.2     1  UNL1        0.0110
     19  C         23.9620  -22.0090  -14.0800 C.2     1  UNL1       -0.0350
     20  C         22.9120  -20.9310  -13.9870 C.3     1  UNL1        0.0500
     21  S         17.4640  -23.6840   -6.8650 S.O2    1  UNL1        0.2590
     22  O         16.8880  -22.3840   -6.5990 O.2     1  UNL1       -0.2010
     23  O         17.5070  -24.7190   -5.8570 O.2     1  UNL1       -0.2010
     24  N         16.6800  -24.3270   -8.1820 N.3     1  UNL1       -0.3070
     25  H         16.9400  -25.2670   -8.4650 H       1  UNL1        0.1730
     26  C         15.8840  -23.4880   -9.0720 C.3     1  UNL1        0.1220
     27  C         14.9330  -24.3830   -9.8690 C.3     1  UNL1        0.0380
     28  C         16.7970  -22.6460   -9.9450 C.2     1  UNL1       -0.0350
     29  C         16.5040  -21.3110  -10.2600 C.2     1  UNL1        0.0090
     30  C         17.3510  -20.5700  -11.0870 C.2     1  UNL1        0.0010
     31  C         18.4920  -21.1560  -11.6260 C.2     1  UNL1        0.0000
     32  C         18.7850  -22.4870  -11.3440 C.2     1  UNL1        0.0010
     33  C         17.9430  -23.2260  -10.5130 C.2     1  UNL1        0.0090
@<TRIPOS>BOND
     1    16    18    2
     2    16    15    1
     3    18    19    1
     4    17    15    1
     5    15    14    2
     6    19    20    1
     7    19    13    2
     8    14    13    1
     9    13    10    1
    10    10    11    1
    11    10     9   am
    12    31    32    2
    13    31    30    1
    14    32    33    1
    15    30    29    2
    16    12     9    2
    17     9     8    1
    18    33    28    2
    19    29    28    1
    20    28    26    1
    21    27    26    1
    22     8     7    1
    23    26    24    1
    24     7     1    1
    25     6     1    2
    26     6     5    1
    27    25    24    1
    28     1     2    1
    29     5     4    2
    30    24    21    1
    31     2     3    2
    32     4     3    1
    33     4    21    1
    34    21    22    2
    35    21    23    2
