@<TRIPOS>MOLECULE
76784_out_ligand_01.pdbqt
 37 40 0 0 0
SMALL
GASTEIGER

@<TRIPOS>ATOM
      1  C         23.8150  -21.3730  -10.0760 C.2     1  UNL1        0.0420
      2  C         24.6430  -21.7030  -11.0840 C.2     1  UNL1        0.1130
      3  C         25.9320  -21.1200  -11.1950 C.1     1  UNL1        0.1050
      4  N         26.9670  -20.6070  -11.2930 N.1     1  UNL1       -0.1910
      5  C         24.2500  -22.7100  -12.1000 C.2     1  UNL1        0.2620
      6  O         23.4460  -23.5980  -11.8490 O.2     1  UNL1       -0.2670
      7  N         24.8750  -22.5520  -13.3140 N.am    1  UNL1       -0.3480
      8  H         25.5360  -21.8010  -13.4620 H       1  UNL1        0.1630
      9  C         24.5930  -23.4280  -14.4400 C.3     1  UNL1        0.1140
     10  C         25.4910  -24.6670  -14.4040 C.3     1  UNL1        0.0370
     11  C         24.7130  -22.6340  -15.7270 C.2     1  UNL1       -0.0360
     12  C         24.4660  -23.2720  -16.9530 C.2     1  UNL1        0.0090
     13  C         24.5300  -22.5630  -18.1530 C.2     1  UNL1        0.0010
     14  C         24.8350  -21.2050  -18.1450 C.2     1  UNL1        0.0000
     15  C         25.0720  -20.5540  -16.9370 C.2     1  UNL1        0.0010
     16  C         25.0060  -21.2610  -15.7350 C.2     1  UNL1        0.0090
     17  C         22.4900  -21.8560   -9.8730 C.2     1  UNL1       -0.0060
     18  C         22.1330  -22.6690   -8.8230 C.2     1  UNL1        0.1040
     19  N         20.7980  -22.9570   -8.9540 N.pl3   1  UNL1       -0.3460
     20  C         20.2720  -22.3060  -10.0550 C.2     1  UNL1        0.0450
     21  C         18.9660  -22.2730  -10.5690 C.2     1  UNL1        0.0300
     22  C         21.3200  -21.5880  -10.6420 C.2     1  UNL1        0.0020
     23  C         18.7210  -21.4850  -11.6970 C.2     1  UNL1        0.0020
     24  C         19.7430  -20.7550  -12.2930 C.2     1  UNL1        0.0010
     25  C         21.0430  -20.7990  -11.7780 C.2     1  UNL1        0.0140
     26  C         20.0550  -23.8240   -8.0500 C.3     1  UNL1        0.2310
     27  C         19.1040  -23.1210   -7.0910 C.2     1  UNL1        0.2400
     28  N         17.8950  -23.7490   -6.8510 N.am    1  UNL1       -0.3260
     29  H         17.6930  -24.5920   -7.3750 H       1  UNL1        0.1690
     30  O         19.4790  -22.0790   -6.5530 O.2     1  UNL1       -0.2710
     31  C         16.8780  -23.3630   -5.9510 C.2     1  UNL1        0.0350
     32  C         17.0590  -23.7130   -4.6060 C.2     1  UNL1        0.0290
     33  C         16.1160  -23.3540   -3.6440 C.2     1  UNL1        0.0030
     34  C         14.9780  -22.6420   -4.0140 C.2     1  UNL1        0.0070
     35  C         14.7710  -22.2950   -5.3530 C.2     1  UNL1       -0.0600
     36  C         13.5650  -21.4960   -5.7530 C.3     1  UNL1        0.0480
     37  C         15.7330  -22.6520   -6.3130 C.2     1  UNL1        0.0360
@<TRIPOS>BOND
     1    13    14    2
     2    13    12    1
     3    14    15    1
     4    12    11    2
     5    15    16    2
     6    16    11    1
     7    11     9    1
     8     9    10    1
     9     9     7    1
    10     8     7    1
    11     7     5   am
    12    24    25    2
    13    24    23    1
    14     5     6    2
    15     5     2    1
    16    25    22    1
    17    23    21    2
    18     4     3    3
    19     3     2    1
    20     2     1    2
    21    22    20    2
    22    22    17    1
    23    21    20    1
    24     1    17    1
    25    20    19    1
    26    17    18    2
    27    19    18    1
    28    19    26    1
    29    26    27    1
    30    29    28    1
    31    27    28   am
    32    27    30    2
    33    28    31    1
    34    37    31    2
    35    37    35    1
    36    31    32    1
    37    36    35    1
    38    35    34    2
    39    32    33    2
    40    34    33    1
