@<TRIPOS>MOLECULE
7679_out_ligand_01.pdbqt
 35 38 0 0 0
SMALL
GASTEIGER

@<TRIPOS>ATOM
      1  C         20.6970  -22.5420  -10.6700 C.2     1  UNL1        0.0380
      2  C         20.8990  -21.6750  -11.7460 C.2     1  UNL1        0.0250
      3  C         19.8730  -20.8250  -12.1650 C.2     1  UNL1        0.0020
      4  C         18.6400  -20.8400  -11.5130 C.2     1  UNL1        0.0010
      5  C         18.4270  -21.7080  -10.4410 C.2     1  UNL1        0.0190
      6  C         19.4480  -22.5740  -10.0230 C.2     1  UNL1        0.0540
      7  N         21.7500  -23.4500  -10.3140 N.pl3   1  UNL1       -0.1800
      8  H         22.1070  -23.9960  -11.1150 H       1  UNL1        0.1460
      9  S         23.0830  -22.7750   -9.5110 S.O2    1  UNL1        0.2450
     10  O         23.7720  -23.8120   -8.7700 O.2     1  UNL1       -0.2060
     11  O         22.6220  -21.5680   -8.8610 O.2     1  UNL1       -0.2060
     12  C         24.1110  -22.2620  -10.8650 C.2     1  UNL1        0.0750
     13  C         23.9440  -22.8350  -12.1300 C.2     1  UNL1        0.0370
     14  C         24.7560  -22.4270  -13.1980 C.2     1  UNL1       -0.0240
     15  C         24.6040  -22.9790  -14.4770 C.2     1  UNL1        0.0150
     16  C         25.7490  -21.4410  -12.9840 C.2     1  UNL1       -0.0230
     17  C         25.4200  -22.5610  -15.5300 C.2     1  UNL1        0.0370
     18  C         26.3970  -21.5870  -15.3310 C.2     1  UNL1        0.0690
     19  C         26.5600  -21.0320  -14.0590 C.2     1  UNL1        0.0490
     20  C         25.9070  -20.8900  -11.7000 C.2     1  UNL1        0.0140
     21  C         25.0960  -21.2990  -10.6420 C.2     1  UNL1        0.0260
     22  O         27.1200  -21.2700  -16.4480 O.2     1  UNL1       -0.3560
     23  C         26.5680  -20.2880  -17.3180 C.3     1  UNL1        0.2100
     24  C         19.2410  -23.4790   -8.8610 C.2     1  UNL1        0.2540
     25  O         19.9250  -24.4930   -8.7510 O.2     1  UNL1       -0.2680
     26  N         18.2560  -23.1170   -7.9700 N.am    1  UNL1       -0.3490
     27  H         17.5960  -22.3970   -8.2270 H       1  UNL1        0.1630
     28  C         17.9170  -23.9420   -6.8210 C.3     1  UNL1        0.1140
     29  C         16.5540  -24.6130   -7.0120 C.3     1  UNL1        0.0370
     30  C         18.0370  -23.0950   -5.5640 C.2     1  UNL1       -0.0360
     31  C         17.5070  -23.4870   -4.3260 C.2     1  UNL1        0.0090
     32  C         17.6220  -22.6600   -3.2070 C.2     1  UNL1        0.0010
     33  C         18.2580  -21.4260   -3.3110 C.2     1  UNL1        0.0000
     34  C         18.7690  -21.0100   -4.5360 C.2     1  UNL1        0.0010
     35  C         18.6550  -21.8370   -5.6540 C.2     1  UNL1        0.0090
@<TRIPOS>BOND
     1    23    22    1
     2    22    18    1
     3    17    18    2
     4    17    15    1
     5    18    19    1
     6    15    14    2
     7    19    16    2
     8    14    16    1
     9    14    13    1
    10    16    20    1
    11     3     2    1
    12     3     4    2
    13    13    12    2
    14     2     1    2
    15    20    21    2
    16     4     5    1
    17     8     7    1
    18    12    21    1
    19    12     9    1
    20     1     7    1
    21     1     6    1
    22     5     6    2
    23     7     9    1
    24     6    24    1
    25     9    11    2
    26     9    10    2
    27    24    25    2
    28    24    26   am
    29    27    26    1
    30    26    28    1
    31    29    28    1
    32    28    30    1
    33    35    30    2
    34    35    34    1
    35    30    31    1
    36    34    33    2
    37    31    32    2
    38    33    32    1
