@<TRIPOS>MOLECULE
76807_out_ligand_01.pdbqt
 32 36 0 0 0
SMALL
GASTEIGER

@<TRIPOS>ATOM
      1  N         20.4030  -21.7670  -10.6750 N.pl3   1  UNL1       -0.0630
      2  N         19.6390  -21.0990  -11.5930 N.2     1  UNL1       -0.1640
      3  C         18.3830  -21.3740  -11.2480 C.2     1  UNL1        0.1590
      4  C         18.2850  -22.1700  -10.0920 C.2     1  UNL1        0.0760
      5  C         19.6000  -22.3820   -9.7220 C.2     1  UNL1        0.0760
      6  C         21.8460  -21.7600  -10.7570 C.cat   1  UNL1        0.7500
      7  N         22.5480  -21.3570   -9.6740 N.2     1  UNL1       -0.0730
      8  C         23.8910  -21.3910   -9.7620 C.2     1  UNL1        0.1390
      9  C         24.5680  -21.8240  -10.8740 C.2     1  UNL1        0.0530
     10  C         23.7760  -22.2040  -11.9320 C.2     1  UNL1        0.0880
     11  N         22.4280  -22.1690  -11.8980 N.2     1  UNL1       -0.0600
     12  C         24.3750  -22.7360  -13.1540 C.2     1  UNL1        0.0070
     13  C         24.9880  -24.0280  -13.3010 C.2     1  UNL1        0.0290
     14  C         25.4130  -24.2760  -14.5920 C.2     1  UNL1       -0.0200
     15  C         26.0510  -25.5060  -15.1430 C.3     1  UNL1        0.0560
     16  S         25.0880  -22.9540  -15.6250 S.3     1  UNL1       -0.0990
     17  C         24.3870  -22.0340  -14.3550 C.2     1  UNL1       -0.0080
     18  C         23.8850  -20.6570  -14.6640 C.3     1  UNL1        0.0570
     19  C         20.0760  -23.1940   -8.4720 C.3     1  UNL1        0.0390
     20  C         19.5030  -24.5800   -8.2540 C.3     1  UNL1        0.0110
     21  C         20.9450  -24.4200   -8.6290 C.3     1  UNL1        0.0110
     22  C         17.0880  -22.6540   -9.4370 C.2     1  UNL1        0.2550
     23  O         16.3300  -23.4690   -9.9510 O.2     1  UNL1       -0.2680
     24  N         16.9040  -22.1280   -8.1780 N.am    1  UNL1       -0.3520
     25  H         17.5930  -21.4920   -7.7970 H       1  UNL1        0.1630
     26  C         15.7840  -22.5070   -7.3520 C.3     1  UNL1        0.1620
     27  C         16.1290  -22.4850   -5.8910 C.2     1  UNL1       -0.0230
     28  C         17.4500  -22.5960   -5.4410 C.2     1  UNL1        0.0120
     29  C         17.7150  -22.6010   -4.0690 C.2     1  UNL1        0.0200
     30  C         16.6450  -22.4970   -3.1890 C.2     1  UNL1        0.1160
     31  N         15.3590  -22.3940   -3.5860 N.2     1  UNL1       -0.2730
     32  C         15.1320  -22.3850   -4.9230 C.2     1  UNL1        0.1240
@<TRIPOS>BOND
     1    16    14    1
     2    16    17    1
     3    15    14    1
     4    18    17    1
     5    14    13    2
     6    17    12    2
     7    13    12    1
     8    12    10    1
     9    10    11    2
    10    10     9    1
    11    11     6    1
    12     2     3    2
    13     2     1    1
    14     3     4    1
    15     9     8    2
    16     6     1    1
    17     6     7    2
    18     1     5    1
    19     4     5    2
    20     4    22    1
    21    23    22    2
    22     8     7    1
    23     5    19    1
    24    22    24   am
    25    21    19    1
    26    21    20    1
    27    19    20    1
    28    24    25    1
    29    24    26    1
    30    26    27    1
    31    27    28    2
    32    27    32    1
    33    28    29    1
    34    32    31    2
    35    29    30    2
    36    31    30    1
