@<TRIPOS>MOLECULE
76805_out_ligand_01.pdbqt
 31 34 0 0 0
SMALL
GASTEIGER

@<TRIPOS>ATOM
      1  C         21.5080  -24.0540   -9.1460 C.3     1  UNL1        0.0510
      2  C         21.0960  -23.0540  -10.1700 C.ar    1  UNL1       -0.0220
      3  C         21.9190  -22.4130  -11.0890 C.ar    1  UNL1        0.0520
      4  N         21.1160  -21.5790  -11.8350 N.ar    1  UNL1       -0.3540
      5  C         19.8060  -21.6610  -11.4310 C.ar    1  UNL1        0.0430
      6  C         18.6740  -20.9940  -11.9100 C.2     1  UNL1        0.0310
      7  C         17.4500  -21.2740  -11.2940 C.2     1  UNL1        0.0110
      8  C         17.3570  -22.1790  -10.2290 C.2     1  UNL1       -0.0400
      9  C         18.5150  -22.8380   -9.7760 C.2     1  UNL1        0.0230
     10  C         19.7610  -22.5750  -10.3840 C.ar    1  UNL1       -0.0010
     11  H         21.4480  -20.9680  -12.5670 H       1  UNL1        0.1660
     12  C         16.0190  -22.4760   -9.6040 C.3     1  UNL1        0.1610
     13  N         16.1800  -22.8720   -8.2220 N.am    1  UNL1       -0.3570
     14  C         15.9040  -24.1490   -7.7940 C.2     1  UNL1        0.2170
     15  O         15.3940  -25.0130   -8.5000 O.2     1  UNL1       -0.2740
     16  H         16.7470  -22.2740   -7.6370 H       1  UNL1        0.1620
     17  C         16.2770  -24.3760   -6.3420 C.3     1  UNL1        0.1040
     18  C         15.9970  -23.1730   -5.4380 C.3     1  UNL1        0.0310
     19  C         17.1280  -22.7960   -4.4750 C.3     1  UNL1        0.1520
     20  N         18.2050  -22.0590   -5.0940 N.pl3   1  UNL1       -0.2620
     21  C         18.7890  -20.9120   -4.6520 C.2     1  UNL1        0.2290
     22  N         19.7170  -20.5380   -5.5020 N.2     1  UNL1       -0.2340
     23  C         19.6660  -21.5130   -6.4590 C.2     1  UNL1        0.2560
     24  N         18.7480  -22.4620   -6.2560 N.2     1  UNL1       -0.1650
     25  C         23.3620  -22.4950  -11.3200 C.2     1  UNL1        0.0300
     26  C         23.8590  -23.2340  -12.4040 C.2     1  UNL1        0.0170
     27  C         25.2350  -23.3190  -12.6370 C.2     1  UNL1        0.0010
     28  C         26.1310  -22.6660  -11.7920 C.2     1  UNL1        0.0030
     29  C         25.6510  -21.9290  -10.7100 C.2     1  UNL1        0.0430
     30  C         24.2780  -21.8490  -10.4810 C.2     1  UNL1        0.1280
     31  F         23.8540  -21.1200   -9.4370 F       1  UNL1       -0.2050
@<TRIPOS>BOND
     1    27    26    1
     2    27    28    2
     3    11     4    1
     4    26    25    2
     5     6     5    2
     6     6     7    1
     7     4     5   ar
     8     4     3   ar
     9    28    29    1
    10     5    10   ar
    11    25     3    1
    12    25    30    1
    13     7     8    2
    14     3     2   ar
    15    29    30    2
    16    30    31    1
    17    10     2   ar
    18    10     9    2
    19     8     9    1
    20     8    12    1
    21     2     1    1
    22    12    13    1
    23    15    14    2
    24    13    14   am
    25    13    16    1
    26    14    17    1
    27    23    24    2
    28    23    22    1
    29    17    18    1
    30    24    20    1
    31    22    21    2
    32    18    19    1
    33    20    21    1
    34    20    19    1
