@<TRIPOS>MOLECULE
76814_out_ligand_01.pdbqt
 31 34 0 0 0
SMALL
GASTEIGER

@<TRIPOS>ATOM
      1  N         21.9520  -23.0980   -9.0810 N.pl3   1  UNL1       -0.3390
      2  C         23.2620  -23.4800   -8.9940 C.2     1  UNL1        0.2100
      3  N         23.9080  -23.2480  -10.1110 N.2     1  UNL1       -0.2410
      4  C         22.9880  -22.6560  -10.9510 C.2     1  UNL1        0.0960
      5  C         21.7460  -22.5470  -10.3310 C.2     1  UNL1        0.0770
      6  C         20.9760  -23.3130   -8.0250 C.3     1  UNL1        0.1340
      7  C         20.4960  -22.0240   -7.3520 C.3     1  UNL1        0.0580
      8  C         19.0990  -22.1360   -6.7840 C.2     1  UNL1       -0.0570
      9  C         18.0600  -22.6540   -7.5710 C.2     1  UNL1        0.0090
     10  C         16.7780  -22.8030   -7.0420 C.2     1  UNL1        0.0250
     11  C         16.5380  -22.4430   -5.7140 C.2     1  UNL1        0.0740
     12  C         17.5570  -21.9100   -4.9210 C.2     1  UNL1        0.0250
     13  C         18.8370  -21.7600   -5.4580 C.2     1  UNL1        0.0090
     14  S         14.9100  -22.6570   -5.0480 S.O2    1  UNL1        0.2390
     15  O         14.0170  -21.7300   -5.7050 O.2     1  UNL1       -0.2060
     16  O         14.6390  -24.0710   -4.9610 O.2     1  UNL1       -0.2060
     17  N         15.1030  -22.0620   -3.4840 N.3     1  UNL1       -0.2250
     18  H         14.9180  -21.0570   -3.4880 H       1  UNL1        0.1360
     19  H         16.0110  -22.2790   -3.0750 H       1  UNL1        0.1360
     20  C         20.4570  -22.0780  -10.8230 C.2     1  UNL1        0.0110
     21  C         19.3540  -22.9330  -10.8760 C.2     1  UNL1        0.0170
     22  C         18.1330  -22.4570  -11.3470 C.2     1  UNL1        0.0200
     23  C         18.0540  -21.1350  -11.7510 C.2     1  UNL1        0.1160
     24  N         19.0980  -20.2770  -11.7210 N.2     1  UNL1       -0.2720
     25  C         20.2740  -20.7720  -11.2690 C.2     1  UNL1        0.1300
     26  C         23.3390  -22.2670  -12.3090 C.2     1  UNL1       -0.0050
     27  C         22.5980  -21.3210  -13.0300 C.2     1  UNL1        0.0140
     28  C         22.9650  -20.9750  -14.3340 C.2     1  UNL1        0.0010
     29  C         24.0820  -21.5630  -14.9260 C.2     1  UNL1        0.0000
     30  C         24.8370  -22.4920  -14.2130 C.2     1  UNL1        0.0010
     31  C         24.4690  -22.8380  -12.9110 C.2     1  UNL1        0.0140
@<TRIPOS>BOND
     1    29    28    2
     2    29    30    1
     3    28    27    1
     4    30    31    2
     5    27    26    2
     6    31    26    1
     7    26     4    1
     8    23    24    2
     9    23    22    1
    10    24    25    1
    11    22    21    2
    12    25    20    2
    13     4     5    2
    14     4     3    1
    15    21    20    1
    16    20     5    1
    17     5     1    1
    18     3     2    2
    19     1     2    1
    20     1     6    1
    21     6     7    1
    22     9    10    1
    23     9     8    2
    24     7     8    1
    25    10    11    2
    26     8    13    1
    27    11    14    1
    28    11    12    1
    29    15    14    2
    30    13    12    2
    31    14    16    2
    32    14    17    1
    33    18    17    1
    34    17    19    1
