@<TRIPOS>MOLECULE
76811_out_ligand_01.pdbqt
 28 31 0 0 0
SMALL
GASTEIGER

@<TRIPOS>ATOM
      1  C         22.9350  -22.7750  -11.3510 C.ar    1  UNL1        0.1140
      2  N         21.6410  -22.6140  -11.0330 N.ar    1  UNL1       -0.2160
      3  C         20.8830  -21.8410  -11.8310 C.ar    1  UNL1        0.1630
      4  N         21.3340  -21.2140  -12.9300 N.ar    1  UNL1       -0.2310
      5  C         22.6380  -21.3790  -13.2310 C.ar    1  UNL1        0.0740
      6  C         23.4990  -22.1380  -12.4480 C.ar    1  UNL1        0.0100
      7  C         24.9480  -22.2820  -12.8260 C.3     1  UNL1        0.0740
      8  C         25.4060  -21.2200  -13.8320 C.3     1  UNL1        0.2750
      9  N         24.4590  -21.1110  -14.9420 N.3     1  UNL1        0.0890
     10  C         23.1610  -20.6280  -14.4390 C.3     1  UNL1        0.3290
     11  H         24.8060  -20.4440  -15.6300 H       1  UNL1        0.3160
     12  N         23.7530  -23.5770  -10.5300 N.pl3   1  UNL1       -0.2770
     13  H         23.5960  -24.5510  -10.7730 H       1  UNL1        0.1290
     14  C         23.5990  -23.3530   -9.0920 C.3     1  UNL1        0.0940
     15  C         22.1410  -23.5840   -8.6830 C.3     1  UNL1        0.0190
     16  C         21.5020  -22.4030   -7.9420 C.3     1  UNL1        0.0400
     17  C         20.1180  -22.6980   -7.4180 C.2     1  UNL1       -0.0580
     18  C         19.4840  -23.9080   -7.7320 C.2     1  UNL1        0.0070
     19  C         18.2120  -24.1900   -7.2330 C.2     1  UNL1        0.0010
     20  C         17.5620  -23.2670   -6.4170 C.2     1  UNL1        0.0000
     21  C         18.1840  -22.0610   -6.0970 C.2     1  UNL1        0.0010
     22  C         19.4580  -21.7780   -6.5930 C.2     1  UNL1        0.0070
     23  C         19.4680  -21.6720  -11.4760 C.2     1  UNL1        0.0290
     24  C         18.7530  -22.6290  -10.7380 C.2     1  UNL1        0.0180
     25  C         17.4090  -22.4280  -10.4210 C.2     1  UNL1        0.0200
     26  C         16.8010  -21.2630  -10.8520 C.2     1  UNL1        0.1160
     27  N         17.4360  -20.3120  -11.5640 N.2     1  UNL1       -0.2720
     28  C         18.7440  -20.5410  -11.8560 C.2     1  UNL1        0.1310
@<TRIPOS>BOND
     1    11     9    1
     2     9    10    1
     3     9     8    1
     4    10     5    1
     5     8     7    1
     6     5     4   ar
     7     5     6   ar
     8     4     3   ar
     9     7     6    1
    10     6     1   ar
    11    28    27    1
    12    28    23    2
    13     3    23    1
    14     3     2   ar
    15    27    26    2
    16    23    24    1
    17     1     2   ar
    18     1    12    1
    19    26    25    1
    20    13    12    1
    21    24    25    2
    22    12    14    1
    23    14    15    1
    24    15    16    1
    25    16    17    1
    26    18    17    2
    27    18    19    1
    28    17    22    1
    29    19    20    2
    30    22    21    2
    31    20    21    1
