@<TRIPOS>MOLECULE
76820_out_ligand_01.pdbqt
 39 46 0 0 0
SMALL
GASTEIGER

@<TRIPOS>ATOM
      1  C         21.3550  -21.6370  -11.2040 C.2     1  UNL1        0.0760
      2  C         20.3650  -20.7280  -11.6400 C.3     1  UNL1        0.1590
      3  N         19.1350  -21.0470  -11.2440 N.3     1  UNL1       -0.1640
      4  N         19.3150  -22.1410  -10.4390 N.pl3   1  UNL1       -0.0630
      5  C         20.6140  -22.6160  -10.5600 C.2     1  UNL1        0.0760
      6  C         22.8000  -21.5880  -11.3850 C.2     1  UNL1        0.2550
      7  O         23.5800  -21.3110  -10.4790 O.2     1  UNL1       -0.2680
      8  N         23.2320  -21.7990  -12.6830 N.am    1  UNL1       -0.3510
      9  H         22.5340  -21.7760  -13.4120 H       1  UNL1        0.1630
     10  C         24.6100  -21.5240  -13.0630 C.3     1  UNL1        0.0930
     11  C         24.7210  -21.0350  -14.5300 C.3     1  UNL1        0.0120
     12  C         26.1820  -20.6230  -14.8010 C.3     1  UNL1        0.0110
     13  C         24.3380  -22.1690  -15.5010 C.3     1  UNL1        0.0440
     14  C         27.1210  -21.8230  -14.5890 C.3     1  UNL1       -0.0110
     15  C         26.9810  -22.3330  -13.1420 C.3     1  UNL1        0.0110
     16  C         26.7240  -22.9470  -15.5600 C.3     1  UNL1        0.0420
     17  C         25.5240  -22.7570  -12.8640 C.3     1  UNL1        0.0120
     18  C         25.1490  -23.8790  -13.8500 C.3     1  UNL1        0.0440
     19  C         25.2690  -23.3750  -15.2980 C.3     1  UNL1        0.0590
     20  O         24.9000  -24.4240  -16.1790 O.3     1  UNL1       -0.3900
     21  H         25.7150  -24.8370  -16.5150 H       1  UNL1        0.2100
     22  C         21.1710  -23.9790  -10.0500 C.3     1  UNL1        0.0390
     23  C         22.0000  -24.0150   -8.7860 C.3     1  UNL1        0.0110
     24  C         20.6040  -24.5540   -8.7700 C.3     1  UNL1        0.0110
     25  C         18.2550  -22.6180   -9.5860 C.cat   1  UNL1        0.7500
     26  N         17.1980  -23.1960  -10.1700 N.2     1  UNL1       -0.0730
     27  C         16.2260  -23.6030   -9.3460 C.2     1  UNL1        0.1460
     28  C         16.2160  -23.4450   -7.9620 C.2     1  UNL1       -0.0100
     29  C         17.3040  -22.7640   -7.4320 C.2     1  UNL1        0.0940
     30  C         15.0140  -24.0160   -7.2730 C.3     1  UNL1        0.0430
     31  N         18.3320  -22.3930   -8.2550 N.2     1  UNL1       -0.0600
     32  C         17.5160  -22.3110   -6.0080 C.2     1  UNL1        0.0000
     33  C         18.7960  -21.8090   -5.6470 C.2     1  UNL1        0.0140
     34  C         16.5460  -22.2810   -4.9780 C.2     1  UNL1       -0.0460
     35  C         19.1130  -21.3120   -4.3790 C.2     1  UNL1        0.0010
     36  C         18.1420  -21.2870   -3.3990 C.2     1  UNL1        0.0010
     37  C         16.8710  -21.7620   -3.6990 C.2     1  UNL1        0.0080
     38  C         15.1210  -22.7410   -5.1420 C.3     1  UNL1        0.0400
     39  C         15.0420  -24.1190   -5.7640 C.3     1  UNL1        0.0090
@<TRIPOS>BOND
     1    21    20    1
     2    20    19    1
     3    16    19    1
     4    16    14    1
     5    13    19    1
     6    13    11    1
     7    19    18    1
     8    12    14    1
     9    12    11    1
    10    14    15    1
    11    11    10    1
    12    18    17    1
    13     9     8    1
    14    15    17    1
    15    10    17    1
    16    10     8    1
    17     8     6   am
    18     2     3    1
    19     2     1    1
    20     6     1    1
    21     6     7    2
    22     3     4    1
    23     1     5    2
    24     5     4    1
    25     5    22    1
    26     4    25    1
    27    26    25    2
    28    26    27    1
    29    22    23    1
    30    22    24    1
    31    25    31    1
    32    27    28    2
    33    23    24    1
    34    31    29    2
    35    28    29    1
    36    28    30    1
    37    29    32    1
    38    30    39    1
    39    32    33    2
    40    32    34    1
    41    39    38    1
    42    33    35    1
    43    38    34    1
    44    34    37    2
    45    35    36    2
    46    37    36    1
