@<TRIPOS>MOLECULE
76833_out_ligand_01.pdbqt
 27 30 0 0 0
SMALL
GASTEIGER

@<TRIPOS>ATOM
      1  C         22.2300  -22.8350   -8.9900 C.2     1  UNL1        0.0340
      2  C         21.7690  -24.1110   -9.3610 C.2     1  UNL1        0.0200
      3  C         20.5750  -24.6380   -8.8480 C.2     1  UNL1        0.0410
      4  C         19.8880  -23.8120   -7.9670 C.ar    1  UNL1        0.1060
      5  O         18.7160  -24.0800   -7.3260 O.2     1  UNL1       -0.2890
      6  C         18.4680  -22.9440   -6.5930 C.ar    1  UNL1        0.1810
      7  N         19.3840  -21.9990   -6.7260 N.ar    1  UNL1       -0.2210
      8  C         20.2960  -22.5420   -7.5930 C.ar    1  UNL1        0.0940
      9  C         21.4890  -22.0230   -8.1090 C.2     1  UNL1        0.0510
     10  C         23.5160  -22.3570   -9.5670 C.2     1  UNL1        0.2520
     11  N         24.3610  -23.3310  -10.0450 N.am    1  UNL1       -0.3530
     12  H         24.0060  -24.2680  -10.1980 H       1  UNL1        0.1630
     13  O         23.7580  -21.1570   -9.6340 O.2     1  UNL1       -0.2680
     14  C         25.5880  -22.9680  -10.7140 C.3     1  UNL1        0.1640
     15  C         25.3310  -22.9600  -12.1730 C.2     1  UNL1       -0.0040
     16  C         25.5760  -23.9580  -13.0980 C.2     1  UNL1        0.1220
     17  N         25.1860  -23.4640  -14.3070 N.pl3   1  UNL1       -0.2850
     18  C         25.2250  -24.1450  -15.5790 C.3     1  UNL1        0.1790
     19  N         24.7070  -22.2100  -14.2410 N.2     1  UNL1       -0.1850
     20  C         24.7910  -21.9070  -12.9430 C.2     1  UNL1        0.1490
     21  C         17.2520  -22.9360   -5.7860 C.2     1  UNL1        0.0200
     22  C         17.2700  -23.5030   -4.4980 C.2     1  UNL1        0.0160
     23  C         16.1240  -23.5130   -3.6990 C.2     1  UNL1        0.0040
     24  C         14.9410  -22.9580   -4.1840 C.2     1  UNL1        0.0420
     25  C         14.9190  -22.3960   -5.4560 C.2     1  UNL1        0.1170
     26  F         13.7820  -21.8570   -5.9200 F       1  UNL1       -0.2060
     27  C         16.0550  -22.3800   -6.2570 C.2     1  UNL1        0.0580
@<TRIPOS>BOND
     1    18    17    1
     2    17    19    1
     3    17    16    1
     4    19    20    2
     5    16    15    2
     6    20    15    1
     7    15    14    1
     8    14    11    1
     9    12    11    1
    10    11    10   am
    11    13    10    2
    12    10     1    1
    13     2     1    2
    14     2     3    1
    15     1     9    1
    16     3     4    2
    17     9     8    2
    18     4     8   ar
    19     4     5   ar
    20     8     7   ar
    21     5     6   ar
    22     7     6   ar
    23     6    21    1
    24    27    21    2
    25    27    25    1
    26    26    25    1
    27    21    22    1
    28    25    24    2
    29    22    23    2
    30    24    23    1
