@<TRIPOS>MOLECULE
76845_out_ligand_01.pdbqt
 34 37 0 0 0
SMALL
GASTEIGER

@<TRIPOS>ATOM
      1  C         19.9220  -20.6860   -5.8180 C.3     1  UNL1        0.0510
      2  C         19.6800  -21.8810   -6.6750 C.ar    1  UNL1       -0.0220
      3  C         18.5150  -22.6380   -6.7350 C.ar    1  UNL1        0.0500
      4  N         18.7430  -23.6580   -7.6300 N.ar    1  UNL1       -0.3540
      5  C         20.0030  -23.5740   -8.1680 C.ar    1  UNL1        0.0430
      6  C         20.6350  -24.3880   -9.1150 C.2     1  UNL1        0.0310
      7  C         21.9420  -24.0570   -9.4820 C.2     1  UNL1        0.0110
      8  C         22.6020  -22.9530   -8.9280 C.2     1  UNL1       -0.0400
      9  C         21.9400  -22.1560   -7.9770 C.2     1  UNL1        0.0230
     10  C         20.6180  -22.4670   -7.5890 C.ar    1  UNL1       -0.0010
     11  H         18.0620  -24.3620   -7.8810 H       1  UNL1        0.1660
     12  C         24.0060  -22.6220   -9.3620 C.3     1  UNL1        0.1610
     13  N         24.3110  -23.2660  -10.6200 N.am    1  UNL1       -0.3560
     14  C         24.7940  -22.5480  -11.6860 C.2     1  UNL1        0.2230
     15  O         25.0060  -21.3390  -11.6340 O.2     1  UNL1       -0.2730
     16  H         23.9650  -24.2090  -10.7520 H       1  UNL1        0.1620
     17  C         25.0410  -23.3420  -12.9590 C.3     1  UNL1        0.0960
     18  C         26.3220  -24.1880  -12.8740 C.3     1  UNL1        0.0170
     19  C         27.0620  -24.2880  -14.2090 C.3     1  UNL1        0.0210
     20  C         26.0980  -24.3420  -15.3910 C.3     1  UNL1        0.1270
     21  N         25.1960  -23.1890  -15.4240 N.am    1  UNL1       -0.3380
     22  C         24.6650  -22.6690  -16.5810 C.2     1  UNL1        0.2940
     23  C         25.0320  -22.4270  -14.1840 C.3     1  UNL1        0.1410
     24  N         24.7600  -23.4630  -17.6750 N.am    1  UNL1       -0.2540
     25  O         24.1280  -21.5710  -16.6690 O.2     1  UNL1       -0.2540
     26  H         24.5670  -24.4410  -17.5200 H       1  UNL1        0.1280
     27  H         24.2560  -23.0770  -18.4670 H       1  UNL1        0.1280
     28  C         17.2340  -22.4930   -6.0480 C.2     1  UNL1       -0.0090
     29  C         16.0470  -22.3440   -6.7790 C.2     1  UNL1        0.0170
     30  C         14.8250  -22.1970   -6.1180 C.2     1  UNL1        0.0430
     31  C         14.7930  -22.1960   -4.7280 C.2     1  UNL1        0.1160
     32  F         13.6200  -22.0470   -4.0920 F       1  UNL1       -0.2060
     33  C         15.9580  -22.3400   -3.9860 C.2     1  UNL1        0.0430
     34  C         17.1800  -22.4910   -4.6480 C.2     1  UNL1        0.0170
@<TRIPOS>BOND
     1    27    24    1
     2    24    26    1
     3    24    22   am
     4    25    22    2
     5    22    21   am
     6    21    20    1
     7    21    23    1
     8    20    19    1
     9    19    18    1
    10    23    17    1
    11    17    18    1
    12    17    14    1
    13    14    15    2
    14    14    13   am
    15    16    13    1
    16    13    12    1
    17     7     6    1
    18     7     8    2
    19    12     8    1
    20     6     5    2
    21     8     9    1
    22     5     4   ar
    23     5    10   ar
    24     9    10    2
    25    11     4    1
    26     4     3   ar
    27    10     2   ar
    28    29    30    1
    29    29    28    2
    30     3     2   ar
    31     3    28    1
    32     2     1    1
    33    30    31    2
    34    28    34    1
    35    31    32    1
    36    31    33    1
    37    34    33    2
