@<TRIPOS>MOLECULE
76854_out_ligand_01.pdbqt
 30 33 0 0 0
SMALL
GASTEIGER

@<TRIPOS>ATOM
      1  C         19.9030  -21.6170  -10.7490 C.2     1  UNL1       -0.0040
      2  C         19.1160  -21.1260  -11.8050 C.2     1  UNL1        0.0130
      3  C         17.7350  -21.2470  -11.7650 C.2     1  UNL1        0.0200
      4  C         17.1820  -21.8660  -10.6660 C.2     1  UNL1        0.1180
      5  N         17.9060  -22.3710   -9.6460 N.2     1  UNL1       -0.2480
      6  C         19.2540  -22.2750   -9.6910 C.2     1  UNL1        0.1120
      7  C         21.4080  -21.4670  -10.7840 C.3     1  UNL1        0.1360
      8  N         22.0540  -22.7320  -11.1540 N.pl3   1  UNL1       -0.2730
      9  H         21.4380  -23.2640  -11.7690 H       1  UNL1        0.1290
     10  C         23.2190  -22.5620  -11.9040 C.2     1  UNL1        0.1030
     11  N         24.3020  -23.2240  -11.4560 N.2     1  UNL1       -0.2490
     12  C         25.4590  -23.0810  -12.1370 C.2     1  UNL1        0.1190
     13  C         25.5950  -22.3030  -13.2700 C.2     1  UNL1        0.0360
     14  C         24.4650  -21.6250  -13.7220 C.2     1  UNL1        0.0360
     15  C         23.2650  -21.7430  -13.0200 C.2     1  UNL1        0.0610
     16  C         24.4940  -20.7430  -14.9140 C.2     1  UNL1        0.2490
     17  N         25.0300  -19.4930  -14.7650 N.am    1  UNL1       -0.3660
     18  H         25.6190  -19.2420  -13.9850 H       1  UNL1        0.1590
     19  H         25.1380  -18.9590  -15.6200 H       1  UNL1        0.1590
     20  O         24.0870  -21.1260  -16.0040 O.2     1  UNL1       -0.2680
     21  N         20.0040  -22.8520   -8.6500 N.pl3   1  UNL1       -0.2630
     22  C         19.4530  -24.1390   -8.1890 C.3     1  UNL1        0.1020
     23  C         18.1760  -23.9710   -7.3590 C.3     1  UNL1        0.0540
     24  C         18.3390  -22.9360   -6.2760 C.2     1  UNL1       -0.0500
     25  C         17.4610  -22.9210   -5.1820 C.2     1  UNL1        0.0070
     26  C         19.3250  -21.9410   -6.3940 C.2     1  UNL1       -0.0380
     27  C         17.5750  -21.9380   -4.2000 C.2     1  UNL1        0.0010
     28  C         18.5580  -20.9590   -4.3050 C.2     1  UNL1        0.0010
     29  C         19.4300  -20.9610   -5.3950 C.2     1  UNL1        0.0090
     30  C         20.3110  -21.9190   -7.5500 C.3     1  UNL1        0.1360
@<TRIPOS>BOND
     1    20    16    2
     2    19    17    1
     3    16    17   am
     4    16    14    1
     5    17    18    1
     6    14    13    2
     7    14    15    1
     8    13    12    1
     9    15    10    2
    10    12    11    2
    11    10    11    1
    12    10     8    1
    13     2     3    1
    14     2     1    2
    15     9     8    1
    16     3     4    2
    17     8     7    1
    18     7     1    1
    19     1     6    1
    20     4     5    1
    21     6     5    2
    22     6    21    1
    23    21    22    1
    24    21    30    1
    25    22    23    1
    26    30    26    1
    27    23    24    1
    28    26    24    2
    29    26    29    1
    30    24    25    1
    31    29    28    2
    32    25    27    2
    33    28    27    1
