@<TRIPOS>MOLECULE
76862_out_ligand_01.pdbqt
 29 31 0 0 0
SMALL
GASTEIGER

@<TRIPOS>ATOM
      1  C         21.6940  -23.8060   -9.1780 C.3     1  UNL1        0.0520
      2  C         20.9290  -22.8570  -10.0690 C.2     1  UNL1       -0.0190
      3  C         19.5130  -22.8070  -10.0500 C.2     1  UNL1        0.0410
      4  C         18.8460  -21.9350  -10.9220 C.2     1  UNL1        0.0300
      5  C         19.5480  -21.0910  -11.7840 C.2     1  UNL1        0.0030
      6  C         20.9360  -21.1010  -11.7810 C.2     1  UNL1        0.0180
      7  C         21.6250  -21.9740  -10.9290 C.2     1  UNL1        0.0400
      8  N         18.8100  -23.6250   -9.1360 N.am    1  UNL1       -0.3240
      9  C         18.6350  -23.4560   -7.7710 C.2     1  UNL1        0.2540
     10  O         19.0020  -22.4950   -7.1010 O.2     1  UNL1       -0.2700
     11  H         18.4490  -24.5050   -9.4900 H       1  UNL1        0.1690
     12  C         17.8030  -24.5980   -7.1480 C.3     1  UNL1        0.2450
     13  C         16.3810  -24.6180   -7.6940 C.3     1  UNL1        0.2180
     14  O         15.6090  -23.5070   -7.2240 O.2     1  UNL1       -0.3450
     15  C         15.7950  -23.2850   -5.8860 C.2     1  UNL1        0.1020
     16  C         14.8730  -22.4540   -5.2560 C.2     1  UNL1        0.0390
     17  C         16.8520  -23.8360   -5.1580 C.2     1  UNL1        0.1030
     18  C         14.9900  -22.1930   -3.8890 C.2     1  UNL1        0.0030
     19  C         16.0310  -22.7640   -3.1560 C.2     1  UNL1        0.0030
     20  C         16.9630  -23.5870   -3.7910 C.2     1  UNL1        0.0400
     21  O         17.8290  -24.6180   -5.7180 O.2     1  UNL1       -0.3310
     22  C         23.1100  -21.9080  -10.9410 C.2     1  UNL1        0.2520
     23  O         23.7000  -21.2270  -10.1150 O.2     1  UNL1       -0.2680
     24  N         23.7090  -22.6710  -11.9220 N.am    1  UNL1       -0.3490
     25  H         23.1120  -23.3020  -12.4420 H       1  UNL1        0.1630
     26  C         25.1620  -22.8300  -12.0840 C.3     1  UNL1        0.0220
     27  C         25.4050  -23.9300  -13.1350 C.3     1  UNL1        0.0370
     28  C         25.8090  -21.5320  -12.5900 C.3     1  UNL1        0.0370
     29  C         25.8130  -23.2650  -10.7620 C.3     1  UNL1        0.0370
@<TRIPOS>BOND
     1    27    26    1
     2    28    26    1
     3    25    24    1
     4    26    24    1
     5    26    29    1
     6    24    22   am
     7     5     6    2
     8     5     4    1
     9     6     7    1
    10    22     7    1
    11    22    23    2
    12     7     2    2
    13     4     3    2
    14     2     3    1
    15     2     1    1
    16     3     8    1
    17    11     8    1
    18     8     9   am
    19     9    12    1
    20     9    10    2
    21    13    14    1
    22    13    12    1
    23    14    15    1
    24    12    21    1
    25    15    16    2
    26    15    17    1
    27    21    17    1
    28    16    18    1
    29    17    20    2
    30    18    19    2
    31    20    19    1
