@<TRIPOS>MOLECULE
76875_out_ligand_01.pdbqt
 34 38 0 0 0
SMALL
GASTEIGER

@<TRIPOS>ATOM
      1  C         19.0870  -22.8480   -7.1640 C.ar    1  UNL1        0.1610
      2  N         19.0070  -22.5640   -5.8530 N.ar    1  UNL1       -0.2310
      3  C         17.7710  -22.5290   -5.3180 C.ar    1  UNL1        0.0740
      4  C         16.6210  -22.7680   -6.0620 C.ar    1  UNL1        0.0100
      5  C         16.8010  -23.0050   -7.4190 C.ar    1  UNL1        0.1140
      6  N         18.0280  -23.0750   -7.9600 N.ar    1  UNL1       -0.2160
      7  C         15.2640  -22.6980   -5.4150 C.3     1  UNL1        0.0740
      8  C         15.3280  -22.7190   -3.8830 C.3     1  UNL1        0.2750
      9  N         16.3580  -21.8110   -3.3680 N.3     1  UNL1        0.0890
     10  C         17.6800  -22.2730   -3.8270 C.3     1  UNL1        0.3290
     11  H         16.2000  -20.8770   -3.7470 H       1  UNL1        0.3160
     12  N         15.6730  -23.2500   -8.2260 N.pl3   1  UNL1       -0.2710
     13  H         15.0530  -22.4410   -8.1670 H       1  UNL1        0.1290
     14  C         15.9660  -23.4330   -9.6550 C.3     1  UNL1        0.1550
     15  C         16.6210  -22.2570  -10.3310 C.ar    1  UNL1        0.0760
     16  N         15.9390  -21.0990  -10.5060 N.ar    1  UNL1       -0.1770
     17  N         16.8220  -20.2720  -11.1220 N.ar    1  UNL1       -0.2810
     18  C         18.0090  -20.8770  -11.3200 C.ar    1  UNL1        0.0360
     19  H         16.5260  -19.3310  -11.3610 H       1  UNL1        0.1890
     20  C         17.9230  -22.1400  -10.8240 C.ar    1  UNL1       -0.0060
     21  C         19.3070  -20.5120  -11.8980 C.3     1  UNL1        0.0590
     22  C         19.1910  -22.8710  -10.9760 C.3     1  UNL1        0.0430
     23  C         19.9850  -21.9280  -11.9540 C.3     1  UNL1        0.0110
     24  C         20.4320  -22.9190   -7.7740 C.2     1  UNL1        0.0120
     25  C         20.8510  -24.0520   -8.4960 C.2     1  UNL1        0.0160
     26  C         22.1210  -24.1200   -9.0820 C.2     1  UNL1        0.0180
     27  C         23.0140  -23.0530   -8.9510 C.2     1  UNL1        0.0310
     28  C         22.6200  -21.9130   -8.2460 C.2     1  UNL1        0.0180
     29  C         21.3470  -21.8530   -7.6640 C.2     1  UNL1        0.0160
     30  C         24.3500  -23.1680   -9.5930 C.2     1  UNL1        0.2490
     31  N         25.1810  -24.1600   -9.1470 N.am    1  UNL1       -0.3660
     32  H         24.8350  -24.9490   -8.6200 H       1  UNL1        0.1590
     33  H         26.0250  -24.2990   -9.6880 H       1  UNL1        0.1590
     34  O         24.6900  -22.4310  -10.5090 O.2     1  UNL1       -0.2680
@<TRIPOS>BOND
     1    23    21    1
     2    23    22    1
     3    21    18    1
     4    19    17    1
     5    18    17   ar
     6    18    20   ar
     7    17    16   ar
     8    22    20    1
     9    20    15   ar
    10    34    30    2
    11    16    15   ar
    12    15    14    1
    13    33    31    1
    14    14    12    1
    15    30    31   am
    16    30    27    1
    17    31    32    1
    18    26    27    2
    19    26    25    1
    20    27    28    1
    21    25    24    2
    22    28    29    2
    23    12    13    1
    24    12     5    1
    25     6     5   ar
    26     6     1   ar
    27    24    29    1
    28    24     1    1
    29     5     4   ar
    30     1     2   ar
    31     4     7    1
    32     4     3   ar
    33     2     3   ar
    34     7     8    1
    35     3    10    1
    36     8     9    1
    37    10     9    1
    38    11     9    1
