@<TRIPOS>MOLECULE
76899_out_ligand_01.pdbqt
 28 31 0 0 0
SMALL
GASTEIGER

@<TRIPOS>ATOM
      1  C         20.7860  -22.4510  -11.3150 C.3     1  UNL1        0.1270
      2  C         20.3310  -21.3710  -12.3060 C.3     1  UNL1        0.0320
      3  C         18.8600  -21.1840  -11.9700 C.3     1  UNL1        0.0220
      4  C         18.8360  -21.3320  -10.4560 C.3     1  UNL1        0.1270
      5  N         19.8820  -22.3060  -10.1760 N.am    1  UNL1       -0.3370
      6  C         19.8660  -23.2480   -9.1520 C.2     1  UNL1        0.2730
      7  O         20.5370  -24.2800   -9.2110 O.2     1  UNL1       -0.2660
      8  C         19.0250  -23.0120   -7.9270 C.2     1  UNL1        0.1250
      9  C         19.4970  -22.1500   -6.9480 C.2     1  UNL1        0.0380
     10  C         18.6980  -21.9090   -5.8360 C.2     1  UNL1        0.0160
     11  C         17.4460  -22.5270   -5.7300 C.2     1  UNL1       -0.0040
     12  C         16.6130  -22.3030   -4.6170 C.2     1  UNL1        0.0140
     13  C         17.0350  -23.3860   -6.7730 C.2     1  UNL1        0.1060
     14  C         15.3700  -22.9260   -4.5250 C.2     1  UNL1        0.0040
     15  C         14.9550  -23.7740   -5.5430 C.2     1  UNL1        0.0450
     16  C         15.7860  -23.9910   -6.6440 C.2     1  UNL1        0.1450
     17  F         15.3470  -24.8240   -7.6030 F       1  UNL1       -0.2040
     18  N         17.8120  -23.6180   -7.8530 N.2     1  UNL1       -0.2400
     19  C         22.2180  -22.2370  -10.9030 C.2     1  UNL1        0.0060
     20  C         22.7250  -21.4770   -9.8640 C.2     1  UNL1        0.0180
     21  C         24.1460  -21.5190   -9.8040 C.2     1  UNL1        0.0260
     22  C         24.6980  -22.3130  -10.7920 C.2     1  UNL1        0.0720
     23  S         23.4790  -22.9820  -11.7930 S.3     1  UNL1       -0.0870
     24  C         26.1110  -22.5750  -11.0040 C.2     1  UNL1        0.2560
     25  N         26.7180  -23.4440  -10.1390 N.am    1  UNL1       -0.3660
     26  H         27.7160  -23.5670  -10.2200 H       1  UNL1        0.1590
     27  H         26.2320  -23.7970   -9.3270 H       1  UNL1        0.1590
     28  O         26.7820  -22.0600  -11.8960 O.2     1  UNL1       -0.2670
@<TRIPOS>BOND
     1     2     3    1
     2     2     1    1
     3     3     4    1
     4    28    24    2
     5    23    19    1
     6    23    22    1
     7     1    19    1
     8     1     5    1
     9    24    22    1
    10    24    25   am
    11    19    20    2
    12    22    21    2
    13     4     5    1
    14    26    25    1
    15     5     6   am
    16    25    27    1
    17    20    21    1
    18     7     6    2
    19     6     8    1
    20     8    18    2
    21     8     9    1
    22    18    13    1
    23    17    16    1
    24     9    10    2
    25    13    16    1
    26    13    11    2
    27    16    15    2
    28    10    11    1
    29    11    12    1
    30    15    14    1
    31    12    14    2
