@<TRIPOS>MOLECULE
76908_out_ligand_01.pdbqt
 35 40 0 0 0
SMALL
GASTEIGER

@<TRIPOS>ATOM
      1  C         18.5160  -22.1300  -10.0430 C.2     1  UNL1        0.0760
      2  C         18.5210  -21.5060  -11.3090 C.2     1  UNL1        0.1590
      3  N         19.7300  -21.4140  -11.8590 N.2     1  UNL1       -0.1640
      4  N         20.5720  -21.9240  -10.9100 N.pl3   1  UNL1       -0.0630
      5  C         19.8470  -22.4790   -9.8620 C.2     1  UNL1        0.0760
      6  C         22.0030  -21.8130  -11.0530 C.cat   1  UNL1        0.7500
      7  N         22.7240  -21.4670   -9.9620 N.2     1  UNL1       -0.0730
      8  C         24.0560  -21.4280  -10.1030 C.2     1  UNL1        0.1390
      9  C         24.7020  -21.7100  -11.2830 C.2     1  UNL1        0.0530
     10  C         23.9060  -22.0460  -12.3620 C.2     1  UNL1        0.0870
     11  N         22.5580  -22.1090  -12.2490 N.2     1  UNL1       -0.0600
     12  C         24.4540  -22.4070  -13.6900 C.2     1  UNL1       -0.0040
     13  C         25.2650  -23.5560  -13.8860 C.2     1  UNL1        0.0170
     14  C         25.7460  -23.9190  -15.1530 C.2     1  UNL1        0.0400
     15  C         25.4230  -23.1120  -16.2180 C.2     1  UNL1        0.1050
     16  C         24.6540  -21.9870  -16.0550 C.2     1  UNL1        0.1050
     17  O         25.7740  -23.3190  -17.5170 O.2     1  UNL1       -0.3230
     18  C         24.1680  -21.6090  -14.8190 C.2     1  UNL1        0.0530
     19  O         24.4340  -21.3340  -17.2300 O.2     1  UNL1       -0.3230
     20  C         25.1510  -22.1840  -18.1520 C.3     1  UNL1        0.3520
     21  C         20.4170  -23.2910   -8.6590 C.3     1  UNL1        0.0390
     22  C         19.6390  -24.4770   -8.1420 C.3     1  UNL1        0.0110
     23  C         20.9180  -24.6980   -8.8820 C.3     1  UNL1        0.0110
     24  C         17.4050  -22.3450   -9.1230 C.2     1  UNL1        0.2550
     25  O         17.1580  -21.5990   -8.1810 O.2     1  UNL1       -0.2680
     26  N         16.6160  -23.4480   -9.3930 N.am    1  UNL1       -0.3560
     27  H         16.8950  -24.1150  -10.0940 H       1  UNL1        0.1620
     28  C         15.4900  -23.7990   -8.5470 C.3     1  UNL1        0.1270
     29  C         15.8970  -24.6630   -7.3480 C.3     1  UNL1        0.0600
     30  C         15.9850  -23.8650   -6.0750 C.2     1  UNL1       -0.0390
     31  C         14.8730  -23.1940   -5.5590 C.2     1  UNL1        0.0100
     32  C         14.9860  -22.4960   -4.3620 C.2     1  UNL1        0.0200
     33  C         16.2120  -22.4970   -3.7140 C.2     1  UNL1        0.1160
     34  N         17.3060  -23.1300   -4.1840 N.2     1  UNL1       -0.2730
     35  C         17.1720  -23.7940   -5.3530 C.2     1  UNL1        0.1230
@<TRIPOS>BOND
     1    20    17    1
     2    20    19    1
     3    17    15    1
     4    19    16    1
     5    15    16    2
     6    15    14    1
     7    16    18    1
     8    14    13    2
     9    18    12    2
    10    13    12    1
    11    12    10    1
    12    10    11    2
    13    10     9    1
    14    11     6    1
    15     3     2    2
    16     3     4    1
    17     2     1    1
    18     9     8    2
    19     6     4    1
    20     6     7    2
    21     4     5    1
    22     8     7    1
    23    27    26    1
    24     1     5    2
    25     1    24    1
    26     5    21    1
    27    26    24   am
    28    26    28    1
    29    24    25    2
    30    23    21    1
    31    23    22    1
    32    21    22    1
    33    28    29    1
    34    29    30    1
    35    30    31    2
    36    30    35    1
    37    31    32    1
    38    35    34    2
    39    32    33    2
    40    34    33    1
