@<TRIPOS>MOLECULE
76903_out_ligand_01.pdbqt
 35 38 0 0 0
SMALL
GASTEIGER

@<TRIPOS>ATOM
      1  N         21.4240  -22.2630  -11.1830 N.ar    1  UNL1       -0.2740
      2  C         22.3950  -21.9180  -12.1200 C.ar    1  UNL1        0.1530
      3  N         23.5450  -22.4850  -11.7970 N.ar    1  UNL1       -0.1320
      4  N         23.3610  -23.2030  -10.6540 N.ar    1  UNL1       -0.1220
      5  C         22.1100  -23.0630  -10.2820 C.ar    1  UNL1        0.1960
      6  S         21.4770  -23.6470   -8.7740 S.3     1  UNL1       -0.0850
      7  C         21.4920  -22.1200   -7.7870 C.3     1  UNL1        0.1210
      8  C         20.2580  -22.0230   -6.9220 C.2     1  UNL1       -0.0480
      9  C         20.1130  -20.9700   -6.0060 C.2     1  UNL1        0.0080
     10  C         18.9630  -20.8630   -5.2260 C.2     1  UNL1        0.0010
     11  C         17.9430  -21.8060   -5.3510 C.2     1  UNL1        0.0160
     12  C         18.0640  -22.8710   -6.2560 C.2     1  UNL1        0.0480
     13  C         19.2220  -22.9630   -7.0450 C.2     1  UNL1        0.0240
     14  C         16.9470  -23.8740   -6.4130 C.3     1  UNL1        0.4170
     15  F         15.7570  -23.3020   -6.7510 F       1  UNL1       -0.1660
     16  F         17.1960  -24.8070   -7.3750 F       1  UNL1       -0.1660
     17  F         16.7120  -24.5720   -5.2670 F       1  UNL1       -0.1660
     18  C         20.0530  -21.8850  -11.1840 C.2     1  UNL1        0.0450
     19  C         19.6560  -20.6610  -11.7330 C.2     1  UNL1        0.0300
     20  C         18.3120  -20.2900  -11.7080 C.2     1  UNL1        0.0050
     21  C         17.3550  -21.1320  -11.1370 C.2     1  UNL1        0.0370
     22  C         17.7390  -22.3560  -10.5920 C.2     1  UNL1        0.0700
     23  C         19.0870  -22.7300  -10.6180 C.2     1  UNL1        0.0660
     24  O         16.9070  -23.2790  -10.0180 O.2     1  UNL1       -0.3560
     25  C         15.5620  -22.8730   -9.7810 C.3     1  UNL1        0.2100
     26  C         22.1610  -21.1330  -13.3630 C.3     1  UNL1        0.2040
     27  N         23.0050  -21.6550  -14.4120 N.am    1  UNL1       -0.3500
     28  C         24.1350  -20.9840  -14.8040 C.2     1  UNL1        0.2530
     29  O         24.4640  -19.9100  -14.3100 O.2     1  UNL1       -0.2680
     30  H         22.8170  -22.5930  -14.7420 H       1  UNL1        0.1630
     31  C         24.9170  -21.6400  -15.8370 C.2     1  UNL1        0.0560
     32  C         25.6360  -21.1150  -16.9530 C.2     1  UNL1        0.0430
     33  C         26.2040  -22.1890  -17.5960 C.2     1  UNL1        0.1420
     34  O         25.8880  -23.3430  -16.9570 O.2     1  UNL1       -0.3340
     35  C         25.1150  -23.0060  -15.8960 C.2     1  UNL1        0.1580
@<TRIPOS>BOND
     1    33    34    1
     2    33    32    2
     3    34    35    1
     4    32    31    1
     5    35    31    2
     6    31    28    1
     7    28    27   am
     8    28    29    2
     9    30    27    1
    10    27    26    1
    11    26     2    1
    12     2     3   ar
    13     2     1   ar
    14     3     4   ar
    15    19    20    1
    16    19    18    2
    17    20    21    2
    18    18     1    1
    19    18    23    1
    20     1     5   ar
    21    21    22    1
    22     4     5   ar
    23    23    22    2
    24    22    24    1
    25     5     6    1
    26    24    25    1
    27     6     7    1
    28     7     8    1
    29    16    14    1
    30    13     8    2
    31    13    12    1
    32     8     9    1
    33    15    14    1
    34    14    12    1
    35    14    17    1
    36    12    11    2
    37     9    10    2
    38    11    10    1
