@<TRIPOS>MOLECULE
76902_out_ligand_01.pdbqt
 35 38 0 0 0
SMALL
GASTEIGER

@<TRIPOS>ATOM
      1  C         19.9110  -20.5570  -12.1600 C.3     1  UNL1        0.0500
      2  C         18.9130  -21.2160  -11.2420 C.2     1  UNL1       -0.0320
      3  C         17.5480  -20.9140  -11.3890 C.2     1  UNL1        0.0090
      4  C         16.6050  -21.5220  -10.5730 C.2     1  UNL1        0.0020
      5  C         17.0250  -22.4300   -9.6060 C.2     1  UNL1        0.0170
      6  C         18.3990  -22.7400   -9.4420 C.2     1  UNL1        0.0340
      7  C         18.9010  -23.6390   -8.4810 C.3     1  UNL1        0.1180
      8  N         20.2090  -23.9370   -8.3950 N.2     1  UNL1       -0.2190
      9  C         21.0340  -23.3290   -9.2580 C.2     1  UNL1        0.1420
     10  N         20.6560  -22.4210  -10.1790 N.pl3   1  UNL1       -0.2310
     11  C         19.3500  -22.1370  -10.2790 C.2     1  UNL1        0.0780
     12  C         22.5180  -23.6400   -9.1650 C.3     1  UNL1        0.1840
     13  N         23.1970  -23.5780  -10.4860 N.3     1  UNL1       -0.2090
     14  H         22.5070  -23.4950  -11.2400 H       1  UNL1        0.1400
     15  S         24.3860  -22.4040  -10.6510 S.O2    1  UNL1        0.2310
     16  O         23.9110  -21.2730   -9.8850 O.2     1  UNL1       -0.2070
     17  O         25.6410  -23.0410  -10.3080 O.2     1  UNL1       -0.2070
     18  C         24.3540  -21.9740  -12.3280 C.2     1  UNL1        0.1260
     19  C         24.9070  -22.7810  -13.2470 C.2     1  UNL1        0.0240
     20  C         24.9070  -22.4980  -14.6880 C.2     1  UNL1       -0.0360
     21  C         24.8870  -23.5130  -15.6550 C.2     1  UNL1        0.0110
     22  C         24.8620  -23.1970  -17.0160 C.2     1  UNL1        0.0010
     23  C         24.8460  -21.8650  -17.4250 C.2     1  UNL1        0.0000
     24  C         24.8490  -20.8480  -16.4740 C.2     1  UNL1        0.0010
     25  C         24.8730  -21.1630  -15.1130 C.2     1  UNL1        0.0110
     26  N         18.0060  -24.2680   -7.5890 N.3     1  UNL1       -0.2720
     27  H         17.0550  -24.0450   -7.8620 H       1  UNL1        0.1290
     28  C         18.2440  -23.9950   -6.1750 C.3     1  UNL1        0.1350
     29  C         17.0150  -23.3560   -5.5820 C.2     1  UNL1       -0.0060
     30  C         15.8810  -23.1070   -6.3710 C.2     1  UNL1        0.0110
     31  C         14.7400  -22.5260   -5.8080 C.2     1  UNL1        0.0010
     32  C         14.7190  -22.1920   -4.4540 C.2     1  UNL1        0.0030
     33  C         15.8390  -22.4370   -3.6620 C.2     1  UNL1        0.0430
     34  C         16.9720  -23.0160   -4.2270 C.2     1  UNL1        0.1230
     35  F         18.0390  -23.2350   -3.4450 F       1  UNL1       -0.2060
@<TRIPOS>BOND
     1    23    22    2
     2    23    24    1
     3    22    21    1
     4    24    25    2
     5    21    20    2
     6    25    20    1
     7    20    19    1
     8    19    18    2
     9    18    15    1
    10     1     2    1
    11     3     2    2
    12     3     4    1
    13     2    11    1
    14    14    13    1
    15    15    13    1
    16    15    17    2
    17    15    16    2
    18     4     5    2
    19    13    12    1
    20    11    10    1
    21    11     6    2
    22    10     9    1
    23     5     6    1
    24     6     7    1
    25     9    12    1
    26     9     8    2
    27     7     8    1
    28     7    26    1
    29    27    26    1
    30    26    28    1
    31    30    31    1
    32    30    29    2
    33    28    29    1
    34    31    32    2
    35    29    34    1
    36    32    33    1
    37    34    33    2
    38    34    35    1
