@<TRIPOS>MOLECULE
7691_out_ligand_01.pdbqt
 28 30 0 0 0
SMALL
GASTEIGER

@<TRIPOS>ATOM
      1  C         24.0700  -22.4230  -10.2940 C.2     1  UNL1        0.2510
      2  O         24.5430  -21.2920  -10.3510 O.2     1  UNL1       -0.2700
      3  N         23.9540  -23.3260  -11.3380 N.am    1  UNL1       -0.3250
      4  H         23.6260  -24.2490  -11.0670 H       1  UNL1        0.1690
      5  C         23.4800  -22.9640   -8.9770 C.3     1  UNL1        0.2170
      6  C         22.7890  -21.8110   -8.2540 C.3     1  UNL1        0.0500
      7  O         22.4890  -23.9730   -9.1810 O.2     1  UNL1       -0.3370
      8  C         21.1960  -23.5800   -9.3920 C.2     1  UNL1        0.0700
      9  C         20.2770  -24.1050   -8.4850 C.2     1  UNL1        0.0370
     10  C         18.9250  -23.7710   -8.5660 C.2     1  UNL1        0.0100
     11  C         18.4690  -22.8930   -9.5580 C.2     1  UNL1       -0.0520
     12  C         19.3860  -22.3730  -10.4870 C.2     1  UNL1       -0.0490
     13  C         16.9960  -22.5770   -9.6390 C.3     1  UNL1        0.0390
     14  C         20.7490  -22.7100  -10.3880 C.2     1  UNL1        0.0440
     15  C         18.9530  -21.3990  -11.5590 C.3     1  UNL1        0.0390
     16  C         17.4460  -21.4050  -11.8070 C.3     1  UNL1        0.0050
     17  C         16.6890  -21.3450  -10.4870 C.3     1  UNL1        0.0050
     18  C         24.3410  -23.1540  -12.6780 C.2     1  UNL1        0.0340
     19  C         23.7980  -22.0610  -13.3660 C.2     1  UNL1        0.0300
     20  C         24.1310  -21.8170  -14.7030 C.2     1  UNL1        0.0190
     21  C         25.0150  -22.6700  -15.3700 C.2     1  UNL1        0.0320
     22  C         25.5740  -23.7510  -14.6820 C.2     1  UNL1        0.0190
     23  C         25.2360  -23.9940  -13.3450 C.2     1  UNL1        0.0300
     24  C         25.4040  -22.4550  -16.7890 C.2     1  UNL1        0.2490
     25  N         24.5620  -21.7070  -17.5660 N.am    1  UNL1       -0.3660
     26  H         23.5990  -21.5500  -17.3080 H       1  UNL1        0.1590
     27  H         24.7810  -21.6950  -18.5550 H       1  UNL1        0.1590
     28  O         26.4170  -22.9530  -17.2630 O.2     1  UNL1       -0.2680
@<TRIPOS>BOND
     1    27    25    1
     2    25    26    1
     3    25    24   am
     4    28    24    2
     5    24    21    1
     6    21    20    2
     7    21    22    1
     8    20    19    1
     9    22    23    2
    10    19    18    2
    11    23    18    1
    12    18     3    1
    13    16    15    1
    14    16    17    1
    15    15    12    1
    16     3     4    1
    17     3     1   am
    18    12    14    1
    19    12    11    2
    20    17    13    1
    21    14     8    2
    22     2     1    2
    23     1     5    1
    24    13    11    1
    25    11    10    1
    26     8     7    1
    27     8     9    1
    28     7     5    1
    29     5     6    1
    30    10     9    2
