@<TRIPOS>MOLECULE
76913_out_ligand_01.pdbqt
 28 32 0 0 0
SMALL
GASTEIGER

@<TRIPOS>ATOM
      1  C         19.8980  -23.2180   -7.7420 C.2     1  UNL1        0.0100
      2  C         20.3140  -24.2680   -8.5670 C.2     1  UNL1        0.0160
      3  C         21.5640  -24.2200   -9.1880 C.2     1  UNL1        0.0100
      4  C         22.4200  -23.1280   -8.9890 C.2     1  UNL1       -0.0300
      5  C         22.0050  -22.0880   -8.1430 C.2     1  UNL1        0.0100
      6  C         20.7530  -22.1320   -7.5210 C.2     1  UNL1        0.0160
      7  C         18.5560  -23.3020   -7.1020 C.ar    1  UNL1        0.1410
      8  N         17.5860  -24.0120   -7.7870 N.ar    1  UNL1       -0.3070
      9  C         16.3170  -24.1980   -7.3060 C.ar    1  UNL1        0.2550
     10  H         17.7930  -24.4990   -8.6440 H       1  UNL1        0.1700
     11  O         15.4680  -24.8600   -7.8900 O.2     1  UNL1       -0.2680
     12  C         16.0700  -23.5410   -6.0300 C.ar    1  UNL1        0.0350
     13  C         17.0710  -22.8770   -5.4550 C.ar    1  UNL1        0.0480
     14  C         14.8150  -23.5180   -5.2500 C.3     1  UNL1        0.0460
     15  N         18.3340  -22.7410   -5.9510 N.ar    1  UNL1       -0.2340
     16  C         16.6440  -22.2800   -4.1560 C.3     1  UNL1        0.0600
     17  C         15.1160  -22.4250   -4.2160 C.3     1  UNL1        0.0110
     18  C         23.7830  -23.0880   -9.6520 C.3     1  UNL1        0.3110
     19  N         23.8880  -22.0640  -10.7050 N.3     1  UNL1        0.0970
     20  C         25.1900  -21.3400  -10.6860 C.3     1  UNL1        0.2790
     21  C         26.4500  -22.1920  -11.0140 C.3     1  UNL1        0.0890
     22  C         26.1020  -23.1290  -12.1070 C.2     1  UNL1        0.0390
     23  N         26.9330  -23.9330  -12.8190 N.pl3   1  UNL1       -0.2820
     24  C         24.8250  -23.3620  -12.5650 C.2     1  UNL1        0.0130
     25  N         26.2730  -24.6870  -13.7210 N.2     1  UNL1       -0.1860
     26  H         27.9410  -24.0330  -12.7500 H       1  UNL1        0.1890
     27  C         24.9920  -24.3330  -13.5670 C.2     1  UNL1        0.1490
     28  C         23.6220  -22.6540  -12.0460 C.3     1  UNL1        0.3150
@<TRIPOS>BOND
     1    25    27    2
     2    25    23    1
     3    27    24    1
     4    23    26    1
     5    23    22    1
     6    24    22    2
     7    24    28    1
     8    22    21    1
     9    28    19    1
    10    21    20    1
    11    19    20    1
    12    19    18    1
    13    18     4    1
    14     3     4    2
    15     3     2    1
    16     4     5    1
    17    10     8    1
    18     2     1    2
    19     5     6    2
    20    11     9    2
    21     8     9   ar
    22     8     7   ar
    23     1     6    1
    24     1     7    1
    25     9    12   ar
    26     7    15   ar
    27    12    13   ar
    28    12    14    1
    29    15    13   ar
    30    13    16    1
    31    14    17    1
    32    17    16    1
