@<TRIPOS>MOLECULE
76936_out_ligand_01.pdbqt
 34 38 0 0 0
SMALL
GASTEIGER

@<TRIPOS>ATOM
      1  N         19.0940  -22.1270  -10.1560 N.pl3   1  UNL1       -0.0630
      2  N         19.1100  -21.3520  -11.2840 N.2     1  UNL1       -0.1640
      3  C         20.3990  -21.0900  -11.4910 C.2     1  UNL1        0.1590
      4  C         21.2590  -21.7380  -10.5810 C.2     1  UNL1        0.0760
      5  C         20.3920  -22.4650   -9.7820 C.2     1  UNL1        0.0760
      6  C         17.8550  -22.4530   -9.4880 C.cat   1  UNL1        0.7500
      7  N         16.7710  -22.7200  -10.2510 N.2     1  UNL1       -0.0730
      8  C         15.6070  -22.9240   -9.6100 C.2     1  UNL1        0.1390
      9  C         15.4750  -22.8740   -8.2450 C.2     1  UNL1        0.0530
     10  C         16.6310  -22.6190   -7.5370 C.2     1  UNL1        0.0900
     11  N         17.8240  -22.4150   -8.1390 N.2     1  UNL1       -0.0600
     12  C         16.6470  -22.5570   -6.0720 C.2     1  UNL1        0.0270
     13  C         15.5030  -22.9390   -5.3420 C.2     1  UNL1        0.0160
     14  C         15.4810  -22.8790   -3.9470 C.2     1  UNL1        0.0010
     15  C         16.6070  -22.4280   -3.2540 C.2     1  UNL1        0.0030
     16  C         17.7550  -22.0500   -3.9540 C.2     1  UNL1        0.0370
     17  C         17.7770  -22.1350   -5.3500 C.2     1  UNL1        0.0800
     18  O         18.9250  -21.7460   -6.0020 O.2     1  UNL1       -0.3550
     19  C         19.4700  -20.5810   -5.3750 C.3     1  UNL1        0.2100
     20  C         20.8090  -23.4360   -8.6310 C.3     1  UNL1        0.0390
     21  C         21.9650  -24.3880   -8.8240 C.3     1  UNL1        0.0110
     22  C         20.5650  -24.9180   -8.8170 C.3     1  UNL1        0.0110
     23  C         22.7060  -21.6460  -10.4710 C.2     1  UNL1        0.2550
     24  O         23.2690  -21.0350   -9.5670 O.2     1  UNL1       -0.2680
     25  N         23.4020  -22.2730  -11.4810 N.am    1  UNL1       -0.3560
     26  H         22.9000  -22.7300  -12.2320 H       1  UNL1        0.1620
     27  C         24.8460  -22.1750  -11.5920 C.3     1  UNL1        0.1270
     28  C         25.2940  -21.3940  -12.8340 C.3     1  UNL1        0.0600
     29  C         25.0860  -22.1770  -14.1020 C.2     1  UNL1       -0.0390
     30  C         25.5570  -23.4880  -14.2360 C.2     1  UNL1        0.0100
     31  C         25.3020  -24.1960  -15.4070 C.2     1  UNL1        0.0200
     32  C         24.5750  -23.5680  -16.4070 C.2     1  UNL1        0.1160
     33  N         24.1050  -22.3050  -16.3140 N.2     1  UNL1       -0.2730
     34  C         24.3760  -21.6370  -15.1710 C.2     1  UNL1        0.1230
@<TRIPOS>BOND
     1    32    33    2
     2    32    31    1
     3    33    34    1
     4    31    30    2
     5    34    29    2
     6    30    29    1
     7    29    28    1
     8    28    27    1
     9    26    25    1
    10    27    25    1
    11     3     2    2
    12     3     4    1
    13    25    23   am
    14     2     1    1
    15     4    23    1
    16     4     5    2
    17    23    24    2
    18     7     8    1
    19     7     6    2
    20     1     5    1
    21     1     6    1
    22     5    20    1
    23     8     9    2
    24     6    11    1
    25    21    22    1
    26    21    20    1
    27    22    20    1
    28     9    10    1
    29    11    10    2
    30    10    12    1
    31    12    17    2
    32    12    13    1
    33    18    19    1
    34    18    17    1
    35    17    16    1
    36    13    14    2
    37    16    15    2
    38    14    15    1
