@<TRIPOS>MOLECULE
76940_out_ligand_01.pdbqt
 33 37 0 0 0
SMALL
GASTEIGER

@<TRIPOS>ATOM
      1  C         22.3700  -23.0180   -9.7570 C.2     1  UNL1        0.0760
      2  C         22.1150  -24.1920   -9.0130 C.2     1  UNL1        0.1590
      3  N         20.8210  -24.4140   -8.8010 N.2     1  UNL1       -0.1640
      4  N         20.1920  -23.3360   -9.3710 N.pl3   1  UNL1       -0.0630
      5  C         21.1050  -22.5410  -10.0610 C.2     1  UNL1        0.0760
      6  C         18.7780  -23.1140   -9.1810 C.cat   1  UNL1        0.7500
      7  N         18.0080  -22.9460  -10.2780 N.2     1  UNL1       -0.0730
      8  C         16.6950  -22.7630  -10.0720 C.2     1  UNL1        0.1390
      9  C         16.1160  -22.7480   -8.8270 C.2     1  UNL1        0.0530
     10  C         16.9610  -22.9350   -7.7510 C.2     1  UNL1        0.0900
     11  N         18.2870  -23.1310   -7.9240 N.2     1  UNL1       -0.0600
     12  C         16.4970  -22.9690   -6.3510 C.2     1  UNL1        0.0320
     13  C         15.3820  -23.7510   -5.9850 C.2     1  UNL1        0.0170
     14  C         14.9170  -23.7950   -4.6640 C.2     1  UNL1        0.0010
     15  C         15.5620  -23.0630   -3.6700 C.2     1  UNL1        0.0030
     16  C         16.6700  -22.2890   -4.0020 C.2     1  UNL1        0.0430
     17  C         17.1240  -22.2450   -5.3240 C.2     1  UNL1        0.1290
     18  F         18.1990  -21.4860   -5.5850 F       1  UNL1       -0.2050
     19  C         20.7870  -21.2860  -10.9400 C.3     1  UNL1        0.0390
     20  C         21.3280  -21.2030  -12.3480 C.3     1  UNL1        0.0110
     21  C         19.8680  -21.4310  -12.1320 C.3     1  UNL1        0.0110
     22  C         23.6630  -22.4700  -10.1290 C.2     1  UNL1        0.2550
     23  O         23.9940  -21.3050   -9.9370 O.2     1  UNL1       -0.2680
     24  N         24.5170  -23.3960  -10.6940 N.am    1  UNL1       -0.3560
     25  H         24.2810  -24.3800  -10.6240 H       1  UNL1        0.1620
     26  C         25.8940  -23.0520  -11.0010 C.3     1  UNL1        0.1290
     27  C         26.2950  -23.4670  -12.4170 C.3     1  UNL1        0.0790
     28  C         25.5790  -22.6360  -13.4430 C.2     1  UNL1        0.0350
     29  C         25.1870  -23.1980  -14.6570 C.2     1  UNL1        0.0270
     30  C         24.5540  -22.3910  -15.5940 C.2     1  UNL1        0.0030
     31  C         24.3280  -21.0510  -15.2970 C.2     1  UNL1        0.0190
     32  C         24.7470  -20.5710  -14.0650 C.2     1  UNL1        0.1170
     33  N         25.3720  -21.3280  -13.1380 N.2     1  UNL1       -0.2660
@<TRIPOS>BOND
     1    30    31    2
     2    30    29    1
     3    31    32    1
     4    29    28    2
     5    32    33    2
     6    28    33    1
     7    28    27    1
     8    27    26    1
     9    20    21    1
    10    20    19    1
    11    21    19    1
    12    26    24    1
    13    19     5    1
    14    24    25    1
    15    24    22   am
    16     7     8    1
    17     7     6    2
    18    22    23    2
    19    22     1    1
    20     8     9    2
    21     5     1    2
    22     5     4    1
    23     1     2    1
    24     4     6    1
    25     4     3    1
    26     6    11    1
    27     2     3    2
    28     9    10    1
    29    11    10    2
    30    10    12    1
    31    12    13    2
    32    12    17    1
    33    13    14    1
    34    18    17    1
    35    17    16    2
    36    14    15    2
    37    16    15    1
