@<TRIPOS>MOLECULE
76941_out_ligand_01.pdbqt
 35 39 0 0 0
SMALL
GASTEIGER

@<TRIPOS>ATOM
      1  N         20.2900  -21.9270  -10.7530 N.pl3   1  UNL1       -0.0630
      2  N         19.4980  -21.3510  -11.7120 N.2     1  UNL1       -0.1640
      3  C         18.2510  -21.5750  -11.3000 C.2     1  UNL1        0.1590
      4  C         18.1910  -22.3260  -10.1130 C.2     1  UNL1        0.0760
      5  C         19.5130  -22.5620   -9.7880 C.2     1  UNL1        0.0760
      6  C         21.7280  -21.8450  -10.8250 C.cat   1  UNL1        0.7500
      7  N         22.4100  -21.5360   -9.6980 N.2     1  UNL1       -0.0730
      8  C         23.7490  -21.4850   -9.7910 C.2     1  UNL1        0.1390
      9  C         24.4370  -21.7180  -10.9550 C.2     1  UNL1        0.0530
     10  C         23.6700  -22.0160  -12.0620 C.2     1  UNL1        0.0900
     11  N         22.3250  -22.0750  -12.0100 N.2     1  UNL1       -0.0600
     12  C         24.2640  -22.2360  -13.3860 C.2     1  UNL1        0.0290
     13  C         25.1110  -23.3250  -13.6550 C.2     1  UNL1        0.0810
     14  C         25.6250  -23.5370  -14.9360 C.2     1  UNL1        0.0400
     15  C         25.3290  -22.6380  -15.9570 C.2     1  UNL1        0.0390
     16  C         24.5020  -21.5410  -15.7180 C.2     1  UNL1        0.0690
     17  C         23.9740  -21.3440  -14.4390 C.2     1  UNL1        0.0530
     18  O         25.3990  -24.2430  -12.6760 O.2     1  UNL1       -0.3550
     19  C         26.7820  -24.1930  -12.3320 C.3     1  UNL1        0.2100
     20  O         24.2850  -20.7440  -16.8050 O.2     1  UNL1       -0.3560
     21  C         25.1570  -20.9120  -17.9180 C.3     1  UNL1        0.2100
     22  C         20.0290  -23.3290   -8.5320 C.3     1  UNL1        0.0390
     23  C         20.6340  -24.6970   -8.7270 C.3     1  UNL1        0.0110
     24  C         19.3300  -24.5570   -8.0100 C.3     1  UNL1        0.0110
     25  C         17.0030  -22.7470   -9.4100 C.2     1  UNL1        0.2550
     26  O         16.2240  -23.5800   -9.8600 O.2     1  UNL1       -0.2680
     27  N         16.8700  -22.1310   -8.1900 N.am    1  UNL1       -0.3520
     28  H         17.5900  -21.4850   -7.8880 H       1  UNL1        0.1630
     29  C         15.8020  -22.4450   -7.2770 C.3     1  UNL1        0.1620
     30  C         16.2810  -22.3660   -5.8600 C.2     1  UNL1       -0.0230
     31  C         17.6430  -22.2850   -5.5470 C.2     1  UNL1        0.0120
     32  C         18.0450  -22.2470   -4.2150 C.2     1  UNL1        0.0200
     33  C         17.0650  -22.2980   -3.2320 C.2     1  UNL1        0.1160
     34  N         15.7410  -22.3850   -3.4940 N.2     1  UNL1       -0.2730
     35  C         15.3790  -22.4220   -4.7980 C.2     1  UNL1        0.1240
@<TRIPOS>BOND
     1    21    20    1
     2    20    16    1
     3    15    16    2
     4    15    14    1
     5    16    17    1
     6    14    13    2
     7    17    12    2
     8    13    12    1
     9    13    18    1
    10    12    10    1
    11    18    19    1
    12    10    11    2
    13    10     9    1
    14    11     6    1
    15     2     3    2
    16     2     1    1
    17     3     4    1
    18     9     8    2
    19     6     1    1
    20     6     7    2
    21     1     5    1
    22     4     5    2
    23     4    25    1
    24    26    25    2
    25     8     7    1
    26     5    22    1
    27    25    27   am
    28    23    22    1
    29    23    24    1
    30    22    24    1
    31    27    28    1
    32    27    29    1
    33    29    30    1
    34    30    31    2
    35    30    35    1
    36    31    32    1
    37    35    34    2
    38    32    33    2
    39    34    33    1
