@<TRIPOS>MOLECULE
7694_out_ligand_01.pdbqt
 34 37 0 0 0
SMALL
GASTEIGER

@<TRIPOS>ATOM
      1  C         22.1150  -21.5950  -12.7240 C.2     1  UNL1       -0.0390
      2  C         22.2380  -22.4690  -11.6340 C.2     1  UNL1        0.0100
      3  C         21.1710  -22.6620  -10.7520 C.2     1  UNL1        0.0170
      4  C         19.9670  -21.9780  -10.9510 C.2     1  UNL1        0.0320
      5  C         19.8320  -21.1150  -12.0440 C.2     1  UNL1        0.0170
      6  C         20.9020  -20.9170  -12.9180 C.2     1  UNL1        0.0100
      7  C         23.2670  -21.4040  -13.6860 C.3     1  UNL1        0.1800
      8  N         24.5810  -21.8360  -13.1580 N.pl3   1  UNL1       -0.2710
      9  C         25.4450  -20.8180  -12.6130 C.2     1  UNL1        0.0570
     10  C         25.7760  -20.8790  -11.2430 C.2     1  UNL1       -0.0340
     11  C         26.6220  -19.8970  -10.6970 C.2     1  UNL1        0.0090
     12  C         25.3250  -21.9850  -10.3310 C.3     1  UNL1        0.0500
     13  C         27.1210  -18.8680  -11.4880 C.2     1  UNL1        0.0010
     14  C         26.7890  -18.8060  -12.8380 C.2     1  UNL1        0.0090
     15  C         25.9450  -19.7690  -13.4190 C.2     1  UNL1       -0.0340
     16  C         25.6690  -19.6630  -14.8950 C.3     1  UNL1        0.0500
     17  S         25.3340  -23.1810  -13.8700 S.O2    1  UNL1        0.2290
     18  C         24.6980  -23.1080  -15.5310 C.3     1  UNL1        0.1860
     19  O         26.7630  -22.9350  -13.9350 O.2     1  UNL1       -0.2060
     20  O         24.8190  -24.4060  -13.2950 O.2     1  UNL1       -0.2060
     21  C         18.8010  -22.1610  -10.0500 C.2     1  UNL1        0.2520
     22  O         17.6630  -22.0440  -10.4900 O.2     1  UNL1       -0.2680
     23  N         19.0910  -22.4380   -8.7330 N.am    1  UNL1       -0.3480
     24  H         20.0470  -22.5470   -8.4290 H       1  UNL1        0.1630
     25  C         18.0380  -22.7040   -7.7600 C.3     1  UNL1        0.1180
     26  C         17.7400  -24.2230   -7.7500 C.3     1  UNL1        0.0300
     27  C         17.2930  -24.8140   -6.4110 C.3     1  UNL1        0.0070
     28  C         16.7070  -23.7790   -5.4610 C.3     1  UNL1        0.0390
     29  C         17.6960  -22.6590   -5.2640 C.2     1  UNL1       -0.0500
     30  C         17.9100  -22.1110   -3.9920 C.2     1  UNL1        0.0070
     31  C         18.3630  -22.1340   -6.3880 C.2     1  UNL1       -0.0290
     32  C         18.7850  -21.0390   -3.8290 C.2     1  UNL1        0.0010
     33  C         19.4320  -20.4960   -4.9370 C.2     1  UNL1        0.0010
     34  C         19.2110  -21.0280   -6.2080 C.2     1  UNL1        0.0100
@<TRIPOS>BOND
     1    18    17    1
     2    16    15    1
     3    19    17    2
     4    17    20    2
     5    17     8    1
     6     7     8    1
     7     7     1    1
     8    15    14    1
     9    15     9    2
    10     8     9    1
    11     6     1    2
    12     6     5    1
    13    14    13    2
    14     1     2    1
    15     9    10    1
    16     5     4    2
    17     2     3    2
    18    13    11    1
    19    10    11    2
    20    10    12    1
    21     4     3    1
    22     4    21    1
    23    22    21    2
    24    21    23   am
    25    23    24    1
    26    23    25    1
    27    25    26    1
    28    25    31    1
    29    26    27    1
    30    27    28    1
    31    31    34    1
    32    31    29    2
    33    34    33    2
    34    28    29    1
    35    29    30    1
    36    33    32    1
    37    30    32    2
