@<TRIPOS>MOLECULE
76958_out_ligand_01.pdbqt
 31 34 0 0 0
SMALL
GASTEIGER

@<TRIPOS>ATOM
      1  C         17.2630  -22.5130  -10.0850 C.2     1  UNL1        0.0340
      2  C         16.9260  -21.2850  -10.6800 C.2     1  UNL1        0.0200
      3  C         17.8510  -20.5890  -11.4650 C.2     1  UNL1        0.0410
      4  C         19.0990  -21.1890  -11.5960 C.ar    1  UNL1        0.1060
      5  O         20.1640  -20.7270  -12.3090 O.2     1  UNL1       -0.2890
      6  C         21.1310  -21.6840  -12.1180 C.ar    1  UNL1        0.1810
      7  N         20.7640  -22.6890  -11.3430 N.ar    1  UNL1       -0.2210
      8  C         19.4690  -22.3870  -11.0060 C.ar    1  UNL1        0.0940
      9  C         18.5450  -23.0740  -10.2130 C.2     1  UNL1        0.0510
     10  C         16.2670  -23.2250   -9.2600 C.2     1  UNL1        0.2530
     11  N         16.3560  -23.1260   -7.8690 N.am    1  UNL1       -0.3520
     12  C         15.3340  -23.8050   -7.0890 C.3     1  UNL1        0.1520
     13  O         15.4030  -23.8670   -9.8530 O.2     1  UNL1       -0.2670
     14  C         17.1190  -22.0740   -7.1790 C.3     1  UNL1        0.1280
     15  C         18.4510  -22.5950   -6.6300 C.3     1  UNL1        0.0560
     16  C         19.6450  -21.6930   -6.9580 C.3     1  UNL1        0.1520
     17  O         20.0980  -21.0420   -5.7730 O.3     1  UNL1       -0.3910
     18  H         19.6250  -20.1920   -5.7280 H       1  UNL1        0.2100
     19  C         20.7740  -22.4230   -7.6590 C.2     1  UNL1       -0.0300
     20  C         20.6590  -23.7650   -8.0590 C.2     1  UNL1        0.0100
     21  C         21.7120  -24.4050   -8.7170 C.2     1  UNL1        0.0010
     22  C         22.8900  -23.7140   -8.9870 C.2     1  UNL1        0.0000
     23  C         23.0170  -22.3820   -8.6030 C.2     1  UNL1        0.0010
     24  C         21.9660  -21.7410   -7.9450 C.2     1  UNL1        0.0100
     25  C         22.4030  -21.4730  -12.8030 C.2     1  UNL1        0.0200
     26  C         22.4900  -20.7720  -14.0180 C.2     1  UNL1        0.0160
     27  C         23.7200  -20.5910  -14.6580 C.2     1  UNL1        0.0040
     28  C         24.8800  -21.1130  -14.0890 C.2     1  UNL1        0.0420
     29  C         24.7990  -21.8070  -12.8880 C.2     1  UNL1        0.1170
     30  F         25.9140  -22.3100  -12.3440 F       1  UNL1       -0.2060
     31  C         23.5800  -21.9910  -12.2440 C.2     1  UNL1        0.0580
@<TRIPOS>BOND
     1    27    28    2
     2    27    26    1
     3    28    29    1
     4    26    25    2
     5    29    30    1
     6    29    31    2
     7    25    31    1
     8    25     6    1
     9     5     6   ar
    10     5     4   ar
    11     6     7   ar
    12     4     3    2
    13     4     8   ar
    14     3     2    1
    15     7     8   ar
    16     8     9    2
    17     2     1    2
    18     9     1    1
    19     1    10    1
    20    13    10    2
    21    10    11   am
    22    22    21    2
    23    22    23    1
    24    21    20    1
    25    23    24    2
    26    20    19    2
    27    24    19    1
    28    11    14    1
    29    11    12    1
    30    19    16    1
    31    14    15    1
    32    16    15    1
    33    16    17    1
    34    17    18    1
