@<TRIPOS>MOLECULE
7697_out_ligand_01.pdbqt
 37 40 0 0 0
SMALL
GASTEIGER

@<TRIPOS>ATOM
      1  S         23.4940  -23.2030   -9.4260 S.O2    1  UNL1        0.2720
      2  O         23.6350  -21.7630   -9.3200 O.2     1  UNL1       -0.2030
      3  O         24.4410  -24.0860   -8.7740 O.2     1  UNL1       -0.2030
      4  C         21.9060  -23.5980   -8.7560 C.ar    1  UNL1        0.2330
      5  N         21.2570  -24.7330   -8.9290 N.ar    1  UNL1       -0.1270
      6  N         20.0080  -24.6970   -8.3340 N.ar    1  UNL1       -0.1220
      7  C         19.7840  -23.5470   -7.7460 C.ar    1  UNL1        0.1970
      8  S         21.0480  -22.4080   -7.8770 S.2     1  UNL1       -0.0150
      9  N         18.6960  -23.0990   -7.0480 N.am    1  UNL1       -0.3000
     10  C         17.8060  -23.9570   -6.4500 C.2     1  UNL1        0.2590
     11  O         17.8450  -25.1820   -6.5030 O.2     1  UNL1       -0.2670
     12  H         18.6000  -22.0980   -6.9480 H       1  UNL1        0.1710
     13  C         16.6610  -23.3240   -5.7240 C.2     1  UNL1        0.0540
     14  C         15.6360  -22.7970   -6.5310 C.2     1  UNL1        0.0190
     15  C         14.5220  -22.1750   -5.9640 C.2     1  UNL1        0.0010
     16  C         14.4140  -22.0760   -4.5810 C.2     1  UNL1        0.0020
     17  C         15.4140  -22.6050   -3.7670 C.2     1  UNL1        0.0250
     18  C         16.5350  -23.2330   -4.3300 C.2     1  UNL1        0.0490
     19 CL         17.6860  -23.8880   -3.2160 Cl      1  UNL1       -0.0830
     20  N         23.4710  -23.5610  -11.1010 N.pl3   1  UNL1       -0.1790
     21  H         22.5160  -23.3300  -11.4260 H       1  UNL1        0.1460
     22  C         24.4480  -22.8390  -11.8810 C.2     1  UNL1        0.0380
     23  C         25.7990  -23.1280  -11.6840 C.2     1  UNL1        0.0250
     24  C         26.7790  -22.3980  -12.3620 C.2     1  UNL1        0.0020
     25  C         26.4130  -21.3800  -13.2410 C.2     1  UNL1        0.0010
     26  C         25.0640  -21.0800  -13.4430 C.2     1  UNL1        0.0190
     27  C         24.0770  -21.7970  -12.7530 C.2     1  UNL1        0.0540
     28  C         22.6360  -21.4970  -12.9710 C.2     1  UNL1        0.2530
     29  O         22.2640  -21.1220  -14.0790 O.2     1  UNL1       -0.2680
     30  N         21.7950  -21.7110  -11.8980 N.am    1  UNL1       -0.3520
     31  H         22.1420  -22.3040  -11.1540 H       1  UNL1        0.1630
     32  C         20.3490  -21.5960  -12.0400 C.3     1  UNL1        0.0840
     33  C         19.6380  -22.6220  -11.1530 C.3     1  UNL1        0.0250
     34  C         18.1210  -22.6040  -11.3590 C.3     1  UNL1        0.0020
     35  C         17.5750  -21.2330  -11.7560 C.3     1  UNL1        0.0000
     36  C         18.4300  -20.1030  -11.1990 C.3     1  UNL1        0.0020
     37  C         19.8680  -20.1680  -11.7190 C.3     1  UNL1        0.0250
@<TRIPOS>BOND
     1    29    28    2
     2    26    25    2
     3    26    27    1
     4    25    24    1
     5    28    27    1
     6    28    30   am
     7    27    22    2
     8    24    23    2
     9    32    30    1
    10    32    37    1
    11    32    33    1
    12    30    31    1
    13    22    23    1
    14    22    20    1
    15    35    34    1
    16    35    36    1
    17    37    36    1
    18    21    20    1
    19    34    33    1
    20    20     1    1
    21     1     2    2
    22     1     3    2
    23     1     4    1
    24     5     4   ar
    25     5     6   ar
    26     4     8   ar
    27     6     7   ar
    28     8     7   ar
    29     7     9    1
    30     9    12    1
    31     9    10   am
    32    14    15    1
    33    14    13    2
    34    11    10    2
    35    10    13    1
    36    15    16    2
    37    13    18    1
    38    16    17    1
    39    18    17    2
    40    18    19    1
