@<TRIPOS>MOLECULE
76977_out_ligand_01.pdbqt
 32 35 0 0 0
SMALL
GASTEIGER

@<TRIPOS>ATOM
      1  C         21.9060  -22.6270  -10.8250 C.ar    1  UNL1        0.1480
      2  N         21.4130  -21.9280  -11.8280 N.ar    1  UNL1       -0.1330
      3  N         20.0710  -21.7650  -11.6140 N.ar    1  UNL1       -0.1350
      4  C         19.7560  -22.3620  -10.4830 C.ar    1  UNL1        0.1310
      5  N         20.8850  -22.9410   -9.9610 N.ar    1  UNL1       -0.3170
      6  C         21.0090  -23.7030   -8.7350 C.3     1  UNL1        0.1510
      7  C         19.7420  -24.4540   -8.3070 C.3     1  UNL1        0.1370
      8  N         18.7330  -23.6080   -7.6610 N.3     1  UNL1       -0.4060
      9  C         18.3960  -22.3570   -8.3530 C.3     1  UNL1        0.1240
     10  C         18.3920  -22.4060   -9.8840 C.3     1  UNL1        0.1000
     11  C         23.3290  -23.0170  -10.6390 C.3     1  UNL1        0.2030
     12  N         23.9240  -23.2330  -11.9350 N.am    1  UNL1       -0.3520
     13  C         24.8550  -22.3620  -12.4450 C.2     1  UNL1        0.2400
     14  O         25.2190  -21.3590  -11.8350 O.2     1  UNL1       -0.2710
     15  H         23.7260  -24.1220  -12.3860 H       1  UNL1        0.1620
     16  C         25.4500  -22.7810  -13.7980 C.3     1  UNL1        0.1770
     17  C         25.3080  -24.2660  -14.1020 C.3     1  UNL1        0.0440
     18  C         25.1920  -24.3260  -15.6220 C.3     1  UNL1        0.1050
     19  C         24.5530  -23.0040  -15.9570 C.2     1  UNL1        0.2180
     20  O         23.9880  -22.7160  -16.9950 O.2     1  UNL1       -0.2740
     21  N         24.7550  -22.1580  -14.8940 N.am    1  UNL1       -0.3480
     22  H         24.3580  -21.2250  -14.8610 H       1  UNL1        0.1630
     23  C         17.5800  -24.3510   -7.1270 C.3     1  UNL1        0.1620
     24  C         16.7020  -23.6320   -6.1380 C.2     1  UNL1        0.0400
     25  C         16.9750  -23.6590   -4.7670 C.2     1  UNL1        0.1270
     26  F         18.0400  -24.3330   -4.3110 F       1  UNL1       -0.2050
     27  C         16.1650  -22.9970   -3.8420 C.2     1  UNL1        0.0460
     28  C         15.0460  -22.2930   -4.2830 C.2     1  UNL1        0.0480
     29  C         14.7540  -22.2660   -5.6410 C.2     1  UNL1        0.1550
     30  F         13.6760  -21.5930   -6.0670 F       1  UNL1       -0.2030
     31  C         15.5690  -22.9300   -6.5560 C.2     1  UNL1        0.1650
     32  F         15.2560  -22.8890   -7.8610 F       1  UNL1       -0.2020
@<TRIPOS>BOND
     1    20    19    2
     2    19    18    1
     3    19    21   am
     4    18    17    1
     5    21    22    1
     6    21    16    1
     7    17    16    1
     8    16    13    1
     9    13    12   am
    10    13    14    2
    11    15    12    1
    12    12    11    1
    13     2     3   ar
    14     2     1   ar
    15     3     4   ar
    16     1    11    1
    17     1     5   ar
    18     4     5   ar
    19     4    10    1
    20     5     6    1
    21    10     9    1
    22     6     7    1
    23     9     8    1
    24     7     8    1
    25    32    31    1
    26     8    23    1
    27    23    24    1
    28    31    24    2
    29    31    29    1
    30    24    25    1
    31    30    29    1
    32    29    28    2
    33    25    26    1
    34    25    27    2
    35    28    27    1
