@<TRIPOS>MOLECULE
76984_out_ligand_01.pdbqt
 36 41 0 0 0
SMALL
GASTEIGER

@<TRIPOS>ATOM
      1  C         21.1700  -21.7860  -11.4170 C.2     1  UNL1        0.0760
      2  C         20.1690  -21.0230  -12.0440 C.3     1  UNL1        0.1590
      3  N         18.9500  -21.2670  -11.5850 N.3     1  UNL1       -0.1640
      4  N         19.1340  -22.1520  -10.5500 N.pl3   1  UNL1       -0.0630
      5  C         20.4580  -22.6150  -10.5430 C.2     1  UNL1        0.0760
      6  C         18.0130  -22.4100   -9.6710 C.cat   1  UNL1        0.7500
      7  N         16.8650  -22.8820  -10.1620 N.2     1  UNL1       -0.0730
      8  C         15.8890  -23.1240   -9.2710 C.2     1  UNL1        0.1460
      9  C         15.9970  -22.9340   -7.9030 C.2     1  UNL1       -0.0100
     10  C         17.2120  -22.4510   -7.4560 C.2     1  UNL1        0.0940
     11  C         14.8370  -23.2730   -7.0270 C.3     1  UNL1        0.0430
     12  N         18.2050  -22.2070   -8.3480 N.2     1  UNL1       -0.0600
     13  C         17.5820  -22.1160   -6.0430 C.2     1  UNL1        0.0000
     14  C         18.6710  -21.2110   -5.8650 C.2     1  UNL1        0.0140
     15  C         16.9800  -22.6030   -4.8580 C.2     1  UNL1       -0.0460
     16  C         19.1460  -20.8080   -4.6140 C.2     1  UNL1        0.0010
     17  C         18.5430  -21.2890   -3.4690 C.2     1  UNL1        0.0010
     18  C         17.4730  -22.1700   -3.5940 C.2     1  UNL1        0.0080
     19  C         15.8060  -23.5490   -4.7320 C.3     1  UNL1        0.0400
     20  C         15.2700  -24.2620   -5.9600 C.3     1  UNL1        0.0090
     21  C         21.1470  -23.8290   -9.8150 C.3     1  UNL1        0.0390
     22  C         20.4940  -24.6890   -8.7800 C.3     1  UNL1        0.0110
     23  C         21.5870  -23.7240   -8.3870 C.3     1  UNL1        0.0110
     24  C         22.6050  -21.7560  -11.6900 C.2     1  UNL1        0.2550
     25  N         22.9390  -21.6320  -13.0250 N.am    1  UNL1       -0.3560
     26  H         22.2240  -21.4340  -13.7130 H       1  UNL1        0.1620
     27  O         23.4680  -21.8100  -10.8200 O.2     1  UNL1       -0.2680
     28  C         24.3250  -21.5500  -13.4590 C.3     1  UNL1        0.1290
     29  C         24.5060  -20.6220  -14.6570 C.3     1  UNL1        0.0790
     30  C         24.6440  -21.4170  -15.9280 C.2     1  UNL1        0.0410
     31  N         24.0170  -22.6230  -15.9220 N.2     1  UNL1       -0.2650
     32  C         24.1180  -23.3900  -17.0270 C.2     1  UNL1        0.1170
     33  C         24.8260  -23.0210  -18.1520 C.2     1  UNL1        0.0200
     34  C         25.4700  -21.7900  -18.1450 C.2     1  UNL1        0.0100
     35  C         25.3950  -20.9610  -17.0200 C.2     1  UNL1       -0.0370
     36  C         26.0900  -19.6300  -17.0240 C.3     1  UNL1        0.0500
@<TRIPOS>BOND
     1    33    34    2
     2    33    32    1
     3    34    35    1
     4    32    31    2
     5    36    35    1
     6    35    30    2
     7    30    31    1
     8    30    29    1
     9    29    28    1
    10    26    25    1
    11    28    25    1
    12    25    24   am
    13     2     3    1
    14     2     1    1
    15    24     1    1
    16    24    27    2
    17     3     4    1
    18     1     5    2
    19     4     5    1
    20     4     6    1
    21     5    21    1
    22     7     6    2
    23     7     8    1
    24    21    22    1
    25    21    23    1
    26     6    12    1
    27     8     9    2
    28    22    23    1
    29    12    10    2
    30     9    10    1
    31     9    11    1
    32    10    13    1
    33    11    20    1
    34    13    14    2
    35    13    15    1
    36    20    19    1
    37    14    16    1
    38    15    19    1
    39    15    18    2
    40    16    17    2
    41    18    17    1
