@<TRIPOS>MOLECULE
76985_out_ligand_01.pdbqt
 30 34 0 0 0
SMALL
GASTEIGER

@<TRIPOS>ATOM
      1  C         20.8260  -22.2170  -10.8600 C.2     1  UNL1        0.1130
      2  N         20.8890  -21.1450  -11.6870 N.2     1  UNL1       -0.2480
      3  C         19.7430  -20.4940  -11.9780 C.2     1  UNL1        0.1180
      4  C         18.5100  -20.8410  -11.4680 C.2     1  UNL1        0.0200
      5  C         18.4500  -21.9270  -10.6080 C.2     1  UNL1        0.0130
      6  C         19.6120  -22.6550  -10.2990 C.2     1  UNL1        0.0100
      7  N         22.0210  -22.9110  -10.5660 N.pl3   1  UNL1       -0.2650
      8  C         22.7390  -22.3090   -9.4100 C.3     1  UNL1        0.1120
      9  C         23.8600  -21.3280   -9.8240 C.3     1  UNL1        0.1120
     10  N         24.8750  -21.9750  -10.7060 N.pl3   1  UNL1       -0.2660
     11  C         24.3530  -23.1430  -11.4530 C.3     1  UNL1        0.1120
     12  C         22.8600  -22.9700  -11.8040 C.3     1  UNL1        0.1120
     13  C         25.5430  -21.0290  -11.5120 C.2     1  UNL1        0.1050
     14  C         25.5070  -21.1630  -12.9030 C.2     1  UNL1        0.0440
     15  C         26.1590  -20.2350  -13.7130 C.2     1  UNL1        0.0050
     16  C         26.8330  -19.1800  -13.1220 C.2     1  UNL1        0.0190
     17  C         26.8180  -19.1020  -11.7440 C.2     1  UNL1        0.1180
     18  N         26.1920  -19.9910  -10.9410 N.2     1  UNL1       -0.2490
     19  C         19.5810  -23.7840   -9.2920 C.3     1  UNL1        0.3120
     20  N         19.9480  -23.3590   -7.9300 N.3     1  UNL1        0.0920
     21  H         20.1520  -22.3610   -7.9500 H       1  UNL1        0.3160
     22  C         18.8760  -23.6280   -6.9650 C.3     1  UNL1        0.2290
     23  C         17.5000  -23.9890   -7.5840 C.3     1  UNL1        0.0750
     24  C         16.5690  -23.5630   -6.4900 C.2     1  UNL1       -0.0500
     25  C         15.2470  -23.9290   -6.3040 C.2     1  UNL1        0.0070
     26  C         17.1950  -22.6520   -5.6300 C.2     1  UNL1       -0.0500
     27  C         14.5530  -23.3730   -5.2270 C.2     1  UNL1        0.0010
     28  C         15.1790  -22.4530   -4.3700 C.2     1  UNL1        0.0010
     29  C         16.5100  -22.0820   -4.5710 C.2     1  UNL1        0.0070
     30  C         18.6080  -22.3960   -6.0590 C.3     1  UNL1        0.0750
@<TRIPOS>BOND
     1    15    16    2
     2    15    14    1
     3    16    17    1
     4    14    13    2
     5     3     2    1
     6     3     4    2
     7    12    11    1
     8    12     7    1
     9    17    18    2
    10     2     1    2
    11    13    18    1
    12    13    10    1
    13     4     5    1
    14    11    10    1
    15     1     7    1
    16     1     6    1
    17    10     9    1
    18     5     6    2
    19     7     8    1
    20     6    19    1
    21     9     8    1
    22    19    20    1
    23    21    20    1
    24    20    22    1
    25    23    22    1
    26    23    24    1
    27    22    30    1
    28    24    25    2
    29    24    26    1
    30    25    27    1
    31    30    26    1
    32    26    29    2
    33    27    28    2
    34    29    28    1
