@<TRIPOS>MOLECULE
76988_out_ligand_01.pdbqt
 31 35 0 0 0
SMALL
GASTEIGER

@<TRIPOS>ATOM
      1  C         20.7360  -21.7990  -11.2100 C.2     1  UNL1        0.0110
      2  C         20.3230  -20.5860  -11.7750 C.2     1  UNL1        0.0150
      3  C         18.9630  -20.2800  -11.8530 C.2     1  UNL1        0.0020
      4  C         18.0140  -21.1850  -11.3770 C.2     1  UNL1        0.0090
      5  C         18.4090  -22.4120  -10.8260 C.2     1  UNL1       -0.0290
      6  C         19.7770  -22.7110  -10.7490 C.2     1  UNL1        0.0240
      7  C         17.3740  -23.3930  -10.3180 C.3     1  UNL1        0.3110
      8  N         17.0720  -23.1980   -8.8970 N.3     1  UNL1        0.0960
      9  C         15.8980  -23.9660   -8.4760 C.3     1  UNL1        0.2760
     10  C         15.9550  -23.8580   -6.9600 C.3     1  UNL1        0.0750
     11  C         17.4560  -23.9200   -6.6340 C.3     1  UNL1        0.1130
     12  C         18.1470  -23.6700   -8.0060 C.3     1  UNL1        0.3150
     13  O         17.7700  -25.2680   -6.2400 O.3     1  UNL1       -0.3830
     14  H         18.1640  -25.2070   -5.3530 H       1  UNL1        0.2110
     15  C         17.8070  -22.9530   -5.5100 C.2     1  UNL1       -0.0220
     16  C         18.5780  -21.8050   -5.7680 C.2     1  UNL1        0.0100
     17  C         18.9230  -20.9190   -4.7450 C.2     1  UNL1        0.0010
     18  C         18.5170  -21.1730   -3.4380 C.2     1  UNL1        0.0000
     19  C         17.7780  -22.3190   -3.1530 C.2     1  UNL1        0.0010
     20  C         17.4340  -23.2040   -4.1780 C.2     1  UNL1        0.0100
     21  C         22.1750  -22.1620  -11.0980 C.ar    1  UNL1        0.1410
     22  N         22.5490  -22.8870   -9.9800 N.ar    1  UNL1       -0.3070
     23  C         23.8320  -23.3160   -9.7610 C.ar    1  UNL1        0.2550
     24  H         21.8720  -23.2050   -9.3040 H       1  UNL1        0.1700
     25  O         24.1580  -23.9910   -8.7940 O.2     1  UNL1       -0.2680
     26  C         24.7730  -22.9000  -10.7910 C.ar    1  UNL1        0.0350
     27  C         24.3120  -22.2010  -11.8270 C.ar    1  UNL1        0.0480
     28  C         26.2260  -23.1670  -10.8530 C.3     1  UNL1        0.0460
     29  N         23.0190  -21.8210  -12.0270 N.ar    1  UNL1       -0.2340
     30  C         25.4090  -21.8730  -12.7840 C.3     1  UNL1        0.0600
     31  C         26.6660  -22.2140  -11.9710 C.3     1  UNL1        0.0110
@<TRIPOS>BOND
     1    30    31    1
     2    30    27    1
     3    29    27   ar
     4    29    21   ar
     5    31    28    1
     6     3     2    1
     7     3     4    2
     8    27    26   ar
     9     2     1    2
    10     4     5    1
    11     1    21    1
    12     1     6    1
    13    21    22   ar
    14    28    26    1
    15     5     6    2
    16     5     7    1
    17    26    23   ar
    18     7     8    1
    19    22    23   ar
    20    22    24    1
    21    23    25    2
    22     8     9    1
    23     8    12    1
    24     9    10    1
    25    12    11    1
    26    10    11    1
    27    11    13    1
    28    11    15    1
    29    13    14    1
    30    16    15    2
    31    16    17    1
    32    15    20    1
    33    17    18    2
    34    20    19    2
    35    18    19    1
