@<TRIPOS>MOLECULE
76991_out_ligand_01.pdbqt
 38 42 0 0 0
SMALL
GASTEIGER

@<TRIPOS>ATOM
      1  C         22.0580  -22.8700   -9.3140 C.2     1  UNL1       -0.0230
      2  C         21.7580  -24.2360   -9.5240 C.2     1  UNL1        0.0130
      3  C         20.6880  -24.8780   -8.8930 C.2     1  UNL1        0.0390
      4  C         19.9220  -24.0960   -8.0380 C.2     1  UNL1        0.0860
      5  O         18.8490  -24.5290   -7.3250 O.2     1  UNL1       -0.3040
      6  C         18.3690  -23.4690   -6.6060 C.2     1  UNL1        0.1440
      7  C         19.1420  -22.3530   -6.8840 C.2     1  UNL1        0.0570
      8  C         20.1540  -22.7530   -7.7940 C.2     1  UNL1        0.0010
      9  C         21.2370  -22.1250   -8.4400 C.2     1  UNL1        0.0240
     10  C         23.2590  -22.2590  -10.0530 C.3     1  UNL1        0.0880
     11  C         22.8530  -21.8390  -11.4860 C.3     1  UNL1        0.0730
     12  C         23.9010  -22.1940  -12.5480 C.3     1  UNL1        0.2760
     13  N         25.2340  -21.7990  -12.1120 N.3     1  UNL1        0.0920
     14  C         25.6580  -22.4840  -10.8830 C.3     1  UNL1        0.2760
     15  C         24.5160  -23.1410  -10.0960 C.3     1  UNL1        0.0730
     16  C         26.2230  -21.9140  -13.1960 C.3     1  UNL1        0.3110
     17  C         26.3430  -20.6650  -14.0550 C.2     1  UNL1       -0.0240
     18  C         26.9030  -19.5070  -13.4840 C.2     1  UNL1        0.0100
     19  C         27.0300  -18.3250  -14.2160 C.2     1  UNL1        0.0070
     20  C         26.5990  -18.2720  -15.5410 C.2     1  UNL1       -0.0610
     21  C         26.7070  -16.9960  -16.3240 C.3     1  UNL1        0.0480
     22  C         26.0160  -19.4090  -16.1120 C.2     1  UNL1        0.0140
     23  C         25.8810  -20.6070  -15.3870 C.2     1  UNL1       -0.0530
     24  C         25.2470  -21.7920  -16.0640 C.3     1  UNL1        0.0490
     25  O         23.6050  -21.0730   -9.3160 O.3     1  UNL1       -0.3850
     26  H         22.7830  -20.5780   -9.1570 H       1  UNL1        0.2110
     27  C         17.2000  -23.5840   -5.7420 C.2     1  UNL1        0.2770
     28  O         17.2580  -24.3010   -4.7390 O.2     1  UNL1       -0.2650
     29  N         16.0010  -22.9130   -6.0550 N.am    1  UNL1       -0.3500
     30  C         14.8610  -23.1370   -5.1780 C.3     1  UNL1        0.1530
     31  C         15.6860  -22.3110   -7.3590 C.3     1  UNL1        0.1320
     32  C         15.8910  -23.2820   -8.5220 C.3     1  UNL1        0.0790
     33  C         16.6410  -22.6210   -9.6470 C.2     1  UNL1        0.0350
     34  C         17.7040  -23.2740  -10.2680 C.2     1  UNL1        0.0270
     35  C         18.3830  -22.6230  -11.2940 C.2     1  UNL1        0.0030
     36  C         17.9870  -21.3470  -11.6700 C.2     1  UNL1        0.0190
     37  C         16.9230  -20.7680  -10.9990 C.2     1  UNL1        0.1170
     38  N         16.2470  -21.3740   -9.9970 N.2     1  UNL1       -0.2660
@<TRIPOS>BOND
     1    21    20    1
     2    22    20    2
     3    22    23    1
     4    24    23    1
     5    20    19    1
     6    23    17    2
     7    19    18    2
     8    17    18    1
     9    17    16    1
    10    16    13    1
    11    12    13    1
    12    12    11    1
    13    13    14    1
    14    36    35    2
    15    36    37    1
    16    11    10    1
    17    35    34    1
    18    37    38    2
    19    14    15    1
    20    34    33    2
    21    15    10    1
    22    10    25    1
    23    10     1    1
    24    38    33    1
    25    33    32    1
    26     2     1    2
    27     2     3    1
    28    25    26    1
    29     1     9    1
    30     3     4    2
    31    32    31    1
    32     9     8    2
    33     4     8    1
    34     4     5    1
    35     8     7    1
    36    31    29    1
    37     5     6    1
    38     7     6    2
    39     6    27    1
    40    29    27   am
    41    29    30    1
    42    27    28    2
