@<TRIPOS>MOLECULE
77010_out_ligand_01.pdbqt
 31 34 0 0 0
SMALL
GASTEIGER

@<TRIPOS>ATOM
      1  O         21.4340  -21.0450  -13.2460 O.2     1  UNL1       -0.2660
      2  C         21.0840  -21.3670  -12.1150 C.2     1  UNL1        0.2730
      3  N         21.9550  -21.7010  -11.1040 N.am    1  UNL1       -0.3510
      4  H         21.5560  -21.8940  -10.1940 H       1  UNL1        0.1630
      5  C         19.6870  -21.4310  -11.7120 C.2     1  UNL1        0.1580
      6  C         19.0490  -22.4520  -11.0410 C.2     1  UNL1        0.1460
      7  N         17.7650  -22.0180  -10.9220 N.pl3   1  UNL1       -0.2830
      8  N         17.6000  -20.8060  -11.4800 N.2     1  UNL1        0.0050
      9  N         18.7740  -20.4310  -11.9710 N.2     1  UNL1       -0.1530
     10  C         16.6510  -22.6980  -10.2950 C.3     1  UNL1        0.1460
     11  C         16.5530  -22.3760   -8.8040 C.3     1  UNL1        0.0260
     12  C         16.0180  -23.5500   -7.9780 C.3     1  UNL1        0.0400
     13  C         15.9430  -23.2690   -6.4990 C.2     1  UNL1       -0.0580
     14  C         16.8750  -23.8310   -5.6170 C.2     1  UNL1        0.0070
     15  C         16.7970  -23.5800   -4.2470 C.2     1  UNL1        0.0010
     16  C         15.7870  -22.7610   -3.7450 C.2     1  UNL1        0.0000
     17  C         14.8570  -22.1930   -4.6130 C.2     1  UNL1        0.0010
     18  C         14.9340  -22.4440   -5.9830 C.2     1  UNL1        0.0070
     19  C         23.3820  -21.5460  -11.2250 C.3     1  UNL1        0.1650
     20  C         24.0850  -22.5950  -10.4310 C.2     1  UNL1        0.0080
     21  C         25.3710  -23.0830  -10.5770 C.2     1  UNL1        0.1200
     22  N         25.5240  -24.0540   -9.6380 N.pl3   1  UNL1       -0.2880
     23  N         24.4430  -24.2350   -8.8720 N.2     1  UNL1       -0.1740
     24  H         26.3380  -24.6350   -9.4630 H       1  UNL1        0.1880
     25  C         23.5510  -23.3420   -9.3280 C.2     1  UNL1        0.0960
     26  C         22.2270  -23.2370   -8.7180 C.2     1  UNL1       -0.0050
     27  C         21.2780  -24.2570   -8.8710 C.2     1  UNL1        0.0140
     28  C         20.0200  -24.1470   -8.2740 C.2     1  UNL1        0.0010
     29  C         19.6990  -23.0150   -7.5240 C.2     1  UNL1        0.0000
     30  C         20.6310  -21.9900   -7.3760 C.2     1  UNL1        0.0010
     31  C         21.8890  -22.1000   -7.9740 C.2     1  UNL1        0.0140
@<TRIPOS>BOND
     1     1     2    2
     2     2     5    1
     3     2     3   am
     4     9     5    1
     5     9     8    2
     6     5     6    2
     7     8     7    1
     8    19     3    1
     9    19    20    1
    10     3     4    1
    11     6     7    1
    12     7    10    1
    13    21    20    2
    14    21    22    1
    15    20    25    1
    16    10    11    1
    17    22    24    1
    18    22    23    1
    19    25    23    2
    20    25    26    1
    21    27    26    2
    22    27    28    1
    23    11    12    1
    24    26    31    1
    25    28    29    2
    26    12    13    1
    27    31    30    2
    28    29    30    1
    29    13    18    2
    30    13    14    1
    31    18    17    1
    32    14    15    2
    33    17    16    2
    34    15    16    1
