@<TRIPOS>MOLECULE
77012_out_ligand_01.pdbqt
 27 30 0 0 0
SMALL
GASTEIGER

@<TRIPOS>ATOM
      1  C         21.5010  -24.0040   -8.9690 C.3     1  UNL1        0.0510
      2  C         20.9540  -22.9950   -9.9180 C.ar    1  UNL1       -0.0220
      3  C         21.6720  -22.2430  -10.8400 C.ar    1  UNL1        0.0500
      4  N         20.7710  -21.4320  -11.4890 N.ar    1  UNL1       -0.3540
      5  C         19.4940  -21.6420  -11.0290 C.ar    1  UNL1        0.0430
      6  C         18.2890  -21.0420  -11.4100 C.2     1  UNL1        0.0310
      7  C         17.1250  -21.4600  -10.7580 C.2     1  UNL1        0.0110
      8  C         17.1550  -22.4450   -9.7620 C.2     1  UNL1       -0.0290
      9  C         18.3850  -23.0230   -9.3990 C.2     1  UNL1        0.0230
     10  C         19.5750  -22.6190  -10.0420 C.ar    1  UNL1       -0.0010
     11  H         21.0100  -20.7840  -12.2260 H       1  UNL1        0.1660
     12  C         15.8780  -22.8690   -9.0730 C.3     1  UNL1        0.3080
     13  N         16.0870  -24.1030   -8.3140 N.3     1  UNL1        0.0920
     14  H         15.4170  -24.7950   -8.6570 H       1  UNL1        0.3160
     15  C         15.9030  -23.9260   -6.8670 C.3     1  UNL1        0.2250
     16  C         15.4200  -22.5270   -6.4830 C.3     1  UNL1        0.0620
     17  C         15.2530  -22.4150   -4.9660 C.3     1  UNL1        0.1690
     18  O         16.0060  -23.3900   -4.2430 O.3     1  UNL1       -0.3910
     19  C         17.3120  -23.5650   -4.7810 C.3     1  UNL1        0.1690
     20  C         17.2390  -24.2130   -6.1610 C.3     1  UNL1        0.0620
     21  C         23.0940  -22.2270  -11.1710 C.2     1  UNL1       -0.0090
     22  C         23.5790  -22.9580  -12.2660 C.2     1  UNL1        0.0170
     23  C         24.9400  -22.9450  -12.5780 C.2     1  UNL1        0.0430
     24  C         25.8150  -22.2030  -11.7940 C.2     1  UNL1        0.1160
     25  F         27.1210  -22.1910  -12.0930 F       1  UNL1       -0.2060
     26  C         25.3550  -21.4720  -10.7060 C.2     1  UNL1        0.0430
     27  C         23.9940  -21.4840  -10.3940 C.2     1  UNL1        0.0170
@<TRIPOS>BOND
     1    23    22    1
     2    23    24    2
     3    22    21    2
     4    11     4    1
     5    25    24    1
     6    24    26    1
     7     4     5   ar
     8     4     3   ar
     9     6     5    2
    10     6     7    1
    11    21     3    1
    12    21    27    1
    13     5    10   ar
    14     3     2   ar
    15     7     8    2
    16    26    27    2
    17    10     2   ar
    18    10     9    2
    19     2     1    1
    20     8     9    1
    21     8    12    1
    22    12    13    1
    23    14    13    1
    24    13    15    1
    25    15    16    1
    26    15    20    1
    27    16    17    1
    28    20    19    1
    29    17    18    1
    30    19    18    1
