@<TRIPOS>MOLECULE
77026_out_ligand_01.pdbqt
 30 33 0 0 0
SMALL
GASTEIGER

@<TRIPOS>ATOM
      1  C         21.3200  -24.2000   -9.1970 C.3     1  UNL1        0.0510
      2  C         20.8320  -23.1290  -10.1120 C.ar    1  UNL1       -0.0220
      3  C         21.6050  -22.3520  -10.9670 C.ar    1  UNL1        0.0500
      4  N         20.7480  -21.5010  -11.6280 N.ar    1  UNL1       -0.3540
      5  C         19.4540  -21.6860  -11.2120 C.ar    1  UNL1        0.0430
      6  C         18.2840  -21.0260  -11.5970 C.2     1  UNL1        0.0310
      7  C         17.0910  -21.4170  -10.9850 C.2     1  UNL1        0.0110
      8  C         17.0590  -22.4350  -10.0230 C.2     1  UNL1       -0.0400
      9  C         18.2530  -23.0870   -9.6640 C.2     1  UNL1        0.0230
     10  C         19.4730  -22.7030  -10.2610 C.ar    1  UNL1       -0.0010
     11  H         21.0380  -20.8050  -12.2990 H       1  UNL1        0.1660
     12  C         15.7500  -22.8410   -9.3950 C.3     1  UNL1        0.1610
     13  N         15.7770  -22.6000   -7.9700 N.am    1  UNL1       -0.3550
     14  C         16.0020  -23.6220   -7.0630 C.2     1  UNL1        0.2400
     15  O         16.1070  -24.7940   -7.4110 O.2     1  UNL1       -0.2710
     16  H         15.8760  -21.6390   -7.6720 H       1  UNL1        0.1620
     17  C         16.1540  -23.1340   -5.6210 C.3     1  UNL1        0.1760
     18  C         14.8910  -22.4000   -5.1760 C.3     1  UNL1        0.0430
     19  N         17.3690  -22.3440   -5.4140 N.pl3   1  UNL1       -0.3530
     20  C         17.6920  -21.7070   -4.2400 C.2     1  UNL1        0.0910
     21  C         18.8710  -21.0240   -4.4310 C.2     1  UNL1        0.0190
     22  C         19.2750  -21.2490   -5.7670 C.2     1  UNL1        0.0190
     23  C         18.3300  -22.0620   -6.3510 C.2     1  UNL1        0.0910
     24  C         23.0490  -22.3100  -11.1890 C.2     1  UNL1       -0.0090
     25  C         23.8540  -21.4450  -10.4330 C.2     1  UNL1        0.0170
     26  C         25.2310  -21.3850  -10.6550 C.2     1  UNL1        0.0430
     27  C         25.8010  -22.1920  -11.6330 C.2     1  UNL1        0.1160
     28  F         27.1210  -22.1320  -11.8510 F       1  UNL1       -0.2060
     29  C         25.0230  -23.0590  -12.3900 C.2     1  UNL1        0.0430
     30  C         23.6440  -23.1170  -12.1700 C.2     1  UNL1        0.0170
@<TRIPOS>BOND
     1    29    30    1
     2    29    27    2
     3    11     4    1
     4    30    24    2
     5    28    27    1
     6    27    26    1
     7     4     5   ar
     8     4     3   ar
     9     6     5    2
    10     6     7    1
    11     5    10   ar
    12    24     3    1
    13    24    25    1
    14     7     8    2
    15     3     2   ar
    16    26    25    2
    17    10     2   ar
    18    10     9    2
    19     2     1    1
    20     8     9    1
    21     8    12    1
    22    12    13    1
    23    13    16    1
    24    13    14   am
    25    15    14    2
    26    14    17    1
    27    23    22    2
    28    23    19    1
    29    22    21    1
    30    17    19    1
    31    17    18    1
    32    19    20    1
    33    21    20    2
