@<TRIPOS>MOLECULE
77023_out_ligand_01.pdbqt
 32 35 0 0 0
SMALL
GASTEIGER

@<TRIPOS>ATOM
      1  O         21.4820  -20.9010  -13.3300 O.2     1  UNL1       -0.2660
      2  C         21.1560  -21.3590  -12.2400 C.2     1  UNL1        0.2730
      3  N         22.0470  -21.8530  -11.3160 N.am    1  UNL1       -0.3510
      4  H         21.6720  -22.1480  -10.4220 H       1  UNL1        0.1630
      5  C         19.7720  -21.4260  -11.7950 C.2     1  UNL1        0.1580
      6  C         19.1190  -22.5030  -11.2320 C.2     1  UNL1        0.1470
      7  N         17.8580  -22.0420  -11.0030 N.pl3   1  UNL1       -0.2790
      8  N         17.7190  -20.7660  -11.4080 N.2     1  UNL1        0.0050
      9  N         18.8890  -20.3730  -11.8930 N.2     1  UNL1       -0.1530
     10  C         16.7370  -22.7650  -10.4280 C.3     1  UNL1        0.1730
     11  C         16.6740  -22.6030   -8.9360 C.2     1  UNL1       -0.0050
     12  C         15.9520  -23.3930   -8.1250 C.2     1  UNL1        0.0090
     13  C         15.8980  -23.2420   -6.6640 C.2     1  UNL1       -0.0360
     14  C         14.9560  -22.3650   -6.1090 C.2     1  UNL1        0.0110
     15  C         14.8910  -22.1710   -4.7270 C.2     1  UNL1        0.0010
     16  C         15.7730  -22.8460   -3.8860 C.2     1  UNL1        0.0000
     17  C         16.7240  -23.7090   -4.4260 C.2     1  UNL1        0.0010
     18  C         16.7900  -23.9020   -5.8080 C.2     1  UNL1        0.0110
     19  C         23.4730  -21.7330  -11.4720 C.3     1  UNL1        0.1650
     20  C         24.1720  -22.7060  -10.5830 C.2     1  UNL1        0.0080
     21  C         25.4060  -23.3060  -10.7560 C.2     1  UNL1        0.1200
     22  N         25.5840  -24.1350   -9.6940 N.pl3   1  UNL1       -0.2880
     23  N         24.5710  -24.1140   -8.8220 N.2     1  UNL1       -0.1740
     24  H         26.3710  -24.7460   -9.4990 H       1  UNL1        0.1880
     25  C         23.6990  -23.2320   -9.3370 C.2     1  UNL1        0.0960
     26  C         22.4520  -22.9330   -8.6350 C.2     1  UNL1       -0.0050
     27  C         22.3360  -21.7480   -7.8900 C.2     1  UNL1        0.0170
     28  C         21.1530  -21.4510   -7.2110 C.2     1  UNL1        0.0430
     29  C         20.0830  -22.3350   -7.2850 C.2     1  UNL1        0.1160
     30  F         18.9460  -22.0500   -6.6360 F       1  UNL1       -0.2060
     31  C         20.1720  -23.5070   -8.0270 C.2     1  UNL1        0.0430
     32  C         21.3560  -23.8060   -8.7050 C.2     1  UNL1        0.0170
@<TRIPOS>BOND
     1     1     2    2
     2     2     5    1
     3     2     3   am
     4     9     5    1
     5     9     8    2
     6     5     6    2
     7    19     3    1
     8    19    20    1
     9     8     7    1
    10     3     4    1
    11     6     7    1
    12     7    10    1
    13    21    20    2
    14    21    22    1
    15    20    25    1
    16    10    11    1
    17    22    24    1
    18    22    23    1
    19    25    23    2
    20    25    26    1
    21    11    12    2
    22    32    26    2
    23    32    31    1
    24    26    27    1
    25    12    13    1
    26    31    29    2
    27    27    28    2
    28    29    28    1
    29    29    30    1
    30    13    14    2
    31    13    18    1
    32    14    15    1
    33    18    17    2
    34    15    16    2
    35    17    16    1
