@<TRIPOS>MOLECULE
77030_out_ligand_01.pdbqt
 27 29 0 0 0
SMALL
GASTEIGER

@<TRIPOS>ATOM
      1  C         19.6470  -20.8290   -5.7640 C.3     1  UNL1        0.0510
      2  C         19.4520  -22.0690   -6.5680 C.ar    1  UNL1       -0.0220
      3  C         18.3620  -22.9300   -6.5260 C.ar    1  UNL1        0.0520
      4  N         18.6070  -23.9340   -7.4340 N.ar    1  UNL1       -0.3540
      5  C         19.8190  -23.7570   -8.0540 C.ar    1  UNL1        0.0430
      6  C         20.4590  -24.5370   -9.0240 C.2     1  UNL1        0.0310
      7  C         21.7130  -24.1100   -9.4760 C.2     1  UNL1        0.0110
      8  C         22.3060  -22.9410   -8.9840 C.2     1  UNL1       -0.0400
      9  C         21.6370  -22.1820   -8.0060 C.2     1  UNL1        0.0230
     10  C         20.3740  -22.5920   -7.5320 C.ar    1  UNL1       -0.0010
     11  H         17.9900  -24.7160   -7.6030 H       1  UNL1        0.1660
     12  C         23.6760  -22.5200   -9.4540 C.3     1  UNL1        0.1610
     13  N         24.0860  -23.3150  -10.5860 N.am    1  UNL1       -0.3550
     14  C         24.1160  -22.7970  -11.8670 C.2     1  UNL1        0.2460
     15  O         23.6190  -21.7240  -12.1840 O.2     1  UNL1       -0.2710
     16  H         24.7050  -24.1010  -10.4180 H       1  UNL1        0.1620
     17  C         24.8250  -23.7420  -12.8550 C.3     1  UNL1        0.2060
     18  C         25.3610  -23.0040  -14.0700 C.3     1  UNL1        0.0490
     19  O         25.8940  -24.4330  -12.2030 O.3     1  UNL1       -0.3870
     20  H         26.6020  -23.7790  -12.0540 H       1  UNL1        0.2100
     21  C         17.1420  -22.9040   -5.7190 C.2     1  UNL1        0.0300
     22  C         17.1850  -23.2810   -4.3690 C.2     1  UNL1        0.0170
     23  C         16.0260  -23.2590   -3.5860 C.2     1  UNL1        0.0010
     24  C         14.8110  -22.8590   -4.1430 C.2     1  UNL1        0.0030
     25  C         14.7550  -22.4850   -5.4840 C.2     1  UNL1        0.0430
     26  C         15.9120  -22.5100   -6.2600 C.2     1  UNL1        0.1280
     27  F         15.8200  -22.1290   -7.5440 F       1  UNL1       -0.2050
@<TRIPOS>BOND
     1    18    17    1
     2    17    19    1
     3    17    14    1
     4    19    20    1
     5    15    14    2
     6    14    13   am
     7    13    16    1
     8    13    12    1
     9     7     6    1
    10     7     8    2
    11    12     8    1
    12     6     5    2
    13     8     9    1
    14     5    10   ar
    15     5     4   ar
    16     9    10    2
    17    11     4    1
    18    27    26    1
    19    10     2   ar
    20     4     3   ar
    21     2     3   ar
    22     2     1    1
    23     3    21    1
    24    26    21    2
    25    26    25    1
    26    21    22    1
    27    25    24    2
    28    22    23    2
    29    24    23    1
