@<TRIPOS>MOLECULE
77036_out_ligand_01.pdbqt
 36 40 0 0 0
SMALL
GASTEIGER

@<TRIPOS>ATOM
      1  N         24.3240  -21.4620  -14.6830 N.pl3   1  UNL1       -0.2370
      2  N         22.9970  -21.1760  -14.7580 N.2     1  UNL1       -0.1790
      3  C         22.5270  -21.3550  -13.5260 C.2     1  UNL1        0.1500
      4  C         23.5100  -21.8020  -12.6370 C.2     1  UNL1        0.0190
      5  C         24.6690  -21.8460  -13.3930 C.2     1  UNL1        0.0470
      6  C         25.9810  -22.3790  -12.9060 C.3     1  UNL1        0.0690
      7  C         26.0000  -22.5090  -11.3490 C.3     1  UNL1       -0.0400
      8  C         26.3150  -21.1390  -10.7120 C.3     1  UNL1        0.0150
      9  C         27.1210  -23.4880  -10.9510 C.3     1  UNL1        0.0150
     10  C         24.6420  -23.0590  -10.8150 C.3     1  UNL1        0.0490
     11  C         23.4260  -22.1730  -11.1920 C.3     1  UNL1        0.2580
     12  N         22.1510  -22.8510  -10.9780 N.3     1  UNL1        0.0960
     13  H         22.0710  -23.6530  -11.6030 H       1  UNL1        0.3170
     14  C         21.9580  -23.2980   -9.6040 C.3     1  UNL1        0.3110
     15  C         20.4920  -23.2380   -9.3050 C.2     1  UNL1       -0.0020
     16  C         19.8390  -23.9020   -8.2820 C.2     1  UNL1        0.1010
     17  N         18.5080  -23.5850   -8.3350 N.pl3   1  UNL1       -0.3470
     18  C         18.2650  -22.7240   -9.3840 C.2     1  UNL1        0.0450
     19  C         17.0730  -22.1330   -9.8310 C.2     1  UNL1        0.0300
     20  C         19.4920  -22.4970  -10.0160 C.2     1  UNL1        0.0000
     21  C         17.1300  -21.2950  -10.9480 C.2     1  UNL1        0.0020
     22  C         18.3350  -21.0530  -11.5960 C.2     1  UNL1        0.0010
     23  C         19.5180  -21.6450  -11.1420 C.2     1  UNL1        0.0140
     24  C         17.5030  -24.1060   -7.4200 C.3     1  UNL1        0.2310
     25  C         17.7520  -23.6980   -5.9830 C.2     1  UNL1        0.2330
     26  N         17.8210  -22.3590   -5.7220 N.am    1  UNL1       -0.3690
     27  H         18.1080  -21.7140   -6.4490 H       1  UNL1        0.1590
     28  H         18.0900  -22.1130   -4.7760 H       1  UNL1        0.1590
     29  O         17.8180  -24.5110   -5.0630 O.2     1  UNL1       -0.2720
     30  C         25.1470  -21.3100  -15.8400 C.2     1  UNL1        0.0640
     31  C         25.8740  -20.1190  -16.0130 C.2     1  UNL1        0.0320
     32  C         26.6670  -19.9210  -17.1440 C.2     1  UNL1        0.0020
     33  C         26.7380  -20.9030  -18.1240 C.2     1  UNL1        0.0010
     34  C         26.0090  -22.0830  -17.9770 C.2     1  UNL1        0.0090
     35  C         25.2110  -22.3100  -16.8400 C.2     1  UNL1       -0.0330
     36  C         24.4770  -23.6230  -16.7580 C.3     1  UNL1        0.0500
@<TRIPOS>BOND
     1    33    34    2
     2    33    32    1
     3    34    35    1
     4    32    31    2
     5    35    36    1
     6    35    30    2
     7    31    30    1
     8    30     1    1
     9     2     1    1
    10     2     3    2
    11     1     5    1
    12     3     4    1
    13     5     6    1
    14     5     4    2
    15     6     7    1
    16     4    11    1
    17    13    12    1
    18    22    23    2
    19    22    21    1
    20     7     9    1
    21     7    10    1
    22     7     8    1
    23    11    12    1
    24    11    10    1
    25    23    20    1
    26    12    14    1
    27    21    19    2
    28    20    18    2
    29    20    15    1
    30    19    18    1
    31    14    15    1
    32    18    17    1
    33    15    16    2
    34    17    16    1
    35    17    24    1
    36    24    25    1
    37    27    26    1
    38    25    26   am
    39    25    29    2
    40    26    28    1
