@<TRIPOS>MOLECULE
77035_out_ligand_01.pdbqt
 29 32 0 0 0
SMALL
GASTEIGER

@<TRIPOS>ATOM
      1  C         21.5550  -24.0840   -9.1500 C.3     1  UNL1        0.0510
      2  C         20.8780  -23.0410   -9.9720 C.ar    1  UNL1       -0.0220
      3  C         21.4620  -22.1640  -10.8860 C.ar    1  UNL1        0.0520
      4  N         20.4250  -21.4470  -11.4520 N.ar    1  UNL1       -0.3540
      5  C         19.2170  -21.7780  -10.8940 C.ar    1  UNL1        0.0430
      6  C         17.9370  -21.2750  -11.1500 C.2     1  UNL1        0.0310
      7  C         16.8730  -21.8050  -10.4150 C.2     1  UNL1        0.0110
      8  C         17.0760  -22.8110   -9.4610 C.2     1  UNL1       -0.0390
      9  C         18.3760  -23.2920   -9.2270 C.2     1  UNL1        0.0230
     10  C         19.4670  -22.7730   -9.9570 C.ar    1  UNL1       -0.0010
     11  H         20.5470  -20.7590  -12.1810 H       1  UNL1        0.1660
     12  C         15.9240  -23.3410   -8.6430 C.3     1  UNL1        0.1720
     13  N         15.9120  -22.7290   -7.3260 N.3     1  UNL1       -0.2980
     14  H         15.2040  -22.0210   -7.1480 H       1  UNL1        0.1740
     15  S         16.3320  -23.6080   -5.9890 S.O2    1  UNL1        0.3170
     16  O         16.8830  -24.8420   -6.4920 O.2     1  UNL1       -0.1830
     17  O         15.2390  -23.5770   -5.0510 O.2     1  UNL1       -0.1830
     18  N         17.5840  -22.7160   -5.3810 N.3     1  UNL1       -0.2940
     19  C         18.2380  -21.6660   -6.1660 C.3     1  UNL1        0.1370
     20  C         19.1720  -21.0040   -5.1620 C.3     1  UNL1        0.0220
     21  C         18.3960  -21.1070   -3.8630 C.3     1  UNL1        0.0220
     22  C         17.7610  -22.4890   -3.9430 C.3     1  UNL1        0.1370
     23  C         22.8590  -21.9360  -11.2930 C.2     1  UNL1        0.0300
     24  C         23.2660  -22.1310  -12.6210 C.2     1  UNL1        0.0170
     25  C         24.5940  -21.9210  -13.0070 C.2     1  UNL1        0.0010
     26  C         25.5440  -21.5220  -12.0680 C.2     1  UNL1        0.0030
     27  C         25.1650  -21.3360  -10.7400 C.2     1  UNL1        0.0430
     28  C         23.8390  -21.5440  -10.3640 C.2     1  UNL1        0.1280
     29  F         23.5220  -21.3710   -9.0690 F       1  UNL1       -0.2050
@<TRIPOS>BOND
     1    25    24    1
     2    25    26    2
     3    24    23    2
     4    11     4    1
     5    26    27    1
     6     4     5   ar
     7     4     3   ar
     8    23     3    1
     9    23    28    1
    10     6     5    2
    11     6     7    1
    12     5    10   ar
    13     3     2   ar
    14    27    28    2
    15     7     8    2
    16    28    29    1
    17     2    10   ar
    18     2     1    1
    19    10     9    2
    20     8     9    1
    21     8    12    1
    22    12    13    1
    23    13    14    1
    24    13    15    1
    25    16    15    2
    26    19    18    1
    27    19    20    1
    28    15    18    1
    29    15    17    2
    30    18    22    1
    31    20    21    1
    32    22    21    1
