@<TRIPOS>MOLECULE
77042_out_ligand_01.pdbqt
 29 32 0 0 0
SMALL
GASTEIGER

@<TRIPOS>ATOM
      1  C         18.4210  -22.1220  -10.4520 C.2     1  UNL1        0.0340
      2  C         18.4780  -21.1970  -11.5120 C.2     1  UNL1        0.0200
      3  C         19.6860  -20.9050  -12.1600 C.2     1  UNL1        0.0410
      4  C         20.8010  -21.5920  -11.6930 C.ar    1  UNL1        0.1060
      5  O         22.0810  -21.4920  -12.1480 O.2     1  UNL1       -0.2890
      6  C         22.7840  -22.3730  -11.3620 C.ar    1  UNL1        0.1810
      7  N         22.0510  -23.0060  -10.4620 N.ar    1  UNL1       -0.2210
      8  C         20.7850  -22.5180  -10.6640 C.ar    1  UNL1        0.0940
      9  C         19.5750  -22.8050  -10.0230 C.2     1  UNL1        0.0510
     10  C         17.1390  -22.4360   -9.7640 C.2     1  UNL1        0.2510
     11  O         16.1440  -21.7540   -9.9800 O.2     1  UNL1       -0.2680
     12  N         17.1460  -23.5320   -8.9260 N.am    1  UNL1       -0.3570
     13  H         17.9260  -24.1740   -8.9590 H       1  UNL1        0.1620
     14  C         15.9300  -23.9870   -8.2810 C.3     1  UNL1        0.1230
     15  C         16.1540  -24.2810   -6.8000 C.3     1  UNL1        0.0240
     16  C         17.6440  -24.2860   -6.4590 C.3     1  UNL1        0.0410
     17  C         18.0360  -23.0750   -5.6600 C.2     1  UNL1       -0.0410
     18  C         18.8220  -22.0620   -6.2160 C.2     1  UNL1        0.0100
     19  C         19.1510  -20.9460   -5.4520 C.2     1  UNL1        0.0200
     20  C         18.6780  -20.8780   -4.1520 C.2     1  UNL1        0.1160
     21  N         17.9110  -21.8320   -3.5820 N.2     1  UNL1       -0.2730
     22  C         17.6090  -22.9050   -4.3470 C.2     1  UNL1        0.1230
     23  C         24.2160  -22.4870  -11.6220 C.2     1  UNL1        0.0200
     24  C         25.1060  -21.5880  -11.0100 C.2     1  UNL1        0.0160
     25  C         26.4830  -21.6680  -11.2380 C.2     1  UNL1        0.0040
     26  C         26.9880  -22.6530  -12.0830 C.2     1  UNL1        0.0420
     27  C         26.1110  -23.5450  -12.6900 C.2     1  UNL1        0.1170
     28  F         26.5970  -24.4930  -13.5030 F       1  UNL1       -0.2060
     29  C         24.7390  -23.4730  -12.4700 C.2     1  UNL1        0.0580
@<TRIPOS>BOND
     1    28    27    1
     2    27    29    1
     3    27    26    2
     4    29    23    2
     5     3     4    2
     6     3     2    1
     7     5     4   ar
     8     5     6   ar
     9    26    25    1
    10     4     8   ar
    11    23     6    1
    12    23    24    1
    13     2     1    2
    14     6     7   ar
    15    25    24    2
    16     8     7   ar
    17     8     9    2
    18     1     9    1
    19     1    10    1
    20    11    10    2
    21    10    12   am
    22    13    12    1
    23    12    14    1
    24    14    15    1
    25    15    16    1
    26    16    17    1
    27    18    17    2
    28    18    19    1
    29    17    22    1
    30    19    20    2
    31    22    21    2
    32    20    21    1
