@<TRIPOS>MOLECULE
77077_out_ligand_01.pdbqt
 32 35 0 0 0
SMALL
GASTEIGER

@<TRIPOS>ATOM
      1  S         16.7930  -24.3090   -7.2840 S.O2    1  UNL1        0.2460
      2  O         17.3230  -25.0600   -6.1680 O.2     1  UNL1       -0.2060
      3  O         15.7650  -24.8600   -8.1430 O.2     1  UNL1       -0.2060
      4  N         16.2300  -22.7780   -6.7690 N.pl3   1  UNL1       -0.1790
      5  H         15.3340  -22.9670   -6.3030 H       1  UNL1        0.1460
      6  C         17.0890  -22.1540   -5.7900 C.2     1  UNL1        0.0570
      7  C         18.2900  -21.5760   -6.1980 C.2     1  UNL1        0.0440
      8  C         19.1550  -21.0200   -5.2490 C.2     1  UNL1        0.0330
      9  C         18.8170  -21.0800   -3.8900 C.2     1  UNL1        0.0200
     10  C         17.6120  -21.6660   -3.4820 C.2     1  UNL1        0.0390
     11  C         16.7440  -22.2100   -4.4290 C.2     1  UNL1        0.0900
     12  C         20.4170  -20.3990   -5.7350 C.2     1  UNL1        0.2490
     13  N         20.7030  -19.1240   -5.3320 N.am    1  UNL1       -0.3660
     14  H         20.0110  -18.5040   -4.9390 H       1  UNL1        0.1590
     15  H         21.5090  -18.6970   -5.7730 H       1  UNL1        0.1590
     16  O         21.1690  -20.9870   -6.5030 O.2     1  UNL1       -0.2680
     17  O         15.5260  -22.7750   -4.1500 O.2     1  UNL1       -0.3540
     18  C         15.5470  -23.9560   -3.3570 C.3     1  UNL1        0.2100
     19  C         18.1610  -23.8310   -8.3200 C.2     1  UNL1        0.0860
     20  C         19.4360  -24.4080   -8.0600 C.2     1  UNL1        0.0280
     21  C         20.5560  -24.0770   -8.8410 C.2     1  UNL1        0.0320
     22  C         20.3670  -23.1740   -9.8590 C.2     1  UNL1        0.0470
     23  C         19.1350  -22.6190  -10.0960 C.2     1  UNL1        0.0180
     24  N         21.2760  -22.6660  -10.7820 N.am    1  UNL1       -0.3220
     25  C         19.2220  -21.7540  -11.1580 C.2     1  UNL1        0.0450
     26  C         17.9770  -22.8880   -9.3720 C.2     1  UNL1        0.0000
     27  C         18.1180  -21.0600  -11.6030 C.2     1  UNL1        0.0180
     28  C         20.6270  -21.7750  -11.6230 C.2     1  UNL1        0.2570
     29  C         16.9120  -21.2730  -10.9230 C.2     1  UNL1        0.0020
     30  C         16.8340  -22.1670   -9.8270 C.2     1  UNL1        0.0140
     31  O         21.0930  -21.1400  -12.5460 O.2     1  UNL1       -0.2670
     32  H         22.2570  -22.8880  -10.8520 H       1  UNL1        0.1690
@<TRIPOS>BOND
     1    31    28    2
     2    28    25    1
     3    28    24   am
     4    27    25    2
     5    27    29    1
     6    25    23    1
     7    29    30    2
     8    32    24    1
     9    24    22    1
    10    23    22    2
    11    23    26    1
    12    22    21    1
    13    30    26    1
    14    26    19    2
    15    21    20    2
    16    19    20    1
    17    19     1    1
    18     3     1    2
    19     1     4    1
    20     1     2    2
    21     4     5    1
    22     4     6    1
    23    16    12    2
    24     7     6    2
    25     7     8    1
    26     6    11    1
    27    15    13    1
    28    12    13   am
    29    12     8    1
    30    13    14    1
    31     8     9    2
    32    11    17    1
    33    11    10    2
    34    17    18    1
    35     9    10    1
