@<TRIPOS>MOLECULE
77085_out_ligand_01.pdbqt
 32 35 0 0 0
SMALL
GASTEIGER

@<TRIPOS>ATOM
      1  S         22.7900  -22.4190   -9.3950 S.O2    1  UNL1        0.2460
      2  O         23.4890  -23.0530   -8.2960 O.2     1  UNL1       -0.2060
      3  O         22.9750  -21.0170   -9.6930 O.2     1  UNL1       -0.2060
      4  N         23.0980  -23.3840  -10.7670 N.pl3   1  UNL1       -0.1790
      5  H         23.4180  -24.3000  -10.4530 H       1  UNL1        0.1460
      6  C         24.0340  -22.7900  -11.6900 C.2     1  UNL1        0.0570
      7  C         23.5400  -22.1230  -12.8140 C.2     1  UNL1        0.0440
      8  C         24.4260  -21.5970  -13.7620 C.2     1  UNL1        0.0330
      9  C         25.8060  -21.7290  -13.5760 C.2     1  UNL1        0.0200
     10  C         26.3000  -22.4070  -12.4570 C.2     1  UNL1        0.0390
     11  C         25.4180  -22.9600  -11.5250 C.2     1  UNL1        0.0900
     12  C         23.8550  -20.8810  -14.9310 C.2     1  UNL1        0.2490
     13  N         22.7190  -20.1480  -14.7270 N.am    1  UNL1       -0.3660
     14  H         22.4310  -19.5630  -15.5030 H       1  UNL1        0.1590
     15  H         22.4290  -19.8590  -13.8050 H       1  UNL1        0.1590
     16  O         24.3950  -20.9170  -16.0280 O.2     1  UNL1       -0.2680
     17  O         25.8600  -23.5920  -10.3910 O.2     1  UNL1       -0.3540
     18  C         27.1210  -24.2390  -10.5530 C.3     1  UNL1        0.2100
     19  C         21.0490  -22.6960   -9.1490 C.2     1  UNL1        0.0860
     20  C         20.6390  -23.4640   -8.0260 C.2     1  UNL1        0.0280
     21  C         19.2810  -23.7190   -7.7770 C.2     1  UNL1        0.0320
     22  C         18.3600  -23.1940   -8.6590 C.2     1  UNL1        0.0490
     23  C         18.7740  -22.4510   -9.7370 C.2     1  UNL1        0.0180
     24  N         16.9630  -23.2730   -8.6810 N.am    1  UNL1       -0.3170
     25  C         17.6800  -22.0420  -10.4590 C.2     1  UNL1        0.0450
     26  C         20.0960  -22.1510  -10.0560 C.2     1  UNL1        0.0000
     27  C         17.8220  -21.2760  -11.5970 C.2     1  UNL1        0.0180
     28  C         16.4780  -22.5730   -9.7810 C.2     1  UNL1        0.2590
     29  C         19.1250  -20.9340  -11.9810 C.2     1  UNL1        0.0020
     30  C         20.2460  -21.3590  -11.2290 C.2     1  UNL1        0.0140
     31  O         15.3320  -22.4050  -10.1490 O.2     1  UNL1       -0.2670
     32  C         16.1620  -23.9660   -7.7110 C.3     1  UNL1        0.1590
@<TRIPOS>BOND
     1    16    12    2
     2    14    13    1
     3    12    13   am
     4    12     8    1
     5    13    15    1
     6     8     9    2
     7     8     7    1
     8     9    10    1
     9     7     6    2
    10    10    11    2
    11    29    27    1
    12    29    30    2
    13     6    11    1
    14     6     4    1
    15    27    25    2
    16    11    17    1
    17    30    26    1
    18     4     5    1
    19     4     1    1
    20    18    17    1
    21    25    28    1
    22    25    23    1
    23    31    28    2
    24    26    23    1
    25    26    19    2
    26    28    24   am
    27    23    22    2
    28     3     1    2
    29     1    19    1
    30     1     2    2
    31    19    20    1
    32    24    22    1
    33    24    32    1
    34    22    21    1
    35    20    21    2
