@<TRIPOS>MOLECULE
77098_out_ligand_01.pdbqt
 32 35 0 0 0
SMALL
GASTEIGER

@<TRIPOS>ATOM
      1  S         23.0520  -22.7600   -9.7050 S.O2    1  UNL1        0.2640
      2  O         23.3700  -21.3490   -9.7270 O.2     1  UNL1       -0.2000
      3  O         23.7630  -23.6690   -8.8270 O.2     1  UNL1       -0.2000
      4  C         21.3100  -22.9180   -9.4020 C.2     1  UNL1        0.0910
      5  C         20.3670  -22.2310  -10.2190 C.2     1  UNL1        0.0010
      6  C         20.5300  -21.3520  -11.3280 C.2     1  UNL1        0.0140
      7  C         19.0380  -22.4700   -9.8720 C.2     1  UNL1        0.0180
      8  C         19.4150  -20.7960  -11.9990 C.2     1  UNL1        0.0020
      9  C         18.1060  -21.0890  -11.5950 C.2     1  UNL1        0.0180
     10  C         17.9520  -21.9360  -10.5180 C.2     1  UNL1        0.0450
     11  C         16.7390  -22.4520   -9.8490 C.2     1  UNL1        0.2590
     12  N         17.2090  -23.2550   -8.8150 N.am    1  UNL1       -0.3130
     13  O         15.5960  -22.2070  -10.1780 O.2     1  UNL1       -0.2670
     14  C         18.6120  -23.2740   -8.8430 C.2     1  UNL1        0.0490
     15  C         19.5240  -23.9350   -8.0500 C.2     1  UNL1        0.0320
     16  C         20.8860  -23.7520   -8.3340 C.2     1  UNL1        0.0280
     17  C         16.3760  -24.0220   -7.9210 C.3     1  UNL1        0.1280
     18  C         15.9240  -23.2060   -6.7220 C.3     1  UNL1        0.0270
     19  N         23.2140  -23.3180  -11.2990 N.pl3   1  UNL1       -0.2810
     20  H         22.3200  -23.2520  -11.7890 H       1  UNL1        0.1790
     21  C         24.3760  -22.9130  -12.0090 C.2     1  UNL1        0.0440
     22  C         25.6370  -23.3070  -11.5570 C.2     1  UNL1        0.0300
     23  C         26.7870  -22.8440  -12.2010 C.2     1  UNL1        0.0040
     24  C         26.6780  -21.9720  -13.2830 C.2     1  UNL1        0.0250
     25  C         25.4100  -21.5700  -13.7130 C.2     1  UNL1        0.0760
     26  C         24.2540  -22.0470  -13.0910 C.2     1  UNL1        0.0540
     27  S         25.2390  -20.4390  -15.0640 S.O2    1  UNL1        0.2390
     28  O         25.7780  -21.0740  -16.2420 O.2     1  UNL1       -0.2060
     29  O         25.6540  -19.1280  -14.6220 O.2     1  UNL1       -0.2060
     30  N         23.5660  -20.3510  -15.2280 N.3     1  UNL1       -0.2250
     31  H         23.1440  -21.1800  -15.6480 H       1  UNL1        0.1360
     32  H         23.1530  -20.1290  -14.3210 H       1  UNL1        0.1360
@<TRIPOS>BOND
     1    28    27    2
     2    31    30    1
     3    30    27    1
     4    30    32    1
     5    27    29    2
     6    27    25    1
     7    25    24    2
     8    25    26    1
     9    24    23    1
    10    26    21    2
    11    23    22    2
    12    21    22    1
    13    21    19    1
    14     8     9    1
    15     8     6    2
    16    20    19    1
    17     9    10    2
    18     6     5    1
    19    19     1    1
    20    10     7    1
    21    10    11    1
    22     5     7    1
    23     5     4    2
    24    13    11    2
    25     7    14    2
    26    11    12   am
    27     2     1    2
    28     1     4    1
    29     1     3    2
    30     4    16    1
    31    14    12    1
    32    14    15    1
    33    12    17    1
    34    16    15    2
    35    17    18    1
