@<TRIPOS>MOLECULE
77091_out_ligand_01.pdbqt
 31 34 0 0 0
SMALL
GASTEIGER

@<TRIPOS>ATOM
      1  S         23.0720  -22.7550   -9.7130 S.O2    1  UNL1        0.2460
      2  O         23.7730  -23.6410   -8.8110 O.2     1  UNL1       -0.2060
      3  O         23.3650  -21.3370   -9.7640 O.2     1  UNL1       -0.2060
      4  C         21.3290  -22.9480   -9.4270 C.2     1  UNL1        0.0860
      5  C         20.3870  -22.2560  -10.2390 C.2     1  UNL1        0.0000
      6  C         20.5530  -21.3620  -11.3360 C.2     1  UNL1        0.0140
      7  C         19.0590  -22.4950   -9.8950 C.2     1  UNL1        0.0180
      8  C         19.4390  -20.7860  -11.9920 C.2     1  UNL1        0.0020
      9  C         18.1300  -21.0740  -11.5850 C.2     1  UNL1        0.0180
     10  C         17.9730  -21.9410  -10.5250 C.2     1  UNL1        0.0450
     11  C         16.7610  -22.4550   -9.8520 C.2     1  UNL1        0.2590
     12  N         17.2320  -23.2950   -8.8500 N.am    1  UNL1       -0.3170
     13  O         15.6180  -22.1700  -10.1510 O.2     1  UNL1       -0.2670
     14  C         16.4180  -24.0350   -7.9270 C.3     1  UNL1        0.1590
     15  C         18.6330  -23.3170   -8.8810 C.2     1  UNL1        0.0490
     16  C         19.5430  -23.9930   -8.0970 C.2     1  UNL1        0.0320
     17  C         20.9060  -23.8060   -8.3770 C.2     1  UNL1        0.0280
     18  N         23.2160  -23.3260  -11.3170 N.pl3   1  UNL1       -0.1810
     19  H         22.3710  -23.0620  -11.8300 H       1  UNL1        0.1460
     20  C         24.4020  -22.8720  -11.9800 C.2     1  UNL1        0.0240
     21  C         25.6530  -23.2350  -11.4800 C.2     1  UNL1        0.0240
     22  C         26.8180  -22.7460  -12.0800 C.2     1  UNL1        0.0030
     23  C         26.7310  -21.8750  -13.1650 C.2     1  UNL1        0.0250
     24  C         25.4720  -21.4920  -13.6340 C.2     1  UNL1        0.0760
     25  C         24.3020  -21.9900  -13.0530 C.2     1  UNL1        0.0490
     26  S         25.3310  -20.3690  -14.9970 S.O2    1  UNL1        0.2390
     27  O         25.6930  -19.0460  -14.5430 O.2     1  UNL1       -0.2060
     28  O         25.9390  -20.9910  -16.1490 O.2     1  UNL1       -0.2060
     29  N         23.6660  -20.3300  -15.2350 N.3     1  UNL1       -0.2250
     30  H         23.3170  -21.0780  -15.8340 H       1  UNL1        0.1360
     31  H         23.1990  -20.3190  -14.3270 H       1  UNL1        0.1360
@<TRIPOS>BOND
     1    28    26    2
     2    30    29    1
     3    29    26    1
     4    29    31    1
     5    26    27    2
     6    26    24    1
     7    24    23    2
     8    24    25    1
     9    23    22    1
    10    25    20    2
    11    22    21    2
    12     8     9    1
    13     8     6    2
    14    20    21    1
    15    20    18    1
    16    19    18    1
    17     9    10    2
    18     6     5    1
    19    18     1    1
    20    10     7    1
    21    10    11    1
    22     5     7    1
    23     5     4    2
    24    13    11    2
    25     7    15    2
    26    11    12   am
    27     3     1    2
    28     1     4    1
    29     1     2    2
    30     4    17    1
    31    15    12    1
    32    15    16    1
    33    12    14    1
    34    17    16    2
