@<TRIPOS>MOLECULE
77099_out_ligand_01.pdbqt
 33 36 0 0 0
SMALL
GASTEIGER

@<TRIPOS>ATOM
      1  S         16.6290  -24.2560   -7.3050 S.O2    1  UNL1        0.2460
      2  O         17.1300  -25.0150   -6.1790 O.2     1  UNL1       -0.2060
      3  O         15.6040  -24.7800   -8.1780 O.2     1  UNL1       -0.2060
      4  C         18.0210  -23.8240   -8.3240 C.2     1  UNL1        0.0860
      5  C         17.8690  -22.9050   -9.4010 C.2     1  UNL1        0.0000
      6  C         16.7300  -22.2140   -9.9010 C.2     1  UNL1        0.0140
      7  C         19.0520  -22.6280  -10.0830 C.2     1  UNL1        0.0180
      8  C         16.8320  -21.3120  -10.9880 C.2     1  UNL1        0.0020
      9  C         18.0610  -21.0700  -11.6140 C.2     1  UNL1        0.0180
     10  C         19.1600  -21.7540  -11.1350 C.2     1  UNL1        0.0450
     11  C         20.5790  -21.7320  -11.5480 C.2     1  UNL1        0.2590
     12  N         21.2160  -22.6440  -10.7110 N.am    1  UNL1       -0.3130
     13  O         21.0450  -21.0300  -12.4250 O.2     1  UNL1       -0.2670
     14  C         20.2820  -23.1710   -9.8060 C.2     1  UNL1        0.0490
     15  C         20.4280  -24.0740   -8.7740 C.2     1  UNL1        0.0320
     16  C         19.2850  -24.4020   -8.0260 C.2     1  UNL1        0.0280
     17  C         22.6340  -22.9040  -10.7020 C.3     1  UNL1        0.1280
     18  C         23.3780  -21.9690   -9.7620 C.3     1  UNL1        0.0270
     19  N         16.1760  -22.7260   -6.6980 N.pl3   1  UNL1       -0.1790
     20  H         16.1520  -22.0960   -7.5080 H       1  UNL1        0.1460
     21  C         17.1170  -22.1710   -5.7510 C.2     1  UNL1        0.0570
     22  C         18.2940  -21.5710   -6.2000 C.2     1  UNL1        0.0440
     23  C         19.1890  -21.0150   -5.2790 C.2     1  UNL1        0.0330
     24  C         18.8710  -21.0320   -3.9120 C.2     1  UNL1        0.0200
     25  C         17.6950  -21.6490   -3.4630 C.2     1  UNL1        0.0390
     26  C         16.8220  -22.2360   -4.3790 C.2     1  UNL1        0.0900
     27  C         20.4520  -20.4220   -5.8000 C.2     1  UNL1        0.2490
     28  N         20.7820  -19.1560   -5.4020 N.am    1  UNL1       -0.3660
     29  H         21.6950  -18.8280   -5.6910 H       1  UNL1        0.1590
     30  H         20.3580  -18.7000   -4.6090 H       1  UNL1        0.1590
     31  O         21.2050  -21.0560   -6.5290 O.2     1  UNL1       -0.2680
     32  O         15.6570  -22.8860   -4.0550 O.2     1  UNL1       -0.3540
     33  C         15.7750  -23.9830   -3.1530 C.3     1  UNL1        0.2100
@<TRIPOS>BOND
     1    13    11    2
     2     9    10    2
     3     9     8    1
     4    11    10    1
     5    11    12   am
     6    10     7    1
     7     8     6    2
     8    12    17    1
     9    12    14    1
    10    17    18    1
    11     7    14    2
    12     7     5    1
    13     6     5    1
    14    14    15    1
    15     5     4    2
    16    15    16    2
    17     4    16    1
    18     4     1    1
    19     3     1    2
    20    20    19    1
    21     1    19    1
    22     1     2    2
    23    19    21    1
    24    31    27    2
    25    22    21    2
    26    22    23    1
    27    27    28   am
    28    27    23    1
    29    21    26    1
    30    29    28    1
    31    28    30    1
    32    23    24    2
    33    26    32    1
    34    26    25    2
    35    32    33    1
    36    24    25    1
