@<TRIPOS>MOLECULE
77094_out_ligand_01.pdbqt
 33 36 0 0 0
SMALL
GASTEIGER

@<TRIPOS>ATOM
      1  S         22.6710  -22.3250   -9.4500 S.O2    1  UNL1        0.2460
      2  O         22.8040  -21.0090  -10.0420 O.2     1  UNL1       -0.2060
      3  O         23.4060  -22.7060   -8.2650 O.2     1  UNL1       -0.2060
      4  C         20.9500  -22.6130   -9.1310 C.2     1  UNL1        0.0860
      5  C         19.9820  -22.1090  -10.0470 C.2     1  UNL1        0.0000
      6  C         20.1170  -21.3450  -11.2420 C.2     1  UNL1        0.0140
      7  C         18.6650  -22.4100   -9.7070 C.2     1  UNL1        0.0180
      8  C         18.9860  -20.9550  -11.9990 C.2     1  UNL1        0.0020
      9  C         17.6900  -21.3050  -11.5980 C.2     1  UNL1        0.0180
     10  C         17.5650  -22.0380  -10.4360 C.2     1  UNL1        0.0450
     11  C         16.3720  -22.5640   -9.7380 C.2     1  UNL1        0.2590
     12  N         16.8680  -23.2070   -8.6070 N.am    1  UNL1       -0.3130
     13  O         15.2240  -22.4410  -10.1160 O.2     1  UNL1       -0.2670
     14  C         18.2680  -23.1210   -8.6020 C.2     1  UNL1        0.0490
     15  C         19.2030  -23.6090   -7.7140 C.2     1  UNL1        0.0320
     16  C         20.5580  -23.3480   -7.9830 C.2     1  UNL1        0.0280
     17  C         16.0660  -23.9230   -7.6470 C.3     1  UNL1        0.1280
     18  C         15.6070  -23.0270   -6.5070 C.3     1  UNL1        0.0270
     19  N         23.0410  -23.3970  -10.7340 N.pl3   1  UNL1       -0.1800
     20  H         22.1720  -23.5130  -11.2620 H       1  UNL1        0.1460
     21  C         24.1050  -22.9150  -11.5830 C.2     1  UNL1        0.0460
     22  C         23.7730  -22.1440  -12.7020 C.2     1  UNL1        0.0510
     23  C         24.7930  -21.5830  -13.4750 C.2     1  UNL1        0.0760
     24  C         26.1380  -21.7970  -13.1590 C.2     1  UNL1        0.0260
     25  C         26.4660  -22.5590  -12.0360 C.2     1  UNL1        0.0270
     26  C         25.4550  -23.1070  -11.2430 C.2     1  UNL1        0.0560
     27 CL         25.9180  -24.0420   -9.8650 Cl      1  UNL1       -0.0820
     28  S         24.3720  -20.6050  -14.8940 S.O2    1  UNL1        0.2390
     29  O         24.2680  -21.4910  -16.0290 O.2     1  UNL1       -0.2060
     30  O         25.2100  -19.4310  -14.8990 O.2     1  UNL1       -0.2060
     31  N         22.8020  -20.1310  -14.5260 N.3     1  UNL1       -0.2250
     32  H         22.4440  -19.3820  -15.1180 H       1  UNL1        0.1360
     33  H         22.7450  -19.8930  -13.5330 H       1  UNL1        0.1360
@<TRIPOS>BOND
     1    29    28    2
     2    32    31    1
     3    30    28    2
     4    28    31    1
     5    28    23    1
     6    31    33    1
     7    23    24    2
     8    23    22    1
     9    24    25    1
    10    22    21    2
    11    25    26    2
    12     8     9    1
    13     8     6    2
    14     9    10    2
    15    21    26    1
    16    21    19    1
    17    20    19    1
    18    26    27    1
    19     6     5    1
    20    19     1    1
    21    10    11    1
    22    10     7    1
    23    13    11    2
    24     5     7    1
    25     5     4    2
    26     2     1    2
    27    11    12   am
    28     7    14    2
    29     1     4    1
    30     1     3    2
    31     4    16    1
    32    12    14    1
    33    12    17    1
    34    14    15    1
    35    16    15    2
    36    17    18    1
