@<TRIPOS>MOLECULE
77102_out_ligand_01.pdbqt
 31 33 0 0 0
SMALL
GASTEIGER

@<TRIPOS>ATOM
      1  C         17.7130  -23.1810   -8.9700 C.2     1  UNL1        0.0860
      2  C         19.1080  -23.2970   -9.0940 C.2     1  UNL1        0.0420
      3  C         19.7810  -22.6630  -10.1400 C.2     1  UNL1        0.0330
      4  C         19.0600  -21.9240  -11.0800 C.2     1  UNL1        0.0170
      5  C         17.6730  -21.8040  -10.9560 C.2     1  UNL1        0.0090
      6  C         16.9750  -22.4250   -9.9030 C.2     1  UNL1       -0.0390
      7  C         15.4840  -22.2450   -9.8450 C.3     1  UNL1        0.0500
      8  S         16.9810  -24.0200   -7.5720 S.O2    1  UNL1        0.2630
      9  O         17.9980  -24.6850   -6.7870 O.2     1  UNL1       -0.2000
     10  O         15.8530  -24.7710   -8.0850 O.2     1  UNL1       -0.2000
     11  N         16.3210  -22.7460   -6.6830 N.pl3   1  UNL1       -0.2800
     12  H         15.3070  -22.8190   -6.6210 H       1  UNL1        0.1790
     13  C         17.0260  -22.2760   -5.5400 C.2     1  UNL1        0.0480
     14  C         18.1470  -21.4660   -5.7400 C.2     1  UNL1        0.0300
     15  C         18.8960  -21.0190   -4.6520 C.2     1  UNL1        0.0020
     16  C         18.5290  -21.3890   -3.3610 C.2     1  UNL1        0.0010
     17  C         17.4100  -22.1990   -3.1580 C.2     1  UNL1        0.0090
     18  C         16.6390  -22.6460   -4.2430 C.2     1  UNL1       -0.0350
     19  C         15.4560  -23.5380   -3.9830 C.3     1  UNL1        0.0500
     20  C         21.2560  -22.8290  -10.2470 C.2     1  UNL1        0.2560
     21  O         21.7690  -23.7610   -9.6420 O.2     1  UNL1       -0.2670
     22  N         21.8870  -21.8640  -11.0110 N.am    1  UNL1       -0.3220
     23  H         21.3100  -21.0920  -11.3120 H       1  UNL1        0.1690
     24  C         23.2630  -21.7740  -11.3400 C.2     1  UNL1        0.0410
     25  C         24.2610  -21.9060  -10.3680 C.2     1  UNL1        0.0300
     26  C         25.6090  -21.8230  -10.7090 C.2     1  UNL1        0.0030
     27  C         25.9810  -21.6090  -12.0300 C.2     1  UNL1        0.0070
     28  C         25.0110  -21.4760  -13.0340 C.2     1  UNL1       -0.0540
     29  C         25.4820  -21.2450  -14.4460 C.3     1  UNL1        0.0490
     30  C         23.6360  -21.5600  -12.6940 C.2     1  UNL1       -0.0290
     31  C         22.5760  -21.4170  -13.7620 C.3     1  UNL1        0.0510
@<TRIPOS>BOND
     1    29    28    1
     2    31    30    1
     3    28    30    1
     4    28    27    2
     5    30    24    2
     6    27    26    1
     7    24    22    1
     8    24    25    1
     9    23    22    1
    10     4     5    2
    11     4     3    1
    12    22    20   am
    13     5     6    1
    14    26    25    2
    15    20     3    1
    16    20    21    2
    17     3     2    2
    18     6     7    1
    19     6     1    2
    20     2     1    1
    21     1     8    1
    22    10     8    2
    23     8     9    2
    24     8    11    1
    25    11    12    1
    26    11    13    1
    27    14    13    2
    28    14    15    1
    29    13    18    1
    30    15    16    2
    31    18    19    1
    32    18    17    2
    33    16    17    1
