@<TRIPOS>MOLECULE
77104_out_ligand_01.pdbqt
 30 32 0 0 0
SMALL
GASTEIGER

@<TRIPOS>ATOM
      1  C         17.8110  -23.3200   -8.8070 C.2     1  UNL1        0.0810
      2  C         19.2000  -23.5320   -8.8330 C.2     1  UNL1        0.0420
      3  C         19.9740  -22.9790   -9.8570 C.2     1  UNL1        0.0330
      4  C         19.3540  -22.2380  -10.8650 C.2     1  UNL1        0.0170
      5  C         17.9740  -22.0210  -10.8340 C.2     1  UNL1        0.0090
      6  C         17.1800  -22.5500   -9.8040 C.2     1  UNL1       -0.0390
      7  C         15.7020  -22.2710   -9.8260 C.3     1  UNL1        0.0500
      8  S         16.8880  -24.0610   -7.4610 S.O2    1  UNL1        0.2460
      9  O         17.8370  -24.7320   -6.6020 O.2     1  UNL1       -0.2060
     10  O         15.7670  -24.7650   -8.0470 O.2     1  UNL1       -0.2060
     11  N         16.2490  -22.6730   -6.7050 N.pl3   1  UNL1       -0.1810
     12  H         15.2680  -22.8510   -6.4960 H       1  UNL1        0.1460
     13  C         16.9730  -22.2430   -5.5390 C.2     1  UNL1        0.0280
     14  C         18.1110  -21.4540   -5.7260 C.2     1  UNL1        0.0250
     15  C         18.8670  -21.0310   -4.6340 C.2     1  UNL1        0.0020
     16  C         18.4940  -21.4060   -3.3480 C.2     1  UNL1        0.0010
     17  C         17.3630  -22.2000   -3.1550 C.2     1  UNL1        0.0080
     18  C         16.5860  -22.6280   -4.2440 C.2     1  UNL1       -0.0400
     19  C         15.3860  -23.4940   -3.9820 C.3     1  UNL1        0.0500
     20  C         21.4490  -23.1870   -9.9330 C.2     1  UNL1        0.2560
     21  O         21.9570  -23.9950   -9.1680 O.2     1  UNL1       -0.2670
     22  N         22.0930  -22.4470  -10.9070 N.am    1  UNL1       -0.3220
     23  H         21.5230  -21.9070  -11.5490 H       1  UNL1        0.1690
     24  C         23.4790  -22.4090  -11.1940 C.2     1  UNL1        0.0520
     25  C         24.4540  -22.8980  -10.3200 C.2     1  UNL1        0.0310
     26  C         25.8110  -22.8280  -10.6540 C.2     1  UNL1        0.0020
     27  C         26.2100  -22.2660  -11.8630 C.2     1  UNL1        0.0020
     28  C         25.2530  -21.7730  -12.7460 C.2     1  UNL1        0.0210
     29  C         23.8970  -21.8430  -12.4120 C.2     1  UNL1        0.0370
     30 BR         22.6430  -21.1440  -13.6620 Br      1  UNL1       -0.0490
@<TRIPOS>BOND
     1    30    29    1
     2    28    29    1
     3    28    27    2
     4    29    24    2
     5    27    26    1
     6    23    22    1
     7    24    22    1
     8    24    25    1
     9    22    20   am
    10     4     5    2
    11     4     3    1
    12     5     6    1
    13    26    25    2
    14    20     3    1
    15    20    21    2
    16     3     2    2
    17     7     6    1
    18     6     1    2
    19     2     1    1
    20     1     8    1
    21    10     8    2
    22     8    11    1
    23     8     9    2
    24    11    12    1
    25    11    13    1
    26    14    13    2
    27    14    15    1
    28    13    18    1
    29    15    16    2
    30    18    19    1
    31    18    17    2
    32    16    17    1
