@<TRIPOS>MOLECULE
77118_out_ligand_01.pdbqt
 31 33 0 0 0
SMALL
GASTEIGER

@<TRIPOS>ATOM
      1  C         17.4540  -22.2240   -5.4370 C.2     1  UNL1        0.0650
      2  C         17.4250  -22.1620   -4.0300 C.2     1  UNL1        0.0200
      3  C         16.2500  -22.4050   -3.3200 C.2     1  UNL1        0.0010
      4  C         15.0830  -22.7100   -4.0080 C.2     1  UNL1        0.0030
      5  C         15.0890  -22.7720   -5.4040 C.2     1  UNL1        0.0380
      6  C         16.2660  -22.5360   -6.1320 C.2     1  UNL1        0.0840
      7  C         18.7870  -21.9450   -6.0830 C.2     1  UNL1        0.2590
      8  N         19.2620  -22.8940   -6.9690 N.am    1  UNL1       -0.3230
      9  H         18.6480  -23.6840   -7.1460 H       1  UNL1        0.1690
     10  O         19.3710  -20.9090   -5.7770 O.2     1  UNL1       -0.2670
     11  C         20.4810  -22.8860   -7.6750 C.2     1  UNL1        0.0350
     12  C         21.3670  -21.8070   -7.6980 C.2     1  UNL1        0.0300
     13  C         22.5650  -21.8780   -8.4230 C.2     1  UNL1        0.0190
     14  C         22.8870  -23.0330   -9.1410 C.2     1  UNL1        0.0320
     15  C         22.0120  -24.1220   -9.1090 C.2     1  UNL1        0.0190
     16  C         20.8180  -24.0450   -8.3850 C.2     1  UNL1        0.0300
     17  C         24.1440  -23.1580   -9.9280 C.2     1  UNL1        0.2490
     18  N         25.1150  -23.9880   -9.4410 N.am    1  UNL1       -0.3660
     19  H         25.1200  -24.3040   -8.4810 H       1  UNL1        0.1590
     20  H         26.0030  -23.9550   -9.9230 H       1  UNL1        0.1590
     21  O         24.3260  -22.5180  -10.9560 O.2     1  UNL1       -0.2680
     22  O         16.3130  -22.5620   -7.5030 O.2     1  UNL1       -0.3480
     23  C         15.8230  -23.7350   -8.1680 C.3     1  UNL1        0.2020
     24  C         15.8570  -23.4820   -9.6760 C.3     1  UNL1        0.2020
     25  O         16.1460  -22.1130   -9.9690 O.2     1  UNL1       -0.3490
     26  C         17.3240  -21.7980  -10.5840 C.2     1  UNL1        0.0680
     27  C         18.2800  -22.8180  -10.5570 C.2     1  UNL1        0.0370
     28  C         19.5320  -22.6370  -11.1490 C.2     1  UNL1        0.0030
     29  C         19.8380  -21.4300  -11.7700 C.2     1  UNL1        0.0000
     30  C         18.8920  -20.4070  -11.7950 C.2     1  UNL1        0.0030
     31  C         17.6380  -20.5880  -11.2030 C.2     1  UNL1        0.0370
@<TRIPOS>BOND
     1    30    29    2
     2    30    31    1
     3    29    28    1
     4    31    26    2
     5    28    27    2
     6    21    17    2
     7    26    27    1
     8    26    25    1
     9    25    24    1
    10    17    18   am
    11    17    14    1
    12    20    18    1
    13    24    23    1
    14    18    19    1
    15    14    15    2
    16    14    13    1
    17    15    16    1
    18    13    12    2
    19    16    11    2
    20    23    22    1
    21    12    11    1
    22    11     8    1
    23    22     6    1
    24     9     8    1
    25     8     7   am
    26     6     1    2
    27     6     5    1
    28     7    10    2
    29     7     1    1
    30     1     2    1
    31     5     4    2
    32     2     3    2
    33     4     3    1
