@<TRIPOS>MOLECULE
7717_out_ligand_01.pdbqt
 36 39 0 0 0
SMALL
GASTEIGER

@<TRIPOS>ATOM
      1  C         21.2170  -21.8380  -11.8370 C.2     1  UNL1        0.0330
      2  C         20.0790  -21.3530  -12.4810 C.2     1  UNL1        0.0170
      3  C         18.8410  -21.3950  -11.8350 C.2     1  UNL1        0.0090
      4  C         18.7150  -21.8950  -10.5250 C.2     1  UNL1       -0.0390
      5  C         17.3410  -21.9310   -9.9170 C.3     1  UNL1        0.0500
      6  C         19.8800  -22.3360   -9.8680 C.2     1  UNL1        0.0860
      7  C         21.1220  -22.3230  -10.5310 C.2     1  UNL1        0.0420
      8  C         22.5160  -21.7970  -12.5510 C.2     1  UNL1        0.2520
      9  N         23.4810  -22.6540  -12.0790 N.am    1  UNL1       -0.3480
     10  H         23.2630  -23.3180  -11.3450 H       1  UNL1        0.1630
     11  O         22.6640  -21.0500  -13.5110 O.2     1  UNL1       -0.2680
     12  C         24.8070  -22.7410  -12.6800 C.3     1  UNL1        0.1230
     13  C         24.6570  -22.9800  -14.1820 C.3     1  UNL1        0.0680
     14  C         25.9860  -22.7580  -14.9260 C.3     1  UNL1        0.0690
     15  O         26.4420  -21.4020  -14.7170 O.2     1  UNL1       -0.3400
     16  C         26.3640  -20.9070  -13.4440 C.2     1  UNL1        0.0780
     17  C         27.0970  -19.7420  -13.2060 C.2     1  UNL1        0.0370
     18  C         25.6080  -21.4890  -12.4230 C.2     1  UNL1       -0.0020
     19  C         27.1210  -19.1730  -11.9340 C.2     1  UNL1        0.0030
     20  C         26.4020  -19.7640  -10.8970 C.2     1  UNL1        0.0010
     21  C         25.6540  -20.9160  -11.1380 C.2     1  UNL1        0.0120
     22  C         27.1200  -23.7240  -14.4870 C.3     1  UNL1        0.0340
     23  C         26.8060  -25.2090  -14.6230 C.3     1  UNL1        0.0080
     24  C         25.6920  -22.8660  -16.4500 C.3     1  UNL1        0.0340
     25  C         24.2780  -23.3220  -16.8030 C.3     1  UNL1        0.0080
     26  S         19.9080  -22.9650   -8.1900 S.O2    1  UNL1        0.2630
     27  O         19.6470  -24.3850   -8.1840 O.2     1  UNL1       -0.2000
     28  O         21.1070  -22.4300   -7.5720 O.2     1  UNL1       -0.2000
     29  N         18.6200  -22.1510   -7.4630 N.pl3   1  UNL1       -0.2810
     30  H         17.8060  -22.0750   -8.0690 H       1  UNL1        0.1790
     31  C         18.4010  -22.2780   -6.0650 C.2     1  UNL1        0.0420
     32  C         17.8210  -23.4480   -5.5690 C.2     1  UNL1        0.0300
     33  C         17.6040  -23.5870   -4.1960 C.2     1  UNL1        0.0020
     34  C         17.9600  -22.5600   -3.3230 C.2     1  UNL1        0.0000
     35  C         18.5380  -21.3910   -3.8210 C.2     1  UNL1        0.0020
     36  C         18.7590  -21.2510   -5.1920 C.2     1  UNL1        0.0300
@<TRIPOS>BOND
     1    25    24    1
     2    24    14    1
     3    14    15    1
     4    14    22    1
     5    14    13    1
     6    15    16    1
     7    23    22    1
     8    13    12    1
     9    11     8    2
    10    16    17    2
    11    16    18    1
    12    17    19    1
    13    12    18    1
    14    12     9    1
    15     8     9   am
    16     8     1    1
    17     2     1    2
    18     2     3    1
    19    18    21    2
    20     9    10    1
    21    19    20    2
    22     1     7    1
    23     3     4    2
    24    21    20    1
    25     7     6    2
    26     4     5    1
    27     4     6    1
    28     6    26    1
    29    26    27    2
    30    26    28    2
    31    26    29    1
    32    30    29    1
    33    29    31    1
    34    31    32    2
    35    31    36    1
    36    32    33    1
    37    36    35    2
    38    33    34    2
    39    35    34    1
