@<TRIPOS>MOLECULE
77198_out_ligand_01.pdbqt
 24 26 0 0 0
SMALL
GASTEIGER

@<TRIPOS>ATOM
      1  C         17.5240  -23.1350   -6.2400 C.2     1  UNL1        0.0360
      2  C         17.6610  -24.0720   -7.2780 C.2     1  UNL1        0.0300
      3  C         18.7510  -24.0370   -8.1560 C.2     1  UNL1        0.0130
      4  C         19.7380  -23.0600   -8.0190 C.2     1  UNL1       -0.0350
      5  C         19.6210  -22.1150   -7.0010 C.2     1  UNL1        0.0130
      6  C         18.5290  -22.1560   -6.1260 C.2     1  UNL1        0.0300
      7  C         20.8710  -23.0330   -8.9480 C.3     1  UNL1        0.0230
      8  C         20.8610  -22.4310  -10.1470 C.2     1  UNL1       -0.0240
      9  C         19.7740  -21.6840  -10.7620 C.3     1  UNL1        0.0130
     10  C         21.9880  -22.4030  -11.0870 C.2     1  UNL1       -0.0160
     11  C         20.1560  -21.2280  -11.9670 C.2     1  UNL1        0.0130
     12  C         21.5330  -21.6630  -12.1930 C.2     1  UNL1       -0.0250
     13  C         22.3510  -21.4380  -13.2870 C.2     1  UNL1        0.0120
     14  C         23.6450  -21.9660  -13.2610 C.2     1  UNL1        0.0010
     15  C         24.0980  -22.7050  -12.1560 C.2     1  UNL1        0.0010
     16  C         23.2670  -22.9300  -11.0540 C.2     1  UNL1        0.0130
     17  N         16.4290  -23.1360   -5.3350 N.pl3   1  UNL1       -0.3270
     18  C         15.1020  -23.0040   -5.9410 C.3     1  UNL1        0.1590
     19  C         16.5530  -23.5620   -4.0300 C.cat   1  UNL1        0.1720
     20  N         17.4350  -24.3690   -3.5400 N.pl3   1  UNL1       -0.2730
     21  N         15.6430  -23.0730   -3.1550 N.pl3   1  UNL1       -0.2720
     22  H         18.0290  -24.6930   -4.3090 H       1  UNL1        0.1890
     23  H         15.5470  -22.0680   -3.2200 H       1  UNL1        0.1270
     24  H         15.9210  -23.3440   -2.2150 H       1  UNL1        0.1270
@<TRIPOS>BOND
     1    13    14    2
     2    13    12    1
     3    14    15    1
     4    12    11    2
     5    12    10    1
     6    15    16    2
     7    11     9    1
     8    10    16    1
     9    10     8    2
    10     9     8    1
    11     8     7    1
    12     7     4    1
    13     3     4    2
    14     3     2    1
    15     4     5    1
    16     2     1    2
    17     5     6    2
    18     1     6    1
    19     1    17    1
    20    18    17    1
    21    17    19    1
    22    22    20    1
    23    19    20    2
    24    19    21    1
    25    23    21    1
    26    21    24    1
