@<TRIPOS>MOLECULE
77192_out_ligand_01.pdbqt
 32 35 0 0 0
SMALL
GASTEIGER

@<TRIPOS>ATOM
      1  C         25.1750  -22.6290  -13.3400 C.2     1  UNL1        0.0340
      2  C         26.2170  -21.7960  -12.9130 C.2     1  UNL1        0.0170
      3  C         26.1380  -21.1760  -11.6680 C.2     1  UNL1        0.0030
      4  C         25.0250  -21.3900  -10.8530 C.2     1  UNL1        0.0290
      5  C         23.9800  -22.2300  -11.2640 C.2     1  UNL1        0.0350
      6  C         24.0660  -22.8520  -12.5110 C.2     1  UNL1        0.0460
      7  N         22.8960  -22.3800  -10.3740 N.am    1  UNL1       -0.3230
      8  C         22.8080  -23.2360   -9.2910 C.2     1  UNL1        0.2560
      9  O         23.6790  -23.9880   -8.8730 O.2     1  UNL1       -0.2670
     10  H         22.1230  -21.7430  -10.5140 H       1  UNL1        0.1690
     11  C         21.5120  -23.1850   -8.5570 C.2     1  UNL1        0.0320
     12  C         21.2060  -22.1470   -7.6700 C.2     1  UNL1        0.0180
     13  C         19.9750  -22.1390   -7.0040 C.2     1  UNL1        0.0130
     14  C         19.0260  -23.1540   -7.2150 C.2     1  UNL1       -0.0260
     15  C         19.3450  -24.1780   -8.1220 C.2     1  UNL1        0.0130
     16  C         20.5720  -24.1920   -8.7920 C.2     1  UNL1        0.0180
     17  C         17.7320  -23.1370   -6.5130 C.2     1  UNL1       -0.0260
     18  C         16.5950  -22.5610   -7.1050 C.2     1  UNL1        0.0120
     19  C         15.3670  -22.5430   -6.4400 C.2     1  UNL1        0.0010
     20  C         15.2530  -23.1030   -5.1710 C.2     1  UNL1        0.0000
     21  C         16.3660  -23.6810   -4.5660 C.2     1  UNL1        0.0010
     22  C         17.5950  -23.6960   -5.2320 C.2     1  UNL1        0.0120
     23  C         25.2290  -23.3090  -14.6630 C.2     1  UNL1        0.2510
     24  O         25.8770  -24.3390  -14.8120 O.2     1  UNL1       -0.2680
     25  N         24.4880  -22.7290  -15.6720 N.am    1  UNL1       -0.3540
     26  H         23.7400  -22.1000  -15.4060 H       1  UNL1        0.1620
     27  C         24.3030  -23.4190  -16.9390 C.3     1  UNL1        0.1550
     28  C         24.7700  -22.5550  -18.1210 C.3     1  UNL1        0.1390
     29  C         26.2810  -22.3710  -18.1530 C.3     1  UNL1        0.0350
     30  C         26.4800  -21.0840  -17.3910 C.3     1  UNL1        0.0290
     31  C         25.2650  -20.2890  -17.8070 C.3     1  UNL1        0.1680
     32  O         24.1980  -21.2320  -17.9690 O.3     1  UNL1       -0.3840
@<TRIPOS>BOND
     1    29    28    1
     2    29    30    1
     3    28    32    1
     4    28    27    1
     5    32    31    1
     6    31    30    1
     7    27    25    1
     8    25    26    1
     9    25    23   am
    10    24    23    2
    11    23     1    1
    12     1     2    2
    13     1     6    1
    14     2     3    1
    15     6     5    2
    16     3     4    2
    17     5     4    1
    18     5     7    1
    19    10     7    1
    20     7     8   am
    21     8     9    2
    22     8    11    1
    23    16    11    2
    24    16    15    1
    25    11    12    1
    26    15    14    2
    27    12    13    2
    28    14    13    1
    29    14    17    1
    30    18    17    2
    31    18    19    1
    32    17    22    1
    33    19    20    2
    34    22    21    2
    35    20    21    1
