@<TRIPOS>MOLECULE
77219_out_ligand_01.pdbqt
 31 33 0 0 0
SMALL
GASTEIGER

@<TRIPOS>ATOM
      1  C         18.7340  -22.4180   -9.4300 C.2     1  UNL1        0.0550
      2  C         20.0500  -22.0900   -9.8280 C.2     1  UNL1        0.0480
      3  C         20.3340  -21.5410  -11.0860 C.2     1  UNL1        0.0360
      4  C         19.2830  -21.3150  -11.9670 C.2     1  UNL1        0.0310
      5  C         17.9730  -21.6210  -11.5910 C.2     1  UNL1        0.0270
      6  C         17.6900  -22.1660  -10.3310 C.2     1  UNL1        0.0490
      7 CL         16.0160  -22.4610  -10.0080 Cl      1  UNL1       -0.0830
      8  N         21.6840  -21.2290  -11.3620 N.am    1  UNL1       -0.3230
      9  C         22.7210  -22.1140  -11.5780 C.2     1  UNL1        0.2570
     10  O         22.6640  -23.3340  -11.4670 O.2     1  UNL1       -0.2670
     11  H         21.8810  -20.2340  -11.4730 H       1  UNL1        0.1690
     12  C         24.0460  -21.5300  -11.9370 C.2     1  UNL1        0.0490
     13  C         25.0040  -21.4720  -10.9120 C.2     1  UNL1        0.0180
     14  C         26.2990  -21.0170  -11.1660 C.2     1  UNL1        0.0010
     15  C         26.6610  -20.6290  -12.4530 C.2     1  UNL1        0.0010
     16  C         25.7260  -20.6930  -13.4860 C.2     1  UNL1        0.0190
     17  C         24.4220  -21.1390  -13.2280 C.2     1  UNL1        0.0530
     18  C         23.4850  -21.1630  -14.3550 C.2     1  UNL1        0.1770
     19  O         23.4960  -21.9880  -15.2500 O.2     1  UNL1       -0.6460
     20  O         22.6160  -20.1450  -14.2920 O.3     1  UNL1       -0.7730
     21  H         22.9290  -19.5000  -14.9620 H       1  UNL1        0.1670
     22  C         18.6070  -23.0070   -8.0560 C.2     1  UNL1        0.2530
     23  O         19.0350  -24.1370   -7.8400 O.2     1  UNL1       -0.2680
     24  N         17.9840  -22.2670   -7.0770 N.am    1  UNL1       -0.3520
     25  H         17.5550  -21.3850   -7.3300 H       1  UNL1        0.1630
     26  C         17.6930  -22.8090   -5.7570 C.3     1  UNL1        0.0840
     27  C         16.1990  -23.1410   -5.6270 C.3     1  UNL1        0.0250
     28  C         15.8540  -23.6380   -4.2250 C.3     1  UNL1        0.0020
     29  C         16.2940  -22.6470   -3.1530 C.3     1  UNL1        0.0000
     30  C         17.7780  -22.3150   -3.2720 C.3     1  UNL1        0.0020
     31  C         18.1340  -21.8210   -4.6710 C.3     1  UNL1        0.0250
@<TRIPOS>BOND
     1    19    18    2
     2    21    20    1
     3    18    20    1
     4    18    17    1
     5    16    17    1
     6    16    15    2
     7    17    12    2
     8    15    14    1
     9     4     5    2
    10     4     3    1
    11    12     9    1
    12    12    13    1
    13     5     6    1
    14     9    10    2
    15     9     8   am
    16    11     8    1
    17     8     3    1
    18    14    13    2
    19     3     2    2
    20     6     7    1
    21     6     1    2
    22     2     1    1
    23     1    22    1
    24    22    23    2
    25    22    24   am
    26    25    24    1
    27    24    26    1
    28    26    27    1
    29    26    31    1
    30    27    28    1
    31    31    30    1
    32    28    29    1
    33    30    29    1
