@<TRIPOS>MOLECULE
77245_out_ligand_01.pdbqt
 33 36 0 0 0
SMALL
GASTEIGER

@<TRIPOS>ATOM
      1  N         21.0950  -23.0100   -9.4330 N.am    1  UNL1       -0.3260
      2  C         20.3600  -24.0910   -8.9470 C.2     1  UNL1        0.2350
      3  O         20.7940  -25.2330   -8.8200 O.2     1  UNL1       -0.2720
      4  H         20.6400  -22.1040   -9.3980 H       1  UNL1        0.1690
      5  C         22.4320  -23.0030   -9.8810 C.2     1  UNL1        0.0350
      6  C         23.5100  -23.4930   -9.1420 C.2     1  UNL1        0.0290
      7  C         24.8090  -23.4450   -9.6600 C.2     1  UNL1        0.0030
      8  C         25.0430  -22.9160  -10.9270 C.2     1  UNL1        0.0170
      9  C         23.9690  -22.4390  -11.6850 C.2     1  UNL1        0.0340
     10  C         22.6720  -22.4740  -11.1550 C.2     1  UNL1        0.0460
     11  C         24.1570  -21.8640  -13.0440 C.2     1  UNL1        0.2510
     12  O         23.1910  -21.4150  -13.6520 O.2     1  UNL1       -0.2680
     13  N         25.4430  -21.8970  -13.5460 N.am    1  UNL1       -0.3540
     14  H         26.1220  -22.4800  -13.0770 H       1  UNL1        0.1620
     15  C         25.7020  -21.5740  -14.9410 C.3     1  UNL1        0.1550
     16  C         25.9960  -22.8300  -15.7860 C.3     1  UNL1        0.1390
     17  C         26.2900  -22.4920  -17.2390 C.3     1  UNL1        0.0350
     18  C         24.9120  -22.4770  -17.8560 C.3     1  UNL1        0.0290
     19  C         24.1970  -23.5690  -17.0870 C.3     1  UNL1        0.1680
     20  O         24.8520  -23.7030  -15.8180 O.3     1  UNL1       -0.3840
     21  C         18.9000  -23.6950   -8.6040 C.3     1  UNL1        0.1440
     22  C         18.6980  -23.1840   -7.1810 C.2     1  UNL1       -0.0410
     23  C         19.2180  -21.9510   -6.7560 C.2     1  UNL1        0.0080
     24  C         18.9990  -21.4910   -5.4560 C.2     1  UNL1        0.0010
     25  C         18.2510  -22.2530   -4.5620 C.2     1  UNL1        0.0000
     26  C         17.7220  -23.4760   -4.9660 C.2     1  UNL1        0.0010
     27  C         17.9420  -23.9380   -6.2660 C.2     1  UNL1        0.0080
     28  C         18.2750  -22.7630   -9.6440 C.2     1  UNL1       -0.0410
     29  C         19.0010  -22.2970  -10.7520 C.2     1  UNL1        0.0080
     30  C         18.4040  -21.4500  -11.6880 C.2     1  UNL1        0.0010
     31  C         17.0810  -21.0480  -11.5230 C.2     1  UNL1        0.0000
     32  C         16.3530  -21.4870  -10.4210 C.2     1  UNL1        0.0010
     33  C         16.9460  -22.3360   -9.4830 C.2     1  UNL1        0.0080
@<TRIPOS>BOND
     1    18    17    1
     2    18    19    1
     3    17    16    1
     4    19    20    1
     5    20    16    1
     6    16    15    1
     7    15    13    1
     8    12    11    2
     9    13    14    1
    10    13    11   am
    11    11     9    1
    12    30    31    2
    13    30    29    1
    14     9    10    1
    15     9     8    2
    16    31    32    1
    17    10     5    2
    18     8     7    1
    19    29    28    2
    20    32    33    2
    21     5     1    1
    22     5     6    1
    23     7     6    2
    24    28    33    1
    25    28    21    1
    26     1     4    1
    27     1     2   am
    28     2     3    2
    29     2    21    1
    30    21    22    1
    31    22    23    2
    32    22    27    1
    33    23    24    1
    34    27    26    2
    35    24    25    2
    36    26    25    1
