@<TRIPOS>MOLECULE
77264_out_ligand_01.pdbqt
 28 30 0 0 0
SMALL
GASTEIGER

@<TRIPOS>ATOM
      1  S         16.8040  -23.6380   -8.2850 S.O2    1  UNL1        0.2640
      2  O         15.8680  -23.6860   -9.3890 O.2     1  UNL1       -0.2000
      3  O         16.8330  -24.6670   -7.2680 O.2     1  UNL1       -0.2000
      4  C         18.4710  -23.5440   -8.9300 C.2     1  UNL1        0.0910
      5  C         19.4350  -24.3900   -8.3620 C.2     1  UNL1        0.0290
      6  C         20.7600  -24.3240   -8.7780 C.2     1  UNL1        0.0390
      7  C         21.1400  -23.4200   -9.7710 C.2     1  UNL1        0.0790
      8  C         20.1730  -22.5730  -10.3770 C.2     1  UNL1        0.0090
      9  C         20.5390  -21.6640  -11.3970 C.2     1  UNL1        0.0150
     10  C         18.8100  -22.6340   -9.9690 C.2     1  UNL1        0.0000
     11  C         19.6090  -20.8400  -12.0250 C.2     1  UNL1        0.0010
     12  C         18.2790  -20.9100  -11.6520 C.2     1  UNL1        0.0010
     13  C         17.8850  -21.7940  -10.6460 C.2     1  UNL1        0.0140
     14  O         22.4330  -23.2890  -10.2250 O.2     1  UNL1       -0.3550
     15  C         23.4790  -23.2790   -9.2630 C.3     1  UNL1        0.2100
     16  N         16.5810  -22.1770   -7.4790 N.pl3   1  UNL1       -0.2800
     17  H         16.5320  -21.3950   -8.1520 H       1  UNL1        0.1790
     18  C         17.2180  -21.8660   -6.2260 C.2     1  UNL1        0.0580
     19  C         18.5460  -21.4180   -6.1720 C.2     1  UNL1        0.0310
     20  C         19.1750  -21.1790   -4.9470 C.2     1  UNL1        0.0020
     21  C         18.4960  -21.4050   -3.7550 C.2     1  UNL1        0.0010
     22  C         17.1910  -21.8930   -3.7850 C.2     1  UNL1        0.0190
     23  C         16.5550  -22.1560   -5.0120 C.2     1  UNL1        0.0590
     24  C         15.1710  -22.7160   -5.0250 C.2     1  UNL1        0.2510
     25  N         15.0000  -24.0290   -4.6810 N.am    1  UNL1       -0.3660
     26  H         14.0680  -24.4030   -4.8130 H       1  UNL1        0.1590
     27  H         15.7610  -24.6940   -4.6600 H       1  UNL1        0.1590
     28  O         14.2070  -22.0440   -5.3770 O.2     1  UNL1       -0.2680
@<TRIPOS>BOND
     1    11    12    1
     2    11     9    2
     3    12    13    2
     4     9     8    1
     5    13    10    1
     6     8    10    1
     7     8     7    2
     8    14     7    1
     9    14    15    1
    10    10     4    2
    11     7     6    1
    12     2     1    2
    13     4     5    1
    14     4     1    1
    15     6     5    2
    16     1    16    1
    17     1     3    2
    18    17    16    1
    19    16    18    1
    20    18    19    2
    21    18    23    1
    22    19    20    1
    23    28    24    2
    24    24    23    1
    25    24    25   am
    26    23    22    2
    27    20    21    2
    28    26    25    1
    29    25    27    1
    30    22    21    1
