@<TRIPOS>MOLECULE
77263_out_ligand_01.pdbqt
 34 37 0 0 0
SMALL
GASTEIGER

@<TRIPOS>ATOM
      1  C         22.4360  -22.0360  -10.3780 C.2     1  UNL1        0.0350
      2  C         22.2150  -22.1340  -11.7590 C.2     1  UNL1        0.0310
      3  C         23.2550  -21.9190  -12.6680 C.2     1  UNL1        0.0270
      4  C         24.5300  -21.6110  -12.1920 C.2     1  UNL1        0.0750
      5  C         24.7620  -21.4920  -10.8210 C.2     1  UNL1        0.0270
      6  C         23.7150  -21.7120   -9.9170 C.2     1  UNL1        0.0310
      7  N         21.3330  -22.2710   -9.5370 N.am    1  UNL1       -0.3210
      8  C         21.0520  -23.3930   -8.7770 C.2     1  UNL1        0.2800
      9  O         21.7430  -24.4040   -8.7190 O.2     1  UNL1       -0.2650
     10  H         20.6410  -21.5340   -9.4660 H       1  UNL1        0.1690
     11  C         19.8090  -23.2560   -8.0290 C.ar    1  UNL1        0.1500
     12  O         18.7790  -24.1180   -8.3070 O.2     1  UNL1       -0.3040
     13  C         17.7440  -23.7920   -7.4880 C.ar    1  UNL1        0.0870
     14  C         16.5100  -24.4350   -7.4590 C.2     1  UNL1        0.0390
     15  C         18.0880  -22.7220   -6.6750 C.ar    1  UNL1        0.0070
     16  C         15.5730  -23.9480   -6.5410 C.2     1  UNL1        0.0100
     17  C         15.8640  -22.8650   -5.6990 C.2     1  UNL1       -0.0580
     18  C         17.1300  -22.2480   -5.7580 C.2     1  UNL1        0.0220
     19  C         19.4300  -22.3740   -7.0250 C.ar    1  UNL1       -0.0090
     20  C         20.2620  -21.2890   -6.4430 C.3     1  UNL1        0.0520
     21  C         14.8350  -22.3770   -4.7080 C.3     1  UNL1        0.0340
     22  C         13.7290  -21.5840   -5.3870 C.3     1  UNL1        0.0100
     23  S         25.8410  -21.3040  -13.3500 S.O2    1  UNL1        0.2480
     24  O         26.4050  -22.5650  -13.7850 O.2     1  UNL1       -0.2050
     25  O         26.6930  -20.3000  -12.7420 O.2     1  UNL1       -0.2050
     26  N         25.0830  -20.5450  -14.6190 N.pl3   1  UNL1       -0.1480
     27  H         25.1770  -19.5370  -14.6020 H       1  UNL1        0.1490
     28  C         25.2670  -21.0870  -15.8850 C.cat   1  UNL1        0.2150
     29  N         26.4040  -20.8460  -16.5350 N.2     1  UNL1       -0.2300
     30  C         26.5680  -21.5270  -17.6820 C.2     1  UNL1        0.1220
     31  C         25.6610  -22.4490  -18.1520 C.2     1  UNL1        0.0460
     32  C         24.5450  -22.6600  -17.3650 C.2     1  UNL1        0.0350
     33  C         23.5060  -23.6590  -17.7790 C.3     1  UNL1        0.0700
     34  N         24.3420  -21.9970  -16.2080 N.2     1  UNL1       -0.2230
@<TRIPOS>BOND
     1    31    30    2
     2    31    32    1
     3    33    32    1
     4    30    29    1
     5    32    34    2
     6    29    28    2
     7    34    28    1
     8    28    26    1
     9    26    27    1
    10    26    23    1
    11    24    23    2
    12    23    25    2
    13    23     4    1
    14     3     4    2
    15     3     2    1
    16     4     5    1
    17     2     1    2
    18     5     6    2
    19     1     6    1
    20     1     7    1
    21     7    10    1
    22     7     8   am
    23     8     9    2
    24     8    11    1
    25    12    11   ar
    26    12    13   ar
    27    11    19   ar
    28    13    14    2
    29    13    15   ar
    30    14    16    1
    31    19    15   ar
    32    19    20    1
    33    15    18    2
    34    16    17    2
    35    18    17    1
    36    17    21    1
    37    22    21    1
