@<TRIPOS>MOLECULE
77266_out_ligand_01.pdbqt
 34 37 0 0 0
SMALL
GASTEIGER

@<TRIPOS>ATOM
      1  C         23.8810  -21.7820  -11.7830 C.2     1  UNL1        0.0800
      2  C         24.0690  -21.7630  -10.4020 C.2     1  UNL1        0.0270
      3  C         22.9730  -21.9530   -9.5560 C.2     1  UNL1        0.0310
      4  C         21.6880  -22.1530  -10.0800 C.2     1  UNL1        0.0350
      5  C         21.5130  -22.1550  -11.4670 C.2     1  UNL1        0.0310
      6  C         22.6050  -21.9660  -12.3200 C.2     1  UNL1        0.0270
      7  N         20.6430  -22.3340   -9.1540 N.am    1  UNL1       -0.3210
      8  C         20.2110  -23.5070   -8.5600 C.2     1  UNL1        0.2800
      9  O         20.6920  -24.6190   -8.7500 O.2     1  UNL1       -0.2650
     10  H         20.1300  -21.5060   -8.8720 H       1  UNL1        0.1690
     11  C         19.0930  -23.2880   -7.6530 C.ar    1  UNL1        0.1500
     12  O         17.9890  -24.0960   -7.7630 O.2     1  UNL1       -0.3040
     13  C         17.0970  -23.6980   -6.8200 C.ar    1  UNL1        0.0870
     14  C         15.8440  -24.2720   -6.6060 C.2     1  UNL1        0.0410
     15  C         17.6080  -22.6320   -6.0890 C.ar    1  UNL1        0.0090
     16  C         15.0720  -23.7160   -5.5820 C.2     1  UNL1        0.0450
     17  C         15.5540  -22.6470   -4.8320 C.2     1  UNL1        0.1170
     18  F         14.7870  -22.1370   -3.8580 F       1  UNL1       -0.2060
     19  C         16.8130  -22.0870   -5.0640 C.2     1  UNL1        0.0570
     20  C         18.9030  -22.3650   -6.6300 C.ar    1  UNL1       -0.0090
     21  C         19.8650  -21.3190   -6.1980 C.3     1  UNL1        0.0520
     22  S         25.2560  -21.5150  -12.8750 S.O2    1  UNL1        0.2760
     23  O         26.0790  -20.4970  -12.2510 O.2     1  UNL1       -0.2000
     24  O         25.8350  -22.7920  -13.2360 O.2     1  UNL1       -0.2000
     25  N         24.5740  -20.7980  -14.2070 N.pl3   1  UNL1       -0.1090
     26  H         24.6050  -19.7850  -14.1890 H       1  UNL1        0.1980
     27  C         24.8750  -21.3360  -15.4500 C.cat   1  UNL1        0.7360
     28  N         24.0930  -22.2930  -15.9490 N.2     1  UNL1       -0.0670
     29  C         24.3470  -22.6620  -17.2200 C.2     1  UNL1        0.0510
     30  C         25.3270  -22.0560  -17.9820 C.2     1  UNL1        0.0540
     31  C         23.5100  -23.7620  -17.7970 C.3     1  UNL1        0.0710
     32  C         26.0410  -21.0350  -17.3790 C.2     1  UNL1        0.0510
     33  C         27.1090  -20.3100  -18.1400 C.3     1  UNL1        0.0710
     34  N         25.8100  -20.6470  -16.1100 N.2     1  UNL1       -0.0670
@<TRIPOS>BOND
     1    33    32    1
     2    30    32    1
     3    30    29    2
     4    31    29    1
     5    32    34    2
     6    29    28    1
     7    34    27    1
     8    28    27    2
     9    27    25    1
    10    25    26    1
    11    25    22    1
    12    24    22    2
    13    22    23    2
    14    22     1    1
    15     6     1    2
    16     6     5    1
    17     1     2    1
    18     5     4    2
    19     2     3    2
    20     4     3    1
    21     4     7    1
    22     7    10    1
    23     7     8   am
    24     9     8    2
    25     8    11    1
    26    12    11   ar
    27    12    13   ar
    28    11    20   ar
    29    13    14    2
    30    13    15   ar
    31    20    21    1
    32    20    15   ar
    33    14    16    1
    34    15    19    2
    35    16    17    2
    36    19    17    1
    37    17    18    1
