@<TRIPOS>MOLECULE
77265_out_ligand_01.pdbqt
 30 32 0 0 0
SMALL
GASTEIGER

@<TRIPOS>ATOM
      1  S         16.7010  -24.0400   -7.5650 S.O2    1  UNL1        0.2640
      2  O         15.6130  -24.3030   -8.4830 O.2     1  UNL1       -0.2000
      3  O         17.0310  -24.9570   -6.4970 O.2     1  UNL1       -0.2000
      4  C         18.2110  -23.8110   -8.4990 C.2     1  UNL1        0.0910
      5  C         19.3270  -24.5740   -8.1180 C.2     1  UNL1        0.0290
      6  C         20.5480  -24.3770   -8.7430 C.2     1  UNL1        0.0390
      7  C         20.6590  -23.4170   -9.7450 C.2     1  UNL1        0.0800
      8  C         19.5420  -22.6840  -10.2020 C.2     1  UNL1        0.0090
      9  C         19.6510  -21.7780  -11.2790 C.2     1  UNL1        0.0150
     10  C         18.2820  -22.8740   -9.5710 C.2     1  UNL1        0.0000
     11  C         18.5550  -21.0520  -11.7390 C.2     1  UNL1        0.0010
     12  C         17.3210  -21.2280  -11.1380 C.2     1  UNL1        0.0010
     13  C         17.1850  -22.1280  -10.0780 C.2     1  UNL1        0.0140
     14  O         21.9010  -23.2580  -10.3120 O.2     1  UNL1       -0.3500
     15  C         22.9040  -23.1150   -9.2970 C.3     1  UNL1        0.1750
     16  C         22.9640  -21.6410   -8.9060 C.3     1  UNL1        0.0220
     17  C         22.2740  -21.3790   -7.5820 C.3     1  UNL1        0.0070
     18  N         16.4230  -22.5470   -6.8490 N.pl3   1  UNL1       -0.2800
     19  H         15.9890  -21.8800   -7.5110 H       1  UNL1        0.1790
     20  C         17.2670  -21.9630   -5.8420 C.2     1  UNL1        0.0580
     21  C         18.5310  -21.4400   -6.1530 C.2     1  UNL1        0.0310
     22  C         19.3680  -20.9370   -5.1540 C.2     1  UNL1        0.0020
     23  C         18.9650  -20.9610   -3.8250 C.2     1  UNL1        0.0010
     24  C         17.7290  -21.5130   -3.4870 C.2     1  UNL1        0.0190
     25  C         16.8880  -22.0440   -4.4820 C.2     1  UNL1        0.0590
     26  C         15.5890  -22.6730   -4.0970 C.2     1  UNL1        0.2510
     27  N         15.5790  -24.0120   -3.8060 N.am    1  UNL1       -0.3660
     28  H         16.3320  -24.6340   -4.0600 H       1  UNL1        0.1590
     29  H         14.6680  -24.4280   -3.6590 H       1  UNL1        0.1590
     30  O         14.5410  -22.0370   -4.0820 O.2     1  UNL1       -0.2680
@<TRIPOS>BOND
     1    11     9    2
     2    11    12    1
     3     9     8    1
     4    12    13    2
     5    14     7    1
     6    14    15    1
     7     8     7    2
     8     8    10    1
     9    13    10    1
    10     7     6    1
    11    10     4    2
    12    15    16    1
    13    16    17    1
    14     6     5    2
    15     4     5    1
    16     4     1    1
    17     2     1    2
    18     1    18    1
    19     1     3    2
    20    19    18    1
    21    18    20    1
    22    21    20    2
    23    21    22    1
    24    20    25    1
    25    22    23    2
    26    25    26    1
    27    25    24    2
    28    26    30    2
    29    26    27   am
    30    28    27    1
    31    23    24    1
    32    27    29    1
