@<TRIPOS>MOLECULE
77272_out_ligand_01.pdbqt
 30 32 0 0 0
SMALL
GASTEIGER

@<TRIPOS>ATOM
      1  C         16.6830  -21.0350  -11.0490 C.3     1  UNL1        0.0500
      2  C         18.0770  -21.5720  -10.8800 C.2     1  UNL1       -0.0390
      3  C         19.0810  -21.0800  -11.7330 C.2     1  UNL1        0.0090
      4  C         20.3990  -21.5350  -11.6400 C.2     1  UNL1        0.0170
      5  C         20.7350  -22.5120  -10.7000 C.2     1  UNL1        0.0330
      6  C         19.7540  -23.0160   -9.8430 C.2     1  UNL1        0.0420
      7  C         18.4310  -22.5500   -9.9280 C.2     1  UNL1        0.0860
      8  S         17.2400  -23.2790   -8.8040 S.O2    1  UNL1        0.2630
      9  O         16.0920  -23.7150   -9.5700 O.2     1  UNL1       -0.2000
     10  O         17.9440  -24.2190   -7.9580 O.2     1  UNL1       -0.2000
     11  N         16.7240  -21.9680   -7.8780 N.pl3   1  UNL1       -0.2800
     12  H         17.0420  -21.0730   -8.2380 H       1  UNL1        0.1790
     13  C         16.5250  -22.1240   -6.4740 C.2     1  UNL1        0.0490
     14  C         15.2660  -22.5360   -6.0250 C.2     1  UNL1        0.0310
     15  C         15.0430  -22.7820   -4.6760 C.2     1  UNL1        0.0030
     16  C         16.0800  -22.6220   -3.7630 C.2     1  UNL1        0.0070
     17  C         17.3510  -22.2030   -4.1880 C.2     1  UNL1       -0.0540
     18  C         18.4360  -22.0530   -3.1540 C.3     1  UNL1        0.0490
     19  C         17.5780  -21.9190   -5.5580 C.2     1  UNL1       -0.0290
     20  C         18.9480  -21.4810   -6.0070 C.3     1  UNL1        0.0510
     21  C         22.1310  -23.0110  -10.5600 C.2     1  UNL1        0.2560
     22  O         22.4120  -23.6700   -9.5670 O.2     1  UNL1       -0.2670
     23  N         22.9670  -22.6860  -11.6130 N.am    1  UNL1       -0.3230
     24  H         22.5420  -22.2470  -12.4190 H       1  UNL1        0.1690
     25  C         24.3410  -22.9810  -11.7350 C.2     1  UNL1        0.0350
     26  C         24.7400  -23.7180  -12.8570 C.2     1  UNL1        0.0290
     27  C         26.0850  -24.0460  -13.0560 C.2     1  UNL1        0.0020
     28  C         27.0430  -23.6360  -12.1350 C.2     1  UNL1        0.0000
     29  C         26.6580  -22.9000  -11.0170 C.2     1  UNL1        0.0020
     30  C         25.3120  -22.5720  -10.8190 C.2     1  UNL1        0.0290
@<TRIPOS>BOND
     1    27    26    1
     2    27    28    2
     3    26    25    2
     4    24    23    1
     5    28    29    1
     6    25    23    1
     7    25    30    1
     8     3     4    1
     9     3     2    2
    10     4     5    2
    11    23    21   am
    12     1     2    1
    13    29    30    2
    14     2     7    1
    15     5    21    1
    16     5     6    1
    17    21    22    2
    18     7     6    2
    19     7     8    1
    20     9     8    2
    21     8    10    2
    22     8    11    1
    23    12    11    1
    24    11    13    1
    25    13    14    2
    26    13    19    1
    27    14    15    1
    28    20    19    1
    29    19    17    2
    30    15    16    2
    31    17    16    1
    32    17    18    1
