@<TRIPOS>MOLECULE
77274_out_ligand_01.pdbqt
 27 30 0 0 0
SMALL
GASTEIGER

@<TRIPOS>ATOM
      1  C         17.7240  -22.3530  -10.3930 C.2     1  UNL1       -0.0400
      2  C         18.0760  -21.2890  -11.2310 C.2     1  UNL1        0.0100
      3  C         19.4050  -21.1130  -11.6340 C.2     1  UNL1        0.0160
      4  C         20.4110  -21.9910  -11.2040 C.2     1  UNL1        0.0170
      5  C         20.0530  -23.0500  -10.3590 C.2     1  UNL1        0.0160
      6  C         18.7260  -23.2300   -9.9560 C.2     1  UNL1        0.0100
      7  C         16.3010  -22.5380   -9.9290 C.3     1  UNL1        0.1610
      8  N         16.1980  -22.3120   -8.5060 N.am    1  UNL1       -0.3530
      9  C         16.1620  -23.3630   -7.6180 C.2     1  UNL1        0.2530
     10  O         16.0480  -24.5400   -7.9270 O.2     1  UNL1       -0.2680
     11  H         16.4520  -21.3960   -8.1620 H       1  UNL1        0.1630
     12  C         16.2650  -22.9680   -6.1990 C.2     1  UNL1        0.0490
     13  C         15.1190  -23.0900   -5.4000 C.2     1  UNL1        0.0180
     14  C         15.1710  -22.7390   -4.0500 C.2     1  UNL1        0.0010
     15  C         16.3610  -22.2670   -3.5000 C.2     1  UNL1        0.0010
     16  C         17.5040  -22.1440   -4.2960 C.2     1  UNL1        0.0200
     17  C         17.4610  -22.4940   -5.6490 C.2     1  UNL1        0.0260
     18 BR         19.0380  -22.2440   -6.6740 Br      1  UNL1       -0.0500
     19  C         21.8060  -21.8280  -11.6080 C.2     1  UNL1        0.1820
     20  N         22.3040  -21.6880  -12.8250 N.2     1  UNL1       -0.2010
     21  C         23.6460  -21.5770  -12.6100 C.2     1  UNL1        0.1860
     22  N         24.6030  -21.4150  -13.5530 N.2     1  UNL1       -0.2390
     23  C         23.9220  -21.6540  -11.2570 C.2     1  UNL1        0.1250
     24  C         25.8560  -21.3330  -13.0470 C.2     1  UNL1        0.1190
     25  C         26.2000  -21.4030  -11.6950 C.3     1  UNL1        0.0220
     26  C         25.2020  -21.5720  -10.7340 C.2     1  UNL1        0.0430
     27  O         22.7420  -21.8170  -10.5970 O.2     1  UNL1       -0.2870
@<TRIPOS>BOND
     1    22    24    2
     2    22    21    1
     3    24    25    1
     4    20    21    2
     5    20    19    2
     6    21    23    1
     7    25    26    1
     8     3     2    1
     9     3     4    2
    10    19     4    1
    11    19    27    1
    12    23    26    2
    13    23    27    1
    14     2     1    2
    15     4     5    1
    16     1     6    1
    17     1     7    1
    18     5     6    2
    19     7     8    1
    20     8    11    1
    21     8     9   am
    22    10     9    2
    23     9    12    1
    24    18    17    1
    25    12    17    2
    26    12    13    1
    27    17    16    1
    28    13    14    2
    29    16    15    2
    30    14    15    1
