@<TRIPOS>MOLECULE
7728_out_ligand_01.pdbqt
 34 37 0 0 0
SMALL
GASTEIGER

@<TRIPOS>ATOM
      1  S         16.1330  -22.4930   -9.3640 S.O2    1  UNL1        0.2720
      2  O         16.4110  -23.8800   -9.0490 O.2     1  UNL1       -0.2030
      3  O         14.8640  -22.1130   -9.9550 O.2     1  UNL1       -0.2030
      4  C         17.3740  -21.9730  -10.5150 C.ar    1  UNL1        0.2330
      5  N         17.4720  -20.7630  -11.0340 N.ar    1  UNL1       -0.1270
      6  N         18.6090  -20.6450  -11.8090 N.ar    1  UNL1       -0.1220
      7  C         19.3230  -21.7500  -11.8130 C.ar    1  UNL1        0.1970
      8  S         18.6500  -23.0310  -10.9150 S.2     1  UNL1       -0.0150
      9  N         20.5340  -21.8200  -12.4530 N.am    1  UNL1       -0.3000
     10  C         21.7590  -21.4700  -11.9380 C.2     1  UNL1        0.2570
     11  O         22.0120  -21.1390  -10.7870 O.2     1  UNL1       -0.2670
     12  H         20.4720  -22.2150  -13.3810 H       1  UNL1        0.1710
     13  C         22.8830  -21.5660  -12.9130 C.2     1  UNL1        0.0320
     14  C         22.9180  -20.7810  -14.0750 C.2     1  UNL1        0.0170
     15  C         23.9820  -20.9100  -14.9690 C.2     1  UNL1        0.0010
     16  C         25.0120  -21.8130  -14.7040 C.2     1  UNL1        0.0000
     17  C         24.9910  -22.5780  -13.5380 C.2     1  UNL1        0.0010
     18  C         23.9320  -22.4520  -12.6400 C.2     1  UNL1        0.0170
     19  N         16.3540  -21.6120   -7.9170 N.pl3   1  UNL1       -0.1790
     20  H         15.6680  -20.8400   -7.8970 H       1  UNL1        0.1460
     21  C         16.3290  -22.3740   -6.6950 C.2     1  UNL1        0.0370
     22  C         15.0940  -22.8400   -6.2380 C.2     1  UNL1        0.0250
     23  C         15.0150  -23.5950   -5.0680 C.2     1  UNL1        0.0020
     24  C         16.1710  -23.8970   -4.3530 C.2     1  UNL1        0.0010
     25  C         17.4100  -23.4270   -4.7940 C.2     1  UNL1        0.0170
     26  C         17.4970  -22.6340   -5.9490 C.2     1  UNL1        0.0370
     27  C         18.8110  -22.1150   -6.4220 C.2     1  UNL1        0.1940
     28  O         19.1750  -21.0020   -6.0420 O.2     1  UNL1       -0.2870
     29  C         19.7170  -22.8930   -7.3030 C.2     1  UNL1        0.0150
     30  C         19.4080  -24.1900   -7.7310 C.2     1  UNL1        0.0150
     31  C         20.3030  -24.8910   -8.5420 C.2     1  UNL1        0.0010
     32  C         21.5120  -24.3050   -8.9180 C.2     1  UNL1        0.0000
     33  C         21.8390  -23.0250   -8.4710 C.2     1  UNL1        0.0010
     34  C         20.9460  -22.3230   -7.6580 C.2     1  UNL1        0.0150
@<TRIPOS>BOND
     1    15    16    2
     2    15    14    1
     3    16    17    1
     4    14    13    2
     5    17    18    2
     6    12     9    1
     7    13    18    1
     8    13    10    1
     9     9    10   am
    10     9     7    1
    11    10    11    2
    12     7     6   ar
    13     7     8   ar
    14     6     5   ar
    15     5     4   ar
    16     8     4   ar
    17     4     1    1
    18     3     1    2
    19     1     2    2
    20     1    19    1
    21    32    31    2
    22    32    33    1
    23    31    30    1
    24    33    34    2
    25    19    20    1
    26    19    21    1
    27    30    29    2
    28    34    29    1
    29    29    27    1
    30    21    22    2
    31    21    26    1
    32    27    28    2
    33    27    26    1
    34    22    23    1
    35    26    25    2
    36    23    24    2
    37    25    24    1
