@<TRIPOS>MOLECULE
77284_out_ligand_01.pdbqt
 34 37 0 0 0
SMALL
GASTEIGER

@<TRIPOS>ATOM
      1  C         24.4250  -21.7650  -12.0530 C.2     1  UNL1        0.0800
      2  C         24.5790  -21.6370  -10.6720 C.2     1  UNL1        0.0270
      3  C         23.4660  -21.7660   -9.8340 C.2     1  UNL1        0.0310
      4  C         22.2020  -22.0320  -10.3680 C.2     1  UNL1        0.0350
      5  C         22.0660  -22.1710  -11.7580 C.2     1  UNL1        0.0310
      6  C         23.1730  -22.0430  -12.6010 C.2     1  UNL1        0.0270
      7  N         21.0350  -22.1770   -9.5960 N.am    1  UNL1       -0.3210
      8  C         20.5100  -23.3270   -9.0350 C.2     1  UNL1        0.2800
      9  O         21.0010  -24.4480   -9.1190 O.2     1  UNL1       -0.2650
     10  H         20.4950  -21.3380   -9.4150 H       1  UNL1        0.1690
     11  C         19.2760  -23.0740   -8.3040 C.ar    1  UNL1        0.1500
     12  O         19.2910  -23.1780   -6.9360 O.2     1  UNL1       -0.3040
     13  C         18.0370  -22.8980   -6.4930 C.ar    1  UNL1        0.0870
     14  C         17.6400  -22.8950   -5.1570 C.2     1  UNL1        0.0460
     15  C         17.1990  -22.6150   -7.5600 C.ar    1  UNL1        0.0080
     16  C         16.2950  -22.5830   -4.8840 C.2     1  UNL1       -0.0380
     17  C         15.8290  -22.5690   -3.4530 C.3     1  UNL1        0.0500
     18  C         15.4210  -22.2910   -5.9480 C.2     1  UNL1        0.0410
     19 CL         13.7600  -21.9020   -5.6600 Cl      1  UNL1       -0.0840
     20  C         15.8550  -22.3030   -7.2830 C.2     1  UNL1        0.0390
     21  C         18.0010  -22.7280   -8.7380 C.ar    1  UNL1       -0.0090
     22  C         17.5760  -22.5210  -10.1460 C.3     1  UNL1        0.0520
     23  S         25.8490  -21.6260  -13.1050 S.O2    1  UNL1        0.2760
     24  O         26.3340  -22.9500  -13.4310 O.2     1  UNL1       -0.2000
     25  O         26.7320  -20.6660  -12.4720 O.2     1  UNL1       -0.2000
     26  N         25.2660  -20.8800  -14.4680 N.pl3   1  UNL1       -0.1090
     27  H         25.5090  -19.8990  -14.5370 H       1  UNL1        0.1980
     28  C         25.3800  -21.5610  -15.6720 C.cat   1  UNL1        0.7360
     29  N         26.4470  -21.1960  -16.3870 N.2     1  UNL1       -0.0740
     30  C         26.5170  -21.7220  -17.6230 C.2     1  UNL1        0.1380
     31  C         25.5500  -22.5470  -18.1530 C.2     1  UNL1        0.0470
     32  C         24.4650  -22.8130  -17.3410 C.2     1  UNL1        0.0510
     33  C         23.3460  -23.6810  -17.8300 C.3     1  UNL1        0.0710
     34  N         24.3560  -22.3040  -16.0980 N.2     1  UNL1       -0.0670
@<TRIPOS>BOND
     1    31    30    2
     2    31    32    1
     3    33    32    1
     4    30    29    1
     5    32    34    2
     6    29    28    2
     7    34    28    1
     8    28    26    1
     9    27    26    1
    10    26    23    1
    11    24    23    2
    12    23    25    2
    13    23     1    1
    14     6     1    2
    15     6     5    1
    16     1     2    1
    17     5     4    2
    18     2     3    2
    19     4     3    1
    20     4     7    1
    21    22    21    1
    22     7    10    1
    23     7     8   am
    24     9     8    2
    25     8    11    1
    26    21    11   ar
    27    21    15   ar
    28    11    12   ar
    29    15    20    1
    30    15    13   ar
    31    20    18    2
    32    12    13   ar
    33    13    14    1
    34    18    19    1
    35    18    16    1
    36    14    16    2
    37    16    17    1
