@<TRIPOS>MOLECULE
77303_out_ligand_01.pdbqt
 30 32 0 0 0
SMALL
GASTEIGER

@<TRIPOS>ATOM
      1  C         19.5980  -22.1610   -9.9180 C.2     1  UNL1        0.0570
      2  C         20.9130  -22.6110   -9.7730 C.2     1  UNL1        0.0480
      3  C         21.8470  -22.4190  -10.8040 C.2     1  UNL1        0.0340
      4  C         21.4640  -21.7980  -11.9990 C.2     1  UNL1        0.0190
      5  C         20.1530  -21.3500  -12.1570 C.2     1  UNL1        0.0270
      6  C         19.2300  -21.5290  -11.1220 C.2     1  UNL1        0.0600
      7 CL         17.6160  -20.9460  -11.3670 Cl      1  UNL1       -0.0820
      8  N         18.6080  -22.3050   -8.9170 N.am    1  UNL1       -0.3250
      9  C         18.4410  -23.3370   -8.0120 C.2     1  UNL1        0.2300
     10  O         19.1640  -24.3240   -7.9070 O.2     1  UNL1       -0.2720
     11  H         17.9030  -21.5740   -8.9110 H       1  UNL1        0.1690
     12  C         17.2560  -23.1350   -7.0500 C.3     1  UNL1        0.1110
     13  C         16.4190  -24.4270   -6.9440 C.3     1  UNL1        0.0140
     14  C         15.6320  -24.7220   -8.2150 C.3     1  UNL1        0.0060
     15  C         17.7270  -22.5590   -5.7150 C.2     1  UNL1       -0.0450
     16  C         17.3610  -23.2280   -4.5320 C.2     1  UNL1        0.0080
     17  C         17.7370  -22.7340   -3.2820 C.2     1  UNL1        0.0010
     18  C         18.4820  -21.5620   -3.1920 C.2     1  UNL1        0.0000
     19  C         18.8520  -20.8860   -4.3520 C.2     1  UNL1        0.0010
     20  C         18.4780  -21.3790   -5.6040 C.2     1  UNL1        0.0080
     21  C         23.2330  -22.9210  -10.6130 C.2     1  UNL1        0.2520
     22  O         23.5510  -23.4630   -9.5630 O.2     1  UNL1       -0.2680
     23  N         24.0960  -22.7190  -11.6700 N.am    1  UNL1       -0.3520
     24  H         23.7750  -22.2230  -12.4890 H       1  UNL1        0.1630
     25  C         25.4650  -23.2210  -11.6490 C.3     1  UNL1        0.0840
     26  C         25.9100  -23.6700  -13.0490 C.3     1  UNL1        0.0250
     27  C         26.1290  -22.4930  -13.9980 C.3     1  UNL1        0.0020
     28  C         27.1060  -21.4780  -13.4130 C.3     1  UNL1        0.0000
     29  C         26.6670  -21.0000  -12.0340 C.3     1  UNL1        0.0020
     30  C         26.4250  -22.1690  -11.0780 C.3     1  UNL1        0.0250
@<TRIPOS>BOND
     1    27    28    1
     2    27    26    1
     3    28    29    1
     4    26    25    1
     5    24    23    1
     6     5     4    2
     7     5     6    1
     8    29    30    1
     9     4     3    1
    10    23    25    1
    11    23    21   am
    12    25    30    1
    13     7     6    1
    14     6     1    2
    15     3    21    1
    16     3     2    2
    17    21    22    2
    18     1     2    1
    19     1     8    1
    20     8    11    1
    21     8     9   am
    22    14    13    1
    23     9    10    2
    24     9    12    1
    25    12    13    1
    26    12    15    1
    27    15    20    2
    28    15    16    1
    29    20    19    1
    30    16    17    2
    31    19    18    2
    32    17    18    1
