@<TRIPOS>MOLECULE
77308_out_ligand_01.pdbqt
 30 32 0 0 0
SMALL
GASTEIGER

@<TRIPOS>ATOM
      1  N         20.5040  -23.1140   -7.9260 N.am    1  UNL1       -0.3270
      2  C         21.1230  -24.1660   -8.5830 C.2     1  UNL1        0.2310
      3  O         20.6540  -25.2860   -8.7510 O.2     1  UNL1       -0.2720
      4  H         20.9090  -22.1940   -8.0660 H       1  UNL1        0.1690
      5  C         22.4960  -23.8070   -9.1300 C.3     1  UNL1        0.1850
      6  S         22.6910  -22.0060   -9.2330 S.3     1  UNL1       -0.0800
      7  C         22.6110  -21.7320  -10.9420 C.ar    1  UNL1        0.2030
      8  N         23.6710  -21.6760  -11.7200 N.ar    1  UNL1       -0.1350
      9  N         23.2050  -21.6620  -13.0010 N.ar    1  UNL1        0.0190
     10  N         21.8840  -21.6860  -13.0240 N.ar    1  UNL1        0.0030
     11  N         21.4630  -21.6850  -11.7280 N.ar    1  UNL1       -0.2170
     12  C         20.0690  -21.6460  -11.4320 C.2     1  UNL1        0.0570
     13  C         19.4420  -22.8220  -10.9790 C.2     1  UNL1        0.0340
     14  C         18.0780  -22.8290  -10.6640 C.2     1  UNL1        0.0440
     15  C         17.3370  -21.6660  -10.8100 C.2     1  UNL1        0.1160
     16  F         16.0280  -21.6720  -10.5070 F       1  UNL1       -0.2060
     17  C         17.9300  -20.5040  -11.2820 C.2     1  UNL1        0.0440
     18  C         19.2960  -20.4870  -11.5950 C.2     1  UNL1        0.0340
     19  C         19.2920  -23.1510   -7.2120 C.2     1  UNL1        0.0340
     20  C         18.4090  -24.2340   -7.2430 C.2     1  UNL1        0.0310
     21  C         17.2320  -24.2140   -6.4850 C.2     1  UNL1        0.0270
     22  C         16.9330  -23.0940   -5.7030 C.2     1  UNL1        0.0740
     23  C         17.8050  -22.0070   -5.6570 C.2     1  UNL1        0.0270
     24  C         18.9850  -22.0420   -6.4070 C.2     1  UNL1        0.0310
     25  S         15.4460  -23.0830   -4.7470 S.O2    1  UNL1        0.2390
     26  O         15.1960  -24.4060   -4.2240 O.2     1  UNL1       -0.2060
     27  O         14.4410  -22.3240   -5.4520 O.2     1  UNL1       -0.2060
     28  N         15.8890  -22.1500   -3.4220 N.3     1  UNL1       -0.2250
     29  H         15.0570  -21.9220   -2.8740 H       1  UNL1        0.1360
     30  H         16.6200  -22.6210   -2.8890 H       1  UNL1        0.1360
@<TRIPOS>BOND
     1    10     9   ar
     2    10    11   ar
     3     9     8   ar
     4    11    12    1
     5    11     7   ar
     6     8     7   ar
     7    18    12    2
     8    18    17    1
     9    12    13    1
    10    17    15    2
    11    13    14    2
    12     7     6    1
    13    15    14    1
    14    15    16    1
    15     6     5    1
    16     5     2    1
    17     3     2    2
    18     2     1   am
    19     4     1    1
    20     1    19    1
    21    20    19    2
    22    20    21    1
    23    19    24    1
    24    21    22    2
    25    24    23    2
    26    22    23    1
    27    22    25    1
    28    27    25    2
    29    25    26    2
    30    25    28    1
    31    28    30    1
    32    28    29    1
