@<TRIPOS>MOLECULE
77326_out_ligand_01.pdbqt
 32 35 0 0 0
SMALL
GASTEIGER

@<TRIPOS>ATOM
      1  C         20.5720  -22.5220   -7.6960 C.2     1  UNL1        0.0320
      2  C         21.7550  -21.7830   -7.7850 C.2     1  UNL1        0.0190
      3  C         22.7210  -22.1260   -8.7360 C.2     1  UNL1        0.0300
      4  C         22.5220  -23.2070   -9.6060 C.2     1  UNL1        0.0340
      5  C         21.3460  -23.9520   -9.4970 C.2     1  UNL1        0.0300
      6  C         20.3780  -23.6160   -8.5430 C.2     1  UNL1        0.0190
      7  N         23.5480  -23.4800  -10.5340 N.am    1  UNL1       -0.3270
      8  C         23.7120  -22.9430  -11.7990 C.2     1  UNL1        0.2260
      9  O         22.9640  -22.1280  -12.3360 O.2     1  UNL1       -0.2730
     10  H         24.2880  -24.0870  -10.2020 H       1  UNL1        0.1690
     11  C         24.9070  -23.4910  -12.5720 C.3     1  UNL1        0.1420
     12  C         25.6230  -22.4940  -13.4650 C.2     1  UNL1       -0.0380
     13  C         26.4590  -21.5430  -12.8520 C.2     1  UNL1        0.0080
     14  C         27.1190  -20.5830  -13.6100 C.2     1  UNL1        0.0010
     15  C         26.9540  -20.5570  -14.9910 C.2     1  UNL1        0.0120
     16  C         26.1340  -21.4950  -15.6360 C.2     1  UNL1       -0.0250
     17  C         25.9830  -21.4520  -17.0330 C.2     1  UNL1        0.0120
     18  C         25.4560  -22.4830  -14.8780 C.2     1  UNL1       -0.0190
     19  C         25.1750  -22.3730  -17.6960 C.2     1  UNL1        0.0010
     20  C         24.5090  -23.3510  -16.9710 C.2     1  UNL1        0.0010
     21  C         24.6480  -23.4070  -15.5820 C.2     1  UNL1        0.0130
     22  C         19.5170  -22.1940   -6.6960 C.2     1  UNL1        0.2560
     23  N         18.4760  -23.1020   -6.6400 N.am    1  UNL1       -0.3230
     24  H         18.5770  -23.9470   -7.1860 H       1  UNL1        0.1690
     25  O         19.6680  -21.1950   -6.0030 O.2     1  UNL1       -0.2670
     26  C         17.3230  -23.0350   -5.8300 C.2     1  UNL1        0.0350
     27  C         17.3970  -23.6300   -4.5640 C.2     1  UNL1        0.0290
     28  C         16.2990  -23.6060   -3.7020 C.2     1  UNL1        0.0030
     29  C         15.1130  -22.9930   -4.0990 C.2     1  UNL1        0.0070
     30  C         15.0130  -22.4110   -5.3650 C.2     1  UNL1       -0.0600
     31  C         13.7500  -21.7210   -5.7900 C.3     1  UNL1        0.0480
     32  C         16.1270  -22.4270   -6.2210 C.2     1  UNL1        0.0360
@<TRIPOS>BOND
     1    19    17    2
     2    19    20    1
     3    17    16    1
     4    20    21    2
     5    16    15    2
     6    16    18    1
     7    21    18    1
     8    15    14    1
     9    18    12    2
    10    14    13    2
    11    12    13    1
    12    12    11    1
    13    11     8    1
    14     9     8    2
    15     8     7   am
    16     7    10    1
    17     7     4    1
    18     4     5    2
    19     4     3    1
    20     5     6    1
    21     3     2    2
    22     6     1    2
    23     2     1    1
    24     1    22    1
    25    24    23    1
    26    22    23   am
    27    22    25    2
    28    23    26    1
    29    32    26    2
    30    32    30    1
    31    26    27    1
    32    31    30    1
    33    30    29    2
    34    27    28    2
    35    29    28    1
