@<TRIPOS>MOLECULE
77337_out_ligand_01.pdbqt
 30 34 0 0 0
SMALL
GASTEIGER

@<TRIPOS>ATOM
      1  C         22.3450  -22.8720   -9.7580 C.2     1  UNL1        0.0320
      2  C         21.2710  -22.9190  -10.6560 C.2     1  UNL1        0.0170
      3  C         19.9710  -22.6740  -10.2030 C.2     1  UNL1        0.0100
      4  C         19.7240  -22.3870   -8.8520 C.2     1  UNL1       -0.0300
      5  C         20.8020  -22.3600   -7.9560 C.2     1  UNL1        0.0100
      6  C         22.1020  -22.6040   -8.4060 C.2     1  UNL1        0.0170
      7  C         23.7500  -23.1240  -10.1840 C.2     1  UNL1        0.2520
      8  O         24.5450  -23.6470   -9.4100 O.2     1  UNL1       -0.2680
      9  N         24.0910  -22.7190  -11.4520 N.am    1  UNL1       -0.3500
     10  H         23.4130  -22.2910  -12.0710 H       1  UNL1        0.1630
     11  C         25.3950  -22.9970  -12.0470 C.3     1  UNL1        0.1180
     12  C         25.2080  -23.6730  -13.4190 C.3     1  UNL1        0.0290
     13  C         24.6190  -22.7020  -14.4570 C.3     1  UNL1        0.0320
     14  C         25.3710  -21.3650  -14.5110 C.3     1  UNL1        0.2730
     15  N         25.4690  -20.7890  -13.1710 N.3     1  UNL1        0.0950
     16  C         26.2140  -19.5340  -13.1120 C.3     1  UNL1        0.2730
     17  C         26.1950  -21.6990  -12.2640 C.3     1  UNL1        0.2450
     18  C         26.5680  -19.4070  -11.6320 C.3     1  UNL1        0.0320
     19  C         26.4110  -20.8120  -11.0450 C.3     1  UNL1        0.0400
     20  C         18.3110  -22.1320   -8.3660 C.3     1  UNL1        0.3110
     21  N         17.4700  -23.3380   -8.3960 N.3     1  UNL1        0.0970
     22  C         18.0010  -24.4030   -7.5290 C.3     1  UNL1        0.2770
     23  C         18.0030  -24.0630   -6.0310 C.3     1  UNL1        0.0690
     24  C         16.7320  -23.3860   -5.5830 C.2     1  UNL1       -0.0490
     25  C         16.4690  -23.2210   -4.2170 C.2     1  UNL1        0.0070
     26  C         15.8350  -22.8630   -6.5350 C.2     1  UNL1       -0.0240
     27  C         15.3160  -22.5600   -3.7950 C.2     1  UNL1        0.0010
     28  C         14.4190  -22.0560   -4.7340 C.2     1  UNL1        0.0010
     29  C         14.6750  -22.2090   -6.0970 C.2     1  UNL1        0.0090
     30  C         16.0700  -23.0620   -8.0180 C.3     1  UNL1        0.3110
@<TRIPOS>BOND
     1    14    13    1
     2    14    15    1
     3    13    12    1
     4    12    11    1
     5    15    16    1
     6    15    17    1
     7    16    18    1
     8    17    11    1
     9    17    19    1
    10    10     9    1
    11    11     9    1
    12    18    19    1
    13     9     7   am
    14     2     3    1
    15     2     1    2
    16     3     4    2
    17     7     1    1
    18     7     8    2
    19     1     6    1
    20     4    20    1
    21     4     5    1
    22     6     5    2
    23    21    20    1
    24    21    30    1
    25    21    22    1
    26    30    26    1
    27    22    23    1
    28    26    29    1
    29    26    24    2
    30    29    28    2
    31    23    24    1
    32    24    25    1
    33    28    27    1
    34    25    27    2
