@<TRIPOS>MOLECULE
77350_out_ligand_01.pdbqt
 28 31 0 0 0
SMALL
GASTEIGER

@<TRIPOS>ATOM
      1  C         17.3830  -22.4770   -9.3440 C.2     1  UNL1        0.1490
      2  N         16.4280  -21.7630   -9.9160 N.2     1  UNL1       -0.2400
      3  C         16.8090  -21.5780  -11.2120 C.2     1  UNL1        0.1360
      4  C         18.0350  -22.1460  -11.4400 C.2     1  UNL1        0.1180
      5  N         18.4420  -22.6620  -10.2270 N.pl3   1  UNL1       -0.3040
      6  C         19.7610  -23.1130   -9.9540 C.2     1  UNL1        0.0470
      7  C         19.8930  -24.2520   -9.1380 C.2     1  UNL1        0.0300
      8  C         21.1530  -24.6950   -8.7460 C.2     1  UNL1        0.0030
      9  C         22.2870  -23.9960   -9.1470 C.2     1  UNL1        0.0180
     10  C         22.1690  -22.8580   -9.9650 C.2     1  UNL1        0.0400
     11  C         20.9010  -22.4060  -10.4010 C.2     1  UNL1       -0.0190
     12  C         20.8050  -21.2350  -11.3490 C.3     1  UNL1        0.0520
     13  C         23.4180  -22.1330  -10.3260 C.2     1  UNL1        0.2490
     14  N         24.1410  -22.6510  -11.3640 N.am    1  UNL1       -0.3660
     15  H         23.7640  -23.3500  -11.9890 H       1  UNL1        0.1590
     16  H         24.9290  -22.1030  -11.6840 H       1  UNL1        0.1590
     17  O         23.7740  -21.1180   -9.7440 O.2     1  UNL1       -0.2680
     18  C         17.2270  -23.0780   -7.9020 C.2     1  UNL1        0.0770
     19  C         16.5550  -24.2400   -7.4930 C.2     1  UNL1        0.1580
     20  N         16.6130  -24.4440   -6.1770 N.2     1  UNL1       -0.1770
     21  N         17.3120  -23.3780   -5.7010 N.pl3   1  UNL1       -0.2190
     22  C         17.6420  -23.1010   -4.3660 C.2     1  UNL1        0.0360
     23  C         17.7070  -22.5150   -6.7340 C.2     1  UNL1        0.1660
     24  C         18.3470  -21.9930   -4.0800 C.2     1  UNL1        0.0530
     25  C         17.1860  -24.0640   -3.3130 C.3     1  UNL1        0.0700
     26  C         18.7290  -21.1320   -5.2410 C.2     1  UNL1        0.0350
     27  C         19.5230  -19.8840   -4.9450 C.3     1  UNL1        0.0700
     28  N         18.4310  -21.3810   -6.4810 N.2     1  UNL1       -0.2330
@<TRIPOS>BOND
     1    15    14    1
     2    16    14    1
     3     4     3    2
     4     4     5    1
     5    14    13   am
     6    12    11    1
     7     3     2    1
     8    11    10    1
     9    11     6    2
    10    13    10    1
    11    13    17    2
    12     5     6    1
    13     5     1    1
    14    10     9    2
    15     6     7    1
    16     2     1    2
    17     1    18    1
    18     9     8    1
    19     7     8    2
    20    18    19    1
    21    18    23    2
    22    19    20    2
    23    23    28    1
    24    23    21    1
    25    28    26    2
    26    20    21    1
    27    21    22    1
    28    26    27    1
    29    26    24    1
    30    22    24    2
    31    22    25    1
