@<TRIPOS>MOLECULE
77376_out_ligand_01.pdbqt
 28 31 0 0 0
SMALL
GASTEIGER

@<TRIPOS>ATOM
      1  C         18.6560  -22.5410   -9.7950 C.2     1  UNL1        0.0350
      2  C         17.6710  -21.7670  -10.4180 C.2     1  UNL1        0.0290
      3  C         17.9700  -21.0070  -11.5490 C.2     1  UNL1        0.0030
      4  C         19.2630  -21.0140  -12.0710 C.2     1  UNL1        0.0150
      5  C         20.2690  -21.7830  -11.4670 C.2     1  UNL1        0.0130
      6  C         19.9480  -22.5480  -10.3300 C.2     1  UNL1        0.0440
      7  N         18.2640  -23.2820   -8.6620 N.am    1  UNL1       -0.3270
      8  C         18.7710  -23.1960   -7.3750 C.2     1  UNL1        0.2260
      9  O         19.6260  -22.4110   -6.9780 O.2     1  UNL1       -0.2730
     10  H         17.4640  -23.8940   -8.7880 H       1  UNL1        0.1690
     11  C         18.1360  -24.2020   -6.4270 C.3     1  UNL1        0.1480
     12  C         16.9600  -23.6300   -5.6890 C.2     1  UNL1        0.0280
     13  C         17.1290  -22.8780   -4.5270 C.2     1  UNL1        0.1260
     14  F         18.3580  -22.6830   -4.0300 F       1  UNL1       -0.2050
     15  C         16.0400  -22.3260   -3.8540 C.2     1  UNL1        0.0430
     16  C         14.7480  -22.5190   -4.3440 C.2     1  UNL1        0.0060
     17  C         14.5590  -23.2640   -5.5070 C.2     1  UNL1        0.0430
     18  C         15.6590  -23.8080   -6.1650 C.2     1  UNL1        0.1260
     19  F         15.4600  -24.5130   -7.2900 F       1  UNL1       -0.2050
     20  C         21.6320  -21.8220  -11.9960 C.3     1  UNL1        0.1560
     21  N         22.7000  -22.3330  -11.4120 N.2     1  UNL1       -0.2110
     22  C         23.7060  -22.1120  -12.3110 C.2     1  UNL1        0.1520
     23  N         23.3350  -21.4790  -13.4280 N.pl3   1  UNL1       -0.1570
     24  N         22.0250  -21.2990  -13.2000 N.3     1  UNL1       -0.2590
     25  H         21.4680  -20.8120  -13.8890 H       1  UNL1        0.1910
     26  C         25.1670  -22.5610  -12.0490 C.3     1  UNL1        0.0590
     27  C         25.5480  -23.0820  -10.6880 C.3     1  UNL1        0.0130
     28  C         26.0330  -21.7330  -11.1330 C.3     1  UNL1        0.0130
@<TRIPOS>BOND
     1    25    24    1
     2    23    24    1
     3    23    22    1
     4    24    20    1
     5    22    26    1
     6    22    21    2
     7     4     3    2
     8     4     5    1
     9    26    28    1
    10    26    27    1
    11    20     5    1
    12    20    21    1
    13     3     2    1
    14     5     6    2
    15    28    27    1
    16     2     1    2
    17     6     1    1
    18     1     7    1
    19    10     7    1
    20     7     8   am
    21     8     9    2
    22     8    11    1
    23    19    18    1
    24    11    12    1
    25    18    12    2
    26    18    17    1
    27    12    13    1
    28    17    16    2
    29    13    14    1
    30    13    15    2
    31    16    15    1
