@<TRIPOS>MOLECULE
773_out_ligand_01.pdbqt
 28 29 0 0 0
SMALL
GASTEIGER

@<TRIPOS>ATOM
      1  N         15.5920  -23.0140   -9.5410 N.1     1  UNL1       -0.1910
      2  C         16.5700  -22.5980  -10.0090 C.1     1  UNL1        0.0990
      3  C         17.7810  -22.0800  -10.5710 C.2     1  UNL1        0.0460
      4  C         17.7580  -20.8930  -11.3150 C.2     1  UNL1        0.0230
      5  C         18.9350  -20.3930  -11.8720 C.2     1  UNL1        0.0030
      6  C         20.1390  -21.0720  -11.6790 C.2     1  UNL1        0.0240
      7  C         20.1670  -22.2410  -10.9200 C.2     1  UNL1        0.0240
      8  C         18.9890  -22.7600  -10.3790 C.2     1  UNL1        0.0470
      9  N         21.4040  -22.9520  -10.7730 N.pl3   1  UNL1       -0.1810
     10  H         22.1010  -22.6180  -11.4430 H       1  UNL1        0.1460
     11  S         22.1000  -22.8010   -9.2190 S.O2    1  UNL1        0.2450
     12  O         23.0120  -23.9160   -9.0730 O.2     1  UNL1       -0.2060
     13  O         22.5090  -21.4330   -8.9910 O.2     1  UNL1       -0.2060
     14  C         20.6760  -23.1090   -8.2000 C.2     1  UNL1        0.0740
     15  C         20.2300  -22.1020   -7.3360 C.2     1  UNL1        0.0260
     16  C         19.1190  -22.3340   -6.5210 C.2     1  UNL1        0.0180
     17  C         18.4550  -23.5680   -6.5760 C.2     1  UNL1        0.0320
     18  C         18.9290  -24.5780   -7.4250 C.2     1  UNL1        0.0180
     19  C         20.0400  -24.3520   -8.2410 C.2     1  UNL1        0.0260
     20  C         17.2720  -23.8650   -5.7240 C.2     1  UNL1        0.2520
     21  O         17.4290  -24.3200   -4.5970 O.2     1  UNL1       -0.2680
     22  N         16.0360  -23.6240   -6.2800 N.am    1  UNL1       -0.3470
     23  H         15.9690  -23.1640   -7.1780 H       1  UNL1        0.1630
     24  C         14.8320  -23.6380   -5.4630 C.3     1  UNL1        0.2320
     25  C         14.4640  -22.2140   -5.0790 C.2     1  UNL1        0.1580
     26  O         13.7730  -21.4420   -5.7290 O.2     1  UNL1       -0.6490
     27  O         14.9260  -21.8630   -3.8630 O.3     1  UNL1       -0.7750
     28  H         15.7030  -22.4430   -3.7210 H       1  UNL1        0.1670
@<TRIPOS>BOND
     1     5     6    2
     2     5     4    1
     3     6     7    1
     4    10     9    1
     5     4     3    2
     6     7     9    1
     7     7     8    2
     8     9    11    1
     9     3     8    1
    10     3     2    1
    11     2     1    3
    12    11    12    2
    13    11    13    2
    14    11    14    1
    15    19    14    2
    16    19    18    1
    17    14    15    1
    18    18    17    2
    19    15    16    2
    20    23    22    1
    21    17    16    1
    22    17    20    1
    23    22    20   am
    24    22    24    1
    25    26    25    2
    26    20    21    2
    27    24    25    1
    28    25    27    1
    29    27    28    1
