@<TRIPOS>MOLECULE
77401_out_ligand_01.pdbqt
 28 30 0 0 0
SMALL
GASTEIGER

@<TRIPOS>ATOM
      1  C         24.8550  -22.7340  -11.3560 C.2     1  UNL1        0.2510
      2  O         25.7770  -22.1170  -10.8350 O.2     1  UNL1       -0.2680
      3  N         23.8450  -23.3450  -10.6430 N.am    1  UNL1       -0.3530
      4  H         23.0020  -23.6150  -11.1260 H       1  UNL1        0.1630
      5  C         23.7450  -23.1990   -9.2070 C.3     1  UNL1        0.1610
      6  C         22.3060  -23.2520   -8.7650 C.2     1  UNL1       -0.0400
      7  C         21.5050  -24.3490   -9.1050 C.2     1  UNL1        0.0090
      8  C         20.1750  -24.4190   -8.6770 C.2     1  UNL1        0.0130
      9  C         19.6100  -23.3980   -7.8970 C.2     1  UNL1       -0.0250
     10  C         20.4230  -22.3040   -7.5590 C.2     1  UNL1        0.0130
     11  C         21.7560  -22.2320   -7.9820 C.2     1  UNL1        0.0090
     12  C         18.2140  -23.4710   -7.4450 C.2     1  UNL1       -0.0080
     13  C         17.2020  -22.7030   -8.0380 C.2     1  UNL1        0.0150
     14  C         15.8880  -22.7990   -7.5840 C.2     1  UNL1        0.0200
     15  C         15.6150  -23.6660   -6.5410 C.2     1  UNL1        0.1160
     16  N         16.5510  -24.4250   -5.9350 N.2     1  UNL1       -0.2720
     17  C         17.8190  -24.3090   -6.4010 C.2     1  UNL1        0.1280
     18  C         24.7610  -22.8200  -12.8400 C.2     1  UNL1        0.0320
     19  C         25.3290  -23.9290  -13.4800 C.2     1  UNL1        0.0180
     20  C         25.2610  -24.0510  -14.8710 C.2     1  UNL1        0.0180
     21  C         24.6240  -23.0670  -15.6360 C.2     1  UNL1        0.0310
     22  C         24.0290  -21.9710  -14.9960 C.2     1  UNL1        0.0180
     23  C         24.0970  -21.8490  -13.6030 C.2     1  UNL1        0.0180
     24  C         24.5750  -23.2420  -17.1120 C.2     1  UNL1        0.2490
     25  N         23.3470  -23.4180  -17.6880 N.am    1  UNL1       -0.3660
     26  H         23.3360  -23.4010  -18.7000 H       1  UNL1        0.1590
     27  H         22.4910  -23.1660  -17.2150 H       1  UNL1        0.1590
     28  O         25.5870  -23.1970  -17.7990 O.2     1  UNL1       -0.2680
@<TRIPOS>BOND
     1    26    25    1
     2    28    24    2
     3    25    27    1
     4    25    24   am
     5    24    21    1
     6    21    22    2
     7    21    20    1
     8    22    23    1
     9    20    19    2
    10    23    18    2
    11    19    18    1
    12    18     1    1
    13     1     2    2
    14     1     3   am
    15     4     3    1
    16     3     5    1
    17     5     6    1
    18     7     6    2
    19     7     8    1
    20     6    11    1
    21     8     9    2
    22    13    14    1
    23    13    12    2
    24    11    10    2
    25     9    10    1
    26     9    12    1
    27    14    15    2
    28    12    17    1
    29    15    16    1
    30    17    16    2
