@<TRIPOS>MOLECULE
77414_out_ligand_01.pdbqt
 27 30 0 0 0
SMALL
GASTEIGER

@<TRIPOS>ATOM
      1  N         18.8420  -22.7650   -8.9080 N.am    1  UNL1       -0.3270
      2  C         18.3000  -23.7560   -8.1170 C.2     1  UNL1        0.2270
      3  O         18.8660  -24.7360   -7.6590 O.2     1  UNL1       -0.2730
      4  H         18.1960  -22.0680   -9.2530 H       1  UNL1        0.1690
      5  C         20.1850  -22.6290   -9.3090 C.2     1  UNL1        0.0340
      6  C         21.2560  -22.5030   -8.4200 C.2     1  UNL1        0.0310
      7  C         22.5640  -22.3680   -8.8950 C.2     1  UNL1        0.0270
      8  C         22.8000  -22.3460  -10.2710 C.2     1  UNL1        0.0740
      9  C         21.7450  -22.4780  -11.1730 C.2     1  UNL1        0.0270
     10  C         20.4420  -22.6170  -10.6890 C.2     1  UNL1        0.0310
     11  S         24.4630  -22.1710  -10.8620 S.O2    1  UNL1        0.2390
     12  O         24.4920  -22.5460  -12.2550 O.2     1  UNL1       -0.2060
     13  O         24.9920  -20.9160  -10.3800 O.2     1  UNL1       -0.2060
     14  N         25.2630  -23.3620   -9.9800 N.3     1  UNL1       -0.2250
     15  H         25.4620  -23.0910   -9.0180 H       1  UNL1        0.1360
     16  H         26.1070  -23.6370  -10.4850 H       1  UNL1        0.1360
     17  C         16.8390  -23.5940   -7.8720 C.3     1  UNL1        0.0920
     18  C         16.1120  -22.2720   -7.9730 C.3     1  UNL1        0.0300
     19  C         16.3360  -22.8970   -6.6230 C.3     1  UNL1        0.0010
     20  C         15.1630  -23.4980   -5.8580 C.3     1  UNL1        0.0200
     21  C         17.2190  -22.2750   -5.5880 C.2     1  UNL1       -0.0420
     22  C         15.6390  -23.6240   -4.3910 C.3     1  UNL1        0.0400
     23  C         16.7950  -22.6650   -4.3060 C.2     1  UNL1       -0.0510
     24  C         17.4320  -22.2290   -3.1540 C.2     1  UNL1        0.0070
     25  C         18.5160  -21.3630   -3.2840 C.2     1  UNL1        0.0010
     26  C         18.9480  -20.9540   -4.5520 C.2     1  UNL1        0.0010
     27  C         18.2990  -21.4080   -5.7060 C.2     1  UNL1        0.0080
@<TRIPOS>BOND
     1    12    11    2
     2     9    10    1
     3     9     8    2
     4    11    13    2
     5    11     8    1
     6    11    14    1
     7    10     5    2
     8    16    14    1
     9     8     7    1
    10    14    15    1
    11     5     1    1
    12     5     6    1
    13     4     1    1
    14     1     2   am
    15     7     6    2
    16     2    17    1
    17     2     3    2
    18    18    17    1
    19    18    19    1
    20    17    19    1
    21    19    20    1
    22    19    21    1
    23    20    22    1
    24    27    21    2
    25    27    26    1
    26    21    23    1
    27    26    25    2
    28    22    23    1
    29    23    24    2
    30    25    24    1
