@<TRIPOS>MOLECULE
77419_out_ligand_01.pdbqt
 27 30 0 0 0
SMALL
GASTEIGER

@<TRIPOS>ATOM
      1  N         22.9440  -23.4170  -10.1370 N.am    1  UNL1       -0.3270
      2  C         22.3560  -22.8250   -9.0390 C.2     1  UNL1        0.2270
      3  O         22.6200  -21.7380   -8.5490 O.2     1  UNL1       -0.2730
      4  H         22.6380  -24.3570  -10.3500 H       1  UNL1        0.1690
      5  C         23.9310  -22.8710  -10.9800 C.2     1  UNL1        0.0360
      6  C         25.3020  -22.9350  -10.7210 C.2     1  UNL1        0.0290
      7  C         26.2270  -22.3730  -11.6100 C.2     1  UNL1        0.0040
      8  C         25.7890  -21.7350  -12.7660 C.2     1  UNL1        0.0250
      9  C         24.4190  -21.6550  -13.0210 C.2     1  UNL1        0.0760
     10  C         23.4910  -22.2270  -12.1420 C.2     1  UNL1        0.0540
     11  S         23.8530  -20.8710  -14.4990 S.O2    1  UNL1        0.2390
     12  O         24.1920  -21.6950  -15.6350 O.2     1  UNL1       -0.2060
     13  O         22.5200  -20.3580  -14.2830 O.2     1  UNL1       -0.2060
     14  N         24.8530  -19.5260  -14.5820 N.3     1  UNL1       -0.2250
     15  H         25.0820  -19.3220  -15.5560 H       1  UNL1        0.1360
     16  H         25.6720  -19.6660  -13.9900 H       1  UNL1        0.1360
     17  C         21.3290  -23.6780   -8.3820 C.3     1  UNL1        0.0920
     18  C         20.6140  -24.8100   -9.0830 C.3     1  UNL1        0.0300
     19  C         19.8600  -23.5550   -8.7210 C.3     1  UNL1        0.0010
     20  C         18.8460  -23.5760   -7.5830 C.3     1  UNL1        0.0200
     21  C         19.2470  -22.7120   -9.7970 C.2     1  UNL1       -0.0420
     22  C         17.5030  -23.1250   -8.2000 C.3     1  UNL1        0.0400
     23  C         17.9040  -22.4460   -9.4810 C.2     1  UNL1       -0.0510
     24  C         17.0830  -21.6930  -10.3090 C.2     1  UNL1        0.0070
     25  C         17.6230  -21.1760  -11.4840 C.2     1  UNL1        0.0010
     26  C         18.9600  -21.4260  -11.8160 C.2     1  UNL1        0.0010
     27  C         19.7720  -22.1960  -10.9760 C.2     1  UNL1        0.0080
@<TRIPOS>BOND
     1    12    11    2
     2    15    14    1
     3    14    11    1
     4    14    16    1
     5    11    13    2
     6    11     9    1
     7     9     8    2
     8     9    10    1
     9     8     7    1
    10    10     5    2
    11    26    25    2
    12    26    27    1
    13     7     6    2
    14    25    24    1
    15     5     6    1
    16     5     1    1
    17    27    21    2
    18     4     1    1
    19    24    23    2
    20     1     2   am
    21    21    23    1
    22    21    19    1
    23    23    22    1
    24    18    19    1
    25    18    17    1
    26     2     3    2
    27     2    17    1
    28    19    17    1
    29    19    20    1
    30    22    20    1
