@<TRIPOS>MOLECULE
77427_out_ligand_01.pdbqt
 30 33 0 0 0
SMALL
GASTEIGER

@<TRIPOS>ATOM
      1  C         22.0230  -21.5780  -12.4980 C.2     1  UNL1        0.0330
      2  C         22.4840  -22.2400  -11.3620 C.2     1  UNL1        0.0190
      3  C         21.6130  -22.4880  -10.2930 C.2     1  UNL1        0.0310
      4  C         20.2680  -22.0850  -10.3220 C.2     1  UNL1        0.0430
      5  C         19.7970  -21.4790  -11.5060 C.2     1  UNL1       -0.0300
      6  C         20.6770  -21.2150  -12.5740 C.2     1  UNL1        0.0260
      7  C         18.3580  -21.0670  -11.6580 C.3     1  UNL1        0.0420
      8  C         17.4820  -21.9830  -10.8320 C.3     1  UNL1        0.0250
      9  C         17.9580  -21.9590   -9.3920 C.3     1  UNL1        0.1330
     10  N         19.3740  -22.3160   -9.2100 N.am    1  UNL1       -0.3130
     11  C         19.8660  -22.5790   -7.9120 C.2     1  UNL1        0.2610
     12  O         21.0340  -22.4980   -7.5380 O.2     1  UNL1       -0.2670
     13  C         22.9100  -21.2810  -13.6610 C.2     1  UNL1        0.2560
     14  O         22.6160  -20.3440  -14.3940 O.2     1  UNL1       -0.2670
     15  N         24.0210  -22.0940  -13.7710 N.am    1  UNL1       -0.3200
     16  H         24.2070  -22.7520  -13.0210 H       1  UNL1        0.1690
     17  C         25.0100  -22.0680  -14.7790 C.2     1  UNL1        0.0730
     18  C         24.9840  -22.8540  -15.9320 C.2     1  UNL1        0.0330
     19  C         26.0170  -22.7590  -16.8730 C.2     1  UNL1        0.0020
     20  C         27.0840  -21.8820  -16.6700 C.2     1  UNL1        0.0030
     21  C         27.1210  -21.0960  -15.5220 C.2     1  UNL1        0.0440
     22  C         26.0910  -21.1960  -14.5920 C.2     1  UNL1        0.1430
     23  F         26.1390  -20.4340  -13.4860 F       1  UNL1       -0.2040
     24  C         18.9060  -22.9290   -6.8490 C.2     1  UNL1        0.0710
     25  C         18.2470  -24.1630   -6.9000 C.2     1  UNL1        0.0200
     26  C         17.3070  -24.4820   -5.9170 C.2     1  UNL1        0.0010
     27  C         17.0180  -23.5680   -4.9020 C.2     1  UNL1        0.0030
     28  C         17.6610  -22.3290   -4.8690 C.2     1  UNL1        0.0430
     29  C         18.5970  -22.0110   -5.8490 C.2     1  UNL1        0.1320
     30  F         19.2050  -20.8170   -5.8020 F       1  UNL1       -0.2050
@<TRIPOS>BOND
     1    19    20    2
     2    19    18    1
     3    20    21    1
     4    18    17    2
     5    21    22    2
     6    17    22    1
     7    17    15    1
     8    22    23    1
     9    14    13    2
    10    15    13   am
    11    15    16    1
    12    13     1    1
    13     6     1    2
    14     6     5    1
    15     1     2    1
    16     7     5    1
    17     7     8    1
    18     5     4    2
    19     2     3    2
    20     8     9    1
    21     4     3    1
    22     4    10    1
    23     9    10    1
    24    10    11   am
    25    11    12    2
    26    11    24    1
    27    25    24    2
    28    25    26    1
    29    24    29    1
    30    26    27    2
    31    29    30    1
    32    29    28    2
    33    27    28    1
