@<TRIPOS>MOLECULE
77428_out_ligand_01.pdbqt
 31 34 0 0 0
SMALL
GASTEIGER

@<TRIPOS>ATOM
      1  C         21.6230  -21.6420  -12.2500 C.2     1  UNL1        0.0330
      2  C         20.3170  -21.1690  -12.1500 C.2     1  UNL1        0.0190
      3  C         19.4770  -21.6270  -11.1250 C.2     1  UNL1        0.0310
      4  C         19.9040  -22.5810  -10.1870 C.2     1  UNL1        0.0430
      5  C         21.2220  -23.0720  -10.3100 C.2     1  UNL1       -0.0300
      6  C         22.0680  -22.5980  -11.3330 C.2     1  UNL1        0.0260
      7  C         21.7940  -24.0820   -9.3510 C.3     1  UNL1        0.0420
      8  C         20.6910  -24.8550   -8.6600 C.3     1  UNL1        0.0250
      9  C         19.6890  -23.8750   -8.0800 C.3     1  UNL1        0.1330
     10  N         19.0550  -23.0370   -9.1090 N.am    1  UNL1       -0.3130
     11  C         17.6900  -22.7040   -9.0260 C.2     1  UNL1        0.2610
     12  O         16.9790  -22.3060   -9.9470 O.2     1  UNL1       -0.2670
     13  C         22.5610  -21.1830  -13.3160 C.2     1  UNL1        0.2560
     14  N         23.7600  -21.8600  -13.3690 N.am    1  UNL1       -0.3210
     15  H         23.8930  -22.6670  -12.7680 H       1  UNL1        0.1690
     16  O         22.1930  -20.2870  -14.0670 O.2     1  UNL1       -0.2670
     17  C         24.8540  -21.6380  -14.2370 C.2     1  UNL1        0.0680
     18  C         24.8800  -22.0510  -15.5700 C.2     1  UNL1        0.0320
     19  C         25.9970  -21.7900  -16.3650 C.2     1  UNL1        0.0020
     20  C         27.0930  -21.1140  -15.8340 C.2     1  UNL1        0.0030
     21  C         27.0780  -20.6930  -14.5030 C.2     1  UNL1        0.0390
     22  C         25.9640  -20.9500  -13.6990 C.2     1  UNL1        0.0950
     23  O         25.8430  -20.5770  -12.3780 O.2     1  UNL1       -0.3540
     24  C         26.7090  -19.5480  -11.9170 C.3     1  UNL1        0.2100
     25  C         16.9880  -22.8800   -7.7380 C.2     1  UNL1        0.0710
     26  C         17.3390  -22.0650   -6.6550 C.2     1  UNL1        0.0200
     27  C         16.7070  -22.2390   -5.4220 C.2     1  UNL1        0.0010
     28  C         15.7400  -23.2340   -5.2650 C.2     1  UNL1        0.0030
     29  C         15.4090  -24.0630   -6.3400 C.2     1  UNL1        0.0430
     30  C         16.0400  -23.8880   -7.5690 C.2     1  UNL1        0.1320
     31  F         15.7160  -24.7050   -8.5800 F       1  UNL1       -0.2050
@<TRIPOS>BOND
     1    19    20    2
     2    19    18    1
     3    20    21    1
     4    18    17    2
     5    21    22    2
     6    17    22    1
     7    17    14    1
     8    16    13    2
     9    22    23    1
    10    14    13   am
    11    14    15    1
    12    13     1    1
    13    23    24    1
    14     1     2    2
    15     1     6    1
    16     2     3    1
    17     6     5    2
    18     3     4    2
    19     5     4    1
    20     5     7    1
    21     4    10    1
    22    12    11    2
    23     7     8    1
    24    10    11   am
    25    10     9    1
    26    11    25    1
    27     8     9    1
    28    31    30    1
    29    25    30    2
    30    25    26    1
    31    30    29    1
    32    26    27    2
    33    29    28    2
    34    27    28    1
