@<TRIPOS>MOLECULE
7742_out_ligand_01.pdbqt
 36 39 0 0 0
SMALL
GASTEIGER

@<TRIPOS>ATOM
      1  S         16.1700  -22.5410   -9.6880 S.O2    1  UNL1        0.2680
      2  O         14.9740  -21.7700   -9.9630 O.2     1  UNL1       -0.2040
      3  O         16.1660  -23.9830   -9.8420 O.2     1  UNL1       -0.2040
      4  C         17.4360  -21.9100  -10.7420 C.ar    1  UNL1        0.2330
      5  N         17.4810  -20.6960  -11.2530 N.ar    1  UNL1       -0.1270
      6  N         18.6420  -20.5060  -11.9810 N.ar    1  UNL1       -0.1220
      7  C         19.4230  -21.5660  -11.9530 C.ar    1  UNL1        0.1970
      8  S         18.7950  -22.8860  -11.0770 S.2     1  UNL1       -0.0150
      9  N         20.6290  -21.5950  -12.6090 N.am    1  UNL1       -0.3000
     10  C         21.8770  -21.4870  -12.0380 C.2     1  UNL1        0.2570
     11  O         22.1310  -21.2800  -10.8580 O.2     1  UNL1       -0.2670
     12  H         20.5340  -21.6110  -13.6150 H       1  UNL1        0.1710
     13  C         23.0160  -21.5920  -12.9970 C.2     1  UNL1        0.0320
     14  C         23.0900  -20.7970  -14.1500 C.2     1  UNL1        0.0170
     15  C         24.1780  -20.9280  -15.0150 C.2     1  UNL1        0.0020
     16  C         25.1860  -21.8550  -14.7430 C.2     1  UNL1        0.0070
     17  C         25.1070  -22.6810  -13.6130 C.2     1  UNL1       -0.0610
     18  C         26.1910  -23.6750  -13.3100 C.3     1  UNL1        0.0480
     19  C         24.0200  -22.5370  -12.7390 C.2     1  UNL1        0.0230
     20  N         16.5930  -22.2410   -8.0800 N.3     1  UNL1       -0.2000
     21  H         17.1460  -21.3850   -8.0360 H       1  UNL1        0.1410
     22  C         17.2490  -23.3660   -7.3680 C.3     1  UNL1        0.1380
     23  C         16.8920  -23.4370   -5.8830 C.2     1  UNL1       -0.0350
     24  C         15.6920  -22.8600   -5.4340 C.2     1  UNL1        0.0090
     25  C         15.3470  -22.8830   -4.0790 C.2     1  UNL1        0.0010
     26  C         16.1980  -23.4800   -3.1530 C.2     1  UNL1        0.0000
     27  C         17.3910  -24.0580   -3.5790 C.2     1  UNL1        0.0010
     28  C         17.7350  -24.0370   -4.9330 C.2     1  UNL1        0.0090
     29  C         18.7550  -23.3620   -7.6590 C.2     1  UNL1       -0.0290
     30  C         19.2630  -24.4240   -8.4370 C.2     1  UNL1        0.0100
     31  C         20.6130  -24.4980   -8.7770 C.2     1  UNL1        0.0070
     32  C         21.4980  -23.5040   -8.3610 C.2     1  UNL1       -0.0610
     33  C         22.9590  -23.5980   -8.6940 C.3     1  UNL1        0.0480
     34  C         21.0090  -22.4440   -7.5880 C.2     1  UNL1        0.0140
     35  C         19.6450  -22.3430   -7.2490 C.2     1  UNL1       -0.0530
     36  C         19.2260  -21.1610   -6.4170 C.3     1  UNL1        0.0490
@<TRIPOS>BOND
     1    15    16    2
     2    15    14    1
     3    16    17    1
     4    14    13    2
     5    12     9    1
     6    17    18    1
     7    17    19    2
     8    13    19    1
     9    13    10    1
    10     9    10   am
    11     9     7    1
    12    10    11    2
    13     6     7   ar
    14     6     5   ar
    15     7     8   ar
    16     5     4   ar
    17     8     4   ar
    18     4     1    1
    19     2     1    2
    20     3     1    2
    21     1    20    1
    22    31    30    1
    23    31    32    2
    24    33    32    1
    25    30    29    2
    26    32    34    1
    27    20    21    1
    28    20    22    1
    29    29    22    1
    30    29    35    1
    31    34    35    2
    32    22    23    1
    33    35    36    1
    34    23    24    2
    35    23    28    1
    36    24    25    1
    37    28    27    2
    38    25    26    2
    39    27    26    1
