@<TRIPOS>MOLECULE
77426_out_ligand_01.pdbqt
 33 36 0 0 0
SMALL
GASTEIGER

@<TRIPOS>ATOM
      1  C         22.8680  -22.4950  -10.9950 C.2     1  UNL1        0.0360
      2  C         21.5640  -22.0340  -11.2150 C.2     1  UNL1        0.0300
      3  C         20.5330  -22.3600  -10.3280 C.2     1  UNL1        0.0190
      4  C         20.7900  -23.1650   -9.2130 C.2     1  UNL1        0.0320
      5  C         22.0930  -23.6180   -8.9830 C.2     1  UNL1        0.0190
      6  C         23.1230  -23.2900   -9.8760 C.2     1  UNL1        0.0300
      7  N         23.8450  -22.1320  -11.9440 N.am    1  UNL1       -0.3090
      8  C         25.1280  -21.6810  -11.7140 C.2     1  UNL1        0.3270
      9  N         25.8920  -21.4700  -12.8730 N.am    1  UNL1       -0.2960
     10  O         25.5720  -21.4000  -10.6030 O.2     1  UNL1       -0.2460
     11  C         26.9390  -20.4490  -12.8090 C.3     1  UNL1        0.1440
     12  C         25.5710  -21.9390  -14.1840 C.2     1  UNL1        0.0800
     13  C         26.4420  -19.1520  -13.4200 C.3     1  UNL1        0.1010
     14  S         26.1160  -19.3470  -15.1990 S.3     1  UNL1       -0.1060
     15  C         25.6250  -21.0660  -15.2890 C.2     1  UNL1        0.1210
     16  N         25.2820  -21.4440  -16.5450 N.2     1  UNL1       -0.2440
     17  C         24.8990  -22.7190  -16.7530 C.2     1  UNL1        0.0320
     18  C         24.5240  -23.1070  -18.1510 C.3     1  UNL1        0.0700
     19  C         24.8720  -23.6610  -15.7330 C.2     1  UNL1        0.0350
     20  C         25.2420  -23.2880  -14.4330 C.2     1  UNL1       -0.0300
     21  C         25.3180  -24.3810  -13.3990 C.3     1  UNL1        0.0500
     22  H         23.5280  -22.0760  -12.9010 H       1  UNL1        0.1700
     23  C         19.6610  -23.4870   -8.2930 C.2     1  UNL1        0.2560
     24  O         19.3910  -24.6660   -8.0940 O.2     1  UNL1       -0.2670
     25  N         19.0450  -22.3940   -7.7150 N.am    1  UNL1       -0.3200
     26  H         19.4500  -21.4780   -7.8700 H       1  UNL1        0.1690
     27  C         17.9380  -22.3970   -6.8370 C.2     1  UNL1        0.0730
     28  C         18.0300  -22.3330   -5.4470 C.2     1  UNL1        0.0330
     29  C         16.8710  -22.3480   -4.6620 C.2     1  UNL1        0.0020
     30  C         15.6110  -22.4280   -5.2580 C.2     1  UNL1        0.0030
     31  C         15.5070  -22.4960   -6.6440 C.2     1  UNL1        0.0440
     32  C         16.6650  -22.4810   -7.4170 C.2     1  UNL1        0.1430
     33  F         16.5530  -22.5500   -8.7540 F       1  UNL1       -0.2040
@<TRIPOS>BOND
     1    18    17    1
     2    17    16    2
     3    17    19    1
     4    16    15    1
     5    19    20    2
     6    15    14    1
     7    15    12    2
     8    14    13    1
     9    20    12    1
    10    20    21    1
    11    12     9    1
    12    13    11    1
    13    22     7    1
    14     9    11    1
    15     9     8   am
    16     7     8   am
    17     7     1    1
    18     8    10    2
    19     2     1    2
    20     2     3    1
    21     1     6    1
    22     3     4    2
    23     6     5    2
    24     4     5    1
    25     4    23    1
    26    33    32    1
    27    23    24    2
    28    23    25   am
    29    26    25    1
    30    25    27    1
    31    32    27    2
    32    32    31    1
    33    27    28    1
    34    31    30    2
    35    28    29    2
    36    30    29    1
