@<TRIPOS>MOLECULE
77446_out_ligand_01.pdbqt
 29 32 0 0 0
SMALL
GASTEIGER

@<TRIPOS>ATOM
      1  C         19.8870  -21.9430  -10.8650 C.2     1  UNL1        0.0120
      2  C         18.9410  -21.8590  -11.8920 C.2     1  UNL1        0.0160
      3  C         17.5780  -21.9300  -11.6050 C.2     1  UNL1        0.0100
      4  C         17.1260  -22.0870  -10.2850 C.2     1  UNL1       -0.0350
      5  C         15.6400  -22.1560  -10.0470 C.3     1  UNL1        0.0500
      6  C         18.0670  -22.1790   -9.2370 C.2     1  UNL1        0.0420
      7  C         19.4330  -22.1100   -9.5450 C.2     1  UNL1        0.0450
      8  C         21.3260  -21.8740  -11.1340 C.ar    1  UNL1        0.1390
      9  N         22.2810  -21.7210  -10.2340 N.ar    1  UNL1       -0.2280
     10  C         23.4650  -21.7000  -10.9270 C.ar    1  UNL1        0.0860
     11  C         24.7780  -21.5600  -10.4580 C.2     1  UNL1        0.0340
     12  C         23.2430  -21.8370  -12.2890 C.ar    1  UNL1        0.0630
     13  C         25.8270  -21.5670  -11.3880 C.2     1  UNL1        0.0090
     14  C         25.5820  -21.7200  -12.7620 C.2     1  UNL1       -0.0600
     15  C         26.7290  -21.6870  -13.7320 C.3     1  UNL1        0.0480
     16  C         24.2660  -21.8440  -13.2400 C.2     1  UNL1        0.0380
     17  N         21.8800  -21.9380  -12.3950 N.ar    1  UNL1       -0.3380
     18  H         21.3640  -22.0180  -13.2550 H       1  UNL1        0.1670
     19  N         17.5900  -22.3370   -7.9140 N.am    1  UNL1       -0.3220
     20  C         17.8050  -23.3950   -7.0490 C.2     1  UNL1        0.2560
     21  O         18.4400  -24.4190   -7.2510 O.2     1  UNL1       -0.2670
     22  H         16.9890  -21.6040   -7.5650 H       1  UNL1        0.1690
     23  C         17.1490  -23.2150   -5.7250 C.2     1  UNL1        0.0380
     24  C         16.0090  -23.9840   -5.4350 C.2     1  UNL1        0.0170
     25  C         15.3650  -23.8420   -4.2070 C.2     1  UNL1        0.0010
     26  C         15.8500  -22.9300   -3.2720 C.2     1  UNL1        0.0010
     27  C         16.9790  -22.1570   -3.5610 C.2     1  UNL1        0.0070
     28  C         17.6470  -22.2920   -4.7880 C.2     1  UNL1       -0.0460
     29  C         18.8460  -21.4340   -5.0760 C.3     1  UNL1        0.0490
@<TRIPOS>BOND
     1    15    14    1
     2    18    17    1
     3    16    14    2
     4    16    12    1
     5    14    13    1
     6    17    12   ar
     7    17     8   ar
     8    12    10   ar
     9     2     3    1
    10     2     1    2
    11     3     4    2
    12    13    11    2
    13     8     1    1
    14     8     9   ar
    15    10    11    1
    16    10     9   ar
    17     1     7    1
    18     4     5    1
    19     4     6    1
    20     7     6    2
    21     6    19    1
    22    19    22    1
    23    19    20   am
    24    21    20    2
    25    20    23    1
    26    23    24    2
    27    23    28    1
    28    24    25    1
    29    29    28    1
    30    28    27    2
    31    25    26    2
    32    27    26    1
