@<TRIPOS>MOLECULE
77440_out_ligand_01.pdbqt
 31 34 0 0 0
SMALL
GASTEIGER

@<TRIPOS>ATOM
      1  C         21.2010  -23.0990   -9.9830 C.2     1  UNL1        0.0330
      2  C         20.8430  -22.2560  -11.0330 C.2     1  UNL1        0.0190
      3  C         21.8220  -21.7760  -11.9110 C.2     1  UNL1        0.0310
      4  C         23.1770  -22.1170  -11.7690 C.2     1  UNL1        0.0430
      5  C         23.5360  -22.9100  -10.6580 C.2     1  UNL1       -0.0300
      6  C         22.5490  -23.4090   -9.7880 C.2     1  UNL1        0.0260
      7  C         24.9690  -23.2760  -10.3860 C.3     1  UNL1        0.0420
      8  C         25.8760  -22.1820  -10.9060 C.3     1  UNL1        0.0250
      9  C         25.5890  -21.9580  -12.3800 C.3     1  UNL1        0.1330
     10  N         24.1860  -21.6440  -12.6900 N.am    1  UNL1       -0.3130
     11  C         23.8430  -21.1780  -13.9780 C.2     1  UNL1        0.2610
     12  O         22.7420  -21.2560  -14.5190 O.2     1  UNL1       -0.2670
     13  C         20.1930  -23.6500   -9.0310 C.2     1  UNL1        0.2560
     14  N         19.1690  -22.7760   -8.7080 N.am    1  UNL1       -0.3220
     15  H         19.1440  -21.9080   -9.2240 H       1  UNL1        0.1690
     16  O         20.3280  -24.8070   -8.6540 O.2     1  UNL1       -0.2670
     17  C         18.0980  -22.9870   -7.8070 C.2     1  UNL1        0.0410
     18  C         16.9950  -23.7840   -8.1280 C.2     1  UNL1        0.0300
     19  C         15.9550  -23.9810   -7.2130 C.2     1  UNL1        0.0090
     20  C         16.0020  -23.3940   -5.9490 C.2     1  UNL1       -0.0610
     21  C         14.8720  -23.5780   -4.9820 C.3     1  UNL1        0.0480
     22  C         17.0950  -22.5860   -5.6230 C.2     1  UNL1        0.0150
     23  C         18.1500  -22.3790   -6.5330 C.2     1  UNL1       -0.0350
     24  C         19.2970  -21.5040   -6.1030 C.3     1  UNL1        0.0500
     25  C         24.8990  -20.5880  -14.8210 C.2     1  UNL1        0.0710
     26  C         25.4900  -19.3800  -14.4340 C.2     1  UNL1        0.0200
     27  C         26.5180  -18.8380  -15.2080 C.2     1  UNL1        0.0010
     28  C         26.9650  -19.5080  -16.3500 C.2     1  UNL1        0.0030
     29  C         26.3880  -20.7250  -16.7180 C.2     1  UNL1        0.0430
     30  C         25.3620  -21.2650  -15.9460 C.2     1  UNL1        0.1320
     31  F         24.8220  -22.4350  -16.3150 F       1  UNL1       -0.2050
@<TRIPOS>BOND
     1    29    28    2
     2    29    30    1
     3    28    27    1
     4    31    30    1
     5    30    25    2
     6    27    26    2
     7    25    26    1
     8    25    11    1
     9    12    11    2
    10    11    10   am
    11    10     9    1
    12    10     4    1
    13     9     8    1
    14     3     4    2
    15     3     2    1
    16     4     5    1
    17     2     1    2
    18     8     7    1
    19     5     7    1
    20     5     6    2
    21     1     6    1
    22     1    13    1
    23    15    14    1
    24    13    14   am
    25    13    16    2
    26    14    17    1
    27    18    17    2
    28    18    19    1
    29    17    23    1
    30    19    20    2
    31    23    24    1
    32    23    22    2
    33    20    22    1
    34    20    21    1
