@<TRIPOS>MOLECULE
77453_out_ligand_01.pdbqt
 34 37 0 0 0
SMALL
GASTEIGER

@<TRIPOS>ATOM
      1  C         19.9960  -23.2910   -7.9250 C.2     1  UNL1        0.0800
      2  C         20.7310  -22.1470   -7.6140 C.2     1  UNL1        0.0270
      3  C         22.0410  -22.0220   -8.0860 C.2     1  UNL1        0.0310
      4  C         22.6260  -23.0340   -8.8630 C.2     1  UNL1        0.0340
      5  C         21.8810  -24.1790   -9.1530 C.2     1  UNL1        0.0310
      6  C         20.5720  -24.3170   -8.6780 C.2     1  UNL1        0.0270
      7  N         23.9510  -22.8220   -9.2940 N.am    1  UNL1       -0.3270
      8  C         24.3740  -22.2400  -10.4790 C.2     1  UNL1        0.2310
      9  O         23.6510  -21.7800  -11.3580 O.2     1  UNL1       -0.2720
     10  H         24.6740  -23.1950   -8.6900 H       1  UNL1        0.1690
     11  C         25.8900  -22.2040  -10.6180 C.3     1  UNL1        0.1860
     12  S         26.4900  -23.6580  -11.5100 S.3     1  UNL1       -0.0750
     13  C         25.9810  -23.3090  -13.1370 C.2     1  UNL1        0.2120
     14  N         26.1460  -22.1240  -13.6890 N.2     1  UNL1       -0.1960
     15  C         25.6250  -22.2720  -14.9380 C.2     1  UNL1        0.1870
     16  N         25.5510  -21.3240  -15.8990 N.2     1  UNL1       -0.2320
     17  C         25.1640  -23.5640  -15.1120 C.2     1  UNL1        0.1260
     18  C         24.9790  -21.7400  -17.0560 C.2     1  UNL1        0.0330
     19  C         24.8700  -20.7180  -18.1530 C.3     1  UNL1        0.0700
     20  C         24.4970  -23.0390  -17.2830 C.3     1  UNL1        0.0290
     21  C         24.5840  -24.0120  -16.2850 C.2     1  UNL1        0.0430
     22  O         25.3930  -24.2480  -13.9560 O.2     1  UNL1       -0.2820
     23  S         18.3380  -23.4690   -7.3030 S.O2    1  UNL1        0.2630
     24  O         17.9690  -22.2050   -6.6990 O.2     1  UNL1       -0.2000
     25  O         18.2660  -24.7040   -6.5540 O.2     1  UNL1       -0.2000
     26  N         17.4100  -23.5960   -8.7070 N.pl3   1  UNL1       -0.2810
     27  H         16.4730  -23.9470   -8.5200 H       1  UNL1        0.1790
     28  C         17.5690  -22.6370   -9.7450 C.2     1  UNL1        0.0430
     29  C         16.5080  -21.7830  -10.0450 C.2     1  UNL1        0.0300
     30  C         16.6590  -20.8060  -11.0280 C.2     1  UNL1        0.0030
     31  C         17.8670  -20.6870  -11.7170 C.2     1  UNL1        0.0070
     32  C         18.9300  -21.5540  -11.4370 C.2     1  UNL1       -0.0600
     33  C         20.2410  -21.4090  -12.1520 C.3     1  UNL1        0.0480
     34  C         18.7750  -22.5240  -10.4380 C.2     1  UNL1        0.0370
@<TRIPOS>BOND
     1    19    18    1
     2    20    18    1
     3    20    21    1
     4    18    16    2
     5    21    17    2
     6    16    15    1
     7    17    15    1
     8    17    22    1
     9    15    14    2
    10    22    13    1
    11    14    13    2
    12    13    12    1
    13    33    32    1
    14    31    32    2
    15    31    30    1
    16    12    11    1
    17    32    34    1
    18     9     8    2
    19    30    29    2
    20    11     8    1
    21     8     7   am
    22    34    28    2
    23    29    28    1
    24    28    26    1
    25     7     4    1
    26     7    10    1
    27     5     4    2
    28     5     6    1
    29     4     3    1
    30    26    27    1
    31    26    23    1
    32     6     1    2
    33     3     2    2
    34     1     2    1
    35     1    23    1
    36    23    24    2
    37    23    25    2
