@<TRIPOS>MOLECULE
77452_out_ligand_01.pdbqt
 31 34 0 0 0
SMALL
GASTEIGER

@<TRIPOS>ATOM
      1  C         22.7800  -21.9670  -12.6480 C.2     1  UNL1        0.0320
      2  C         23.0830  -22.6670  -11.4840 C.2     1  UNL1        0.0190
      3  C         22.1060  -22.8470  -10.4960 C.2     1  UNL1        0.0310
      4  C         20.8000  -22.3500  -10.6470 C.2     1  UNL1        0.0430
      5  C         20.5010  -21.6440  -11.8330 C.2     1  UNL1       -0.0300
      6  C         21.4900  -21.4590  -12.8200 C.2     1  UNL1        0.0260
      7  C         19.1450  -21.0390  -12.0840 C.3     1  UNL1        0.0420
      8  C         18.0840  -21.7360  -11.2600 C.3     1  UNL1        0.0250
      9  C         18.5310  -21.7840   -9.8110 C.3     1  UNL1        0.1330
     10  N         19.7920  -22.5190   -9.6290 N.am    1  UNL1       -0.3130
     11  C         19.9630  -23.3860   -8.5320 C.2     1  UNL1        0.2580
     12  O         20.7700  -24.3110   -8.4500 O.2     1  UNL1       -0.2670
     13  C         23.7730  -21.7700  -13.7350 C.2     1  UNL1        0.2510
     14  N         25.0970  -21.8480  -13.3730 N.am    1  UNL1       -0.3530
     15  H         25.3630  -21.9830  -12.4080 H       1  UNL1        0.1630
     16  O         23.3940  -21.5340  -14.8780 O.2     1  UNL1       -0.2680
     17  C         26.1480  -21.7330  -14.3560 C.3     1  UNL1        0.1610
     18  C         26.4090  -20.2900  -14.6940 C.2     1  UNL1       -0.0410
     19  C         26.8790  -19.3990  -13.7220 C.2     1  UNL1        0.0090
     20  C         27.1050  -18.0570  -14.0410 C.2     1  UNL1        0.0070
     21  C         26.8440  -17.5790  -15.3290 C.2     1  UNL1       -0.0620
     22  C         27.1190  -16.1460  -15.6860 C.3     1  UNL1        0.0480
     23  C         26.3680  -18.4680  -16.3010 C.2     1  UNL1        0.0070
     24  C         26.1420  -19.8090  -15.9830 C.2     1  UNL1        0.0090
     25  C         19.0860  -23.2040   -7.3500 C.2     1  UNL1        0.0320
     26  C         18.1460  -24.1960   -7.0420 C.2     1  UNL1        0.0200
     27  C         17.3260  -24.0480   -5.9230 C.2     1  UNL1        0.0430
     28  C         17.4670  -22.9210   -5.1170 C.2     1  UNL1        0.1160
     29  F         16.6780  -22.7800   -4.0430 F       1  UNL1       -0.2060
     30  C         18.4150  -21.9420   -5.4020 C.2     1  UNL1        0.0430
     31  C         19.2370  -22.0830   -6.5210 C.2     1  UNL1        0.0200
@<TRIPOS>BOND
     1    23    24    1
     2    23    21    2
     3    24    18    2
     4    22    21    1
     5    21    20    1
     6    16    13    2
     7    18    17    1
     8    18    19    1
     9    17    14    1
    10    20    19    2
    11    13    14   am
    12    13     1    1
    13    14    15    1
    14     6     1    2
    15     6     5    1
    16     1     2    1
    17     7     5    1
    18     7     8    1
    19     5     4    2
    20     2     3    2
    21     8     9    1
    22     4     3    1
    23     4    10    1
    24     9    10    1
    25    10    11   am
    26    11    12    2
    27    11    25    1
    28    25    26    2
    29    25    31    1
    30    26    27    1
    31    31    30    2
    32    27    28    2
    33    30    28    1
    34    28    29    1
