@<TRIPOS>MOLECULE
77465_out_ligand_01.pdbqt
 30 33 0 0 0
SMALL
GASTEIGER

@<TRIPOS>ATOM
      1  C         21.7260  -21.5690  -12.3090 C.2     1  UNL1        0.0330
      2  C         20.3440  -21.4680  -12.4540 C.2     1  UNL1        0.0190
      3  C         19.5020  -21.7860  -11.3810 C.2     1  UNL1        0.0310
      4  C         20.0070  -22.2120  -10.1420 C.2     1  UNL1        0.0430
      5  C         21.4090  -22.2430   -9.9870 C.2     1  UNL1       -0.0300
      6  C         22.2540  -21.9400  -11.0710 C.2     1  UNL1        0.0260
      7  C         22.0470  -22.6290   -8.6810 C.3     1  UNL1        0.0420
      8  C         21.1280  -22.2570   -7.5380 C.3     1  UNL1        0.0250
      9  C         19.7740  -22.9020   -7.7590 C.3     1  UNL1        0.1330
     10  N         19.1380  -22.5620   -9.0420 N.am    1  UNL1       -0.3130
     11  C         17.7810  -22.8900   -9.2510 C.2     1  UNL1        0.2580
     12  O         17.2190  -23.0610  -10.3300 O.2     1  UNL1       -0.2670
     13  C         22.6640  -21.2540  -13.4250 C.2     1  UNL1        0.2560
     14  N         23.7890  -22.0550  -13.4810 N.am    1  UNL1       -0.3230
     15  H         23.9300  -22.7020  -12.7160 H       1  UNL1        0.1690
     16  O         22.3890  -20.3140  -14.1610 O.2     1  UNL1       -0.2670
     17  C         24.8220  -22.0170  -14.4420 C.2     1  UNL1        0.0350
     18  C         26.1240  -21.6030  -14.1690 C.2     1  UNL1        0.0290
     19  C         27.0900  -21.5950  -15.1800 C.2     1  UNL1        0.0030
     20  C         26.7600  -21.9970  -16.4730 C.2     1  UNL1        0.0070
     21  C         25.4550  -22.3990  -16.7720 C.2     1  UNL1       -0.0600
     22  C         25.1000  -22.8630  -18.1530 C.3     1  UNL1        0.0480
     23  C         24.4960  -22.4170  -15.7470 C.2     1  UNL1        0.0360
     24  C         16.9190  -23.0790   -8.0640 C.2     1  UNL1        0.0320
     25  C         16.5310  -24.3750   -7.7030 C.2     1  UNL1        0.0200
     26  C         15.6950  -24.5560   -6.6000 C.2     1  UNL1        0.0430
     27  C         15.2470  -23.4470   -5.8870 C.2     1  UNL1        0.1160
     28  F         14.4430  -23.6260   -4.8310 F       1  UNL1       -0.2060
     29  C         15.6110  -22.1550   -6.2590 C.2     1  UNL1        0.0430
     30  C         16.4460  -21.9650   -7.3590 C.2     1  UNL1        0.0200
@<TRIPOS>BOND
     1    22    21    1
     2    21    20    2
     3    21    23    1
     4    20    19    1
     5    23    17    2
     6    19    18    2
     7    17    18    1
     8    17    14    1
     9    16    13    2
    10    14    13   am
    11    14    15    1
    12    13     1    1
    13     2     1    2
    14     2     3    1
    15     1     6    1
    16     3     4    2
    17     6     5    2
    18    12    11    2
    19     4     5    1
    20     4    10    1
    21     5     7    1
    22    11    10   am
    23    11    24    1
    24    10     9    1
    25     7     8    1
    26    24    25    2
    27    24    30    1
    28     9     8    1
    29    25    26    1
    30    30    29    2
    31    26    27    2
    32    29    27    1
    33    27    28    1
