@<TRIPOS>MOLECULE
77462_out_ligand_01.pdbqt
 29 32 0 0 0
SMALL
GASTEIGER

@<TRIPOS>ATOM
      1  C         23.0780  -22.1530  -12.3960 C.2     1  UNL1        0.0330
      2  C         23.2580  -22.9070  -11.2380 C.2     1  UNL1        0.0190
      3  C         22.1990  -23.0710  -10.3360 C.2     1  UNL1        0.0310
      4  C         20.9350  -22.4990  -10.5660 C.2     1  UNL1        0.0430
      5  C         20.7710  -21.7160  -11.7300 C.2     1  UNL1       -0.0300
      6  C         21.8450  -21.5380  -12.6250 C.2     1  UNL1        0.0260
      7  C         19.4760  -21.0180  -12.0470 C.3     1  UNL1        0.0420
      8  C         18.3150  -21.6840  -11.3380 C.3     1  UNL1        0.0250
      9  C         18.6480  -21.8290   -9.8650 C.3     1  UNL1        0.1330
     10  N         19.8430  -22.6570   -9.6350 N.am    1  UNL1       -0.3130
     11  C         19.8790  -23.5900   -8.5810 C.2     1  UNL1        0.2580
     12  O         20.6220  -24.5660   -8.5040 O.2     1  UNL1       -0.2670
     13  C         24.1740  -21.9550  -13.3840 C.2     1  UNL1        0.2560
     14  N         23.7470  -21.7320  -14.6810 N.am    1  UNL1       -0.3230
     15  H         22.7510  -21.6250  -14.8220 H       1  UNL1        0.1690
     16  O         25.3290  -21.9650  -12.9750 O.2     1  UNL1       -0.2670
     17  C         24.5460  -21.5420  -15.8270 C.2     1  UNL1        0.0350
     18  C         24.6730  -22.6270  -16.7040 C.2     1  UNL1        0.0290
     19  C         25.4480  -22.5220  -17.8620 C.2     1  UNL1        0.0030
     20  C         26.1090  -21.3300  -18.1530 C.2     1  UNL1        0.0070
     21  C         26.0040  -20.2400  -17.2840 C.2     1  UNL1       -0.0600
     22  C         26.6920  -18.9420  -17.5910 C.3     1  UNL1        0.0480
     23  C         25.2140  -20.3530  -16.1260 C.2     1  UNL1        0.0360
     24  C         18.9320  -23.4140   -7.4520 C.2     1  UNL1        0.0320
     25  C         19.0610  -22.3290   -6.5730 C.2     1  UNL1        0.0170
     26  C         18.1720  -22.1980   -5.5040 C.2     1  UNL1        0.0010
     27  C         17.1720  -23.1520   -5.3030 C.2     1  UNL1        0.0000
     28  C         17.0580  -24.2440   -6.1680 C.2     1  UNL1        0.0010
     29  C         17.9430  -24.3800   -7.2400 C.2     1  UNL1        0.0170
@<TRIPOS>BOND
     1    20    19    2
     2    20    21    1
     3    19    18    1
     4    22    21    1
     5    21    23    2
     6    18    17    2
     7    23    17    1
     8    17    14    1
     9    15    14    1
    10    14    13   am
    11    13    16    2
    12    13     1    1
    13     6     1    2
    14     6     5    1
    15     1     2    1
    16     7     5    1
    17     7     8    1
    18     5     4    2
    19     8     9    1
    20     2     3    2
    21     4     3    1
    22     4    10    1
    23     9    10    1
    24    10    11   am
    25    11    12    2
    26    11    24    1
    27    24    29    2
    28    24    25    1
    29    29    28    1
    30    25    26    2
    31    28    27    2
    32    26    27    1
