@<TRIPOS>MOLECULE
77466_out_ligand_01.pdbqt
 30 33 0 0 0
SMALL
GASTEIGER

@<TRIPOS>ATOM
      1  C         23.0700  -22.0990  -12.4120 C.2     1  UNL1        0.0330
      2  C         23.2370  -22.9150  -11.2950 C.2     1  UNL1        0.0190
      3  C         22.1790  -23.1020  -10.3950 C.2     1  UNL1        0.0310
      4  C         20.9220  -22.5060  -10.5930 C.2     1  UNL1        0.0430
      5  C         20.7570  -21.7020  -11.7430 C.2     1  UNL1       -0.0300
      6  C         21.8280  -21.5040  -12.6360 C.2     1  UNL1        0.0260
      7  C         19.4590  -21.0020  -12.0480 C.3     1  UNL1        0.0420
      8  C         18.3010  -21.6760  -11.3440 C.3     1  UNL1        0.0250
      9  C         18.6430  -21.8360   -9.8750 C.3     1  UNL1        0.1330
     10  N         19.8350  -22.6700   -9.6560 N.am    1  UNL1       -0.3130
     11  C         19.8920  -23.5730   -8.5760 C.2     1  UNL1        0.2610
     12  O         20.6580  -24.5280   -8.4650 O.2     1  UNL1       -0.2670
     13  C         24.1670  -21.8570  -13.3920 C.2     1  UNL1        0.2560
     14  O         25.3120  -21.7520  -12.9680 O.2     1  UNL1       -0.2670
     15  N         23.7700  -21.8180  -14.7170 N.am    1  UNL1       -0.3230
     16  H         22.8070  -22.0580  -14.9130 H       1  UNL1        0.1690
     17  C         24.5800  -21.5710  -15.8470 C.2     1  UNL1        0.0360
     18  C         24.7720  -22.6380  -16.7380 C.2     1  UNL1        0.0290
     19  C         25.5560  -22.4800  -17.8840 C.2     1  UNL1        0.0040
     20  C         26.1510  -21.2510  -18.1530 C.2     1  UNL1        0.0240
     21  C         25.9590  -20.1880  -17.2740 C.2     1  UNL1        0.0360
     22 CL         26.6950  -18.6680  -17.6130 Cl      1  UNL1       -0.0840
     23  C         25.1780  -20.3400  -16.1260 C.2     1  UNL1        0.0530
     24  C         18.9260  -23.4230   -7.4680 C.2     1  UNL1        0.0710
     25  C         17.8860  -24.3520   -7.3410 C.2     1  UNL1        0.0200
     26  C         16.9840  -24.2420   -6.2820 C.2     1  UNL1        0.0010
     27  C         17.1280  -23.2190   -5.3420 C.2     1  UNL1        0.0030
     28  C         18.1810  -22.3090   -5.4560 C.2     1  UNL1        0.0430
     29  C         19.0800  -22.4200   -6.5140 C.2     1  UNL1        0.1320
     30  F         20.0910  -21.5440   -6.5930 F       1  UNL1       -0.2050
@<TRIPOS>BOND
     1    20    19    2
     2    20    21    1
     3    19    18    1
     4    22    21    1
     5    21    23    2
     6    18    17    2
     7    23    17    1
     8    17    15    1
     9    16    15    1
    10    15    13   am
    11    13    14    2
    12    13     1    1
    13     6     1    2
    14     6     5    1
    15     1     2    1
    16     7     5    1
    17     7     8    1
    18     5     4    2
    19     8     9    1
    20     2     3    2
    21     4     3    1
    22     4    10    1
    23     9    10    1
    24    10    11   am
    25    11    12    2
    26    11    24    1
    27    24    25    2
    28    24    29    1
    29    25    26    1
    30    30    29    1
    31    29    28    2
    32    26    27    2
    33    28    27    1
