@<TRIPOS>MOLECULE
77478_out_ligand_01.pdbqt
 29 32 0 0 0
SMALL
GASTEIGER

@<TRIPOS>ATOM
      1  C         23.0190  -22.0080  -12.3640 C.2     1  UNL1        0.0330
      2  C         23.2050  -22.7360  -11.1900 C.2     1  UNL1        0.0190
      3  C         22.1510  -22.8790  -10.2790 C.2     1  UNL1        0.0310
      4  C         20.8900  -22.3050  -10.5080 C.2     1  UNL1        0.0430
      5  C         20.6930  -21.6320  -11.7330 C.2     1  UNL1       -0.0300
      6  C         21.7590  -21.4730  -12.6400 C.2     1  UNL1        0.0260
      7  C         19.3630  -21.0340  -12.0970 C.3     1  UNL1        0.0420
      8  C         18.2540  -21.8270  -11.4400 C.3     1  UNL1        0.0250
      9  C         18.5000  -21.8770   -9.9440 C.3     1  UNL1        0.1330
     10  N         19.8080  -22.4330   -9.5590 N.am    1  UNL1       -0.3130
     11  C         20.0480  -22.7660   -8.2090 C.2     1  UNL1        0.2580
     12  O         21.1390  -22.8450   -7.6490 O.2     1  UNL1       -0.2670
     13  C         24.1140  -21.8160  -13.3580 C.2     1  UNL1        0.2560
     14  O         25.2640  -21.7490  -12.9440 O.2     1  UNL1       -0.2670
     15  N         23.6970  -21.7710  -14.6760 N.am    1  UNL1       -0.3230
     16  H         22.7230  -21.9740  -14.8570 H       1  UNL1        0.1690
     17  C         24.4960  -21.5620  -15.8200 C.2     1  UNL1        0.0350
     18  C         25.1550  -20.3660  -16.1040 C.2     1  UNL1        0.0290
     19  C         25.9240  -20.2370  -17.2660 C.2     1  UNL1        0.0020
     20  C         26.0390  -21.3050  -18.1530 C.2     1  UNL1        0.0000
     21  C         25.3840  -22.5020  -17.8810 C.2     1  UNL1        0.0020
     22  C         24.6150  -22.6290  -16.7210 C.2     1  UNL1        0.0290
     23  C         18.8830  -23.0360   -7.3390 C.2     1  UNL1        0.0320
     24  C         18.1280  -24.2010   -7.5230 C.2     1  UNL1        0.0200
     25  C         17.0480  -24.4580   -6.6780 C.2     1  UNL1        0.0430
     26  C         16.7470  -23.5610   -5.6550 C.2     1  UNL1        0.1160
     27  F         15.7100  -23.8110   -4.8460 F       1  UNL1       -0.2060
     28  C         17.5100  -22.4130   -5.4550 C.2     1  UNL1        0.0430
     29  C         18.5910  -22.1500   -6.2960 C.2     1  UNL1        0.0200
@<TRIPOS>BOND
     1    20    21    2
     2    20    19    1
     3    21    22    1
     4    19    18    2
     5    22    17    2
     6    18    17    1
     7    17    15    1
     8    16    15    1
     9    15    13   am
    10    13    14    2
    11    13     1    1
    12     6     1    2
    13     6     5    1
    14     1     2    1
    15     7     5    1
    16     7     8    1
    17     5     4    2
    18     8     9    1
    19     2     3    2
    20     4     3    1
    21     4    10    1
    22     9    10    1
    23    10    11   am
    24    11    12    2
    25    11    23    1
    26    24    23    2
    27    24    25    1
    28    23    29    1
    29    25    26    2
    30    29    28    2
    31    26    28    1
    32    26    27    1
