@<TRIPOS>MOLECULE
77471_out_ligand_01.pdbqt
 31 34 0 0 0
SMALL
GASTEIGER

@<TRIPOS>ATOM
      1  C         21.7130  -21.6310  -12.3280 C.2     1  UNL1        0.0330
      2  C         20.4190  -21.1260  -12.2050 C.2     1  UNL1        0.0190
      3  C         19.5960  -21.5500  -11.1540 C.2     1  UNL1        0.0310
      4  C         20.0220  -22.5030  -10.2140 C.2     1  UNL1        0.0430
      5  C         21.3240  -23.0270  -10.3630 C.2     1  UNL1       -0.0300
      6  C         22.1570  -22.5860  -11.4100 C.2     1  UNL1        0.0260
      7  C         21.8900  -24.0460   -9.4100 C.3     1  UNL1        0.0420
      8  C         20.7810  -24.7930   -8.7000 C.3     1  UNL1        0.0250
      9  C         19.8150  -23.7900   -8.0980 C.3     1  UNL1        0.1330
     10  N         19.1910  -22.9210   -9.1090 N.am    1  UNL1       -0.3130
     11  C         17.8370  -22.5520   -8.9950 C.2     1  UNL1        0.2580
     12  O         17.1090  -22.1480   -9.8990 O.2     1  UNL1       -0.2670
     13  C         22.6360  -21.2050  -13.4210 C.2     1  UNL1        0.2560
     14  N         23.8200  -21.9160  -13.4970 N.am    1  UNL1       -0.3230
     15  H         23.9140  -22.7170  -12.8860 H       1  UNL1        0.1690
     16  O         22.2670  -20.3090  -14.1690 O.2     1  UNL1       -0.2670
     17  C         24.8880  -21.7100  -14.3950 C.2     1  UNL1        0.0370
     18  C         26.0220  -21.0590  -13.8960 C.2     1  UNL1        0.0290
     19  C         27.1210  -20.8110  -14.7220 C.2     1  UNL1        0.0050
     20  C         27.0960  -21.2090  -16.0580 C.2     1  UNL1        0.0370
     21  C         25.9720  -21.8550  -16.5710 C.2     1  UNL1        0.0700
     22  C         24.8740  -22.1010  -15.7350 C.2     1  UNL1        0.0660
     23  O         25.8190  -22.2910  -17.8600 O.2     1  UNL1       -0.3560
     24  C         24.6540  -23.0500  -18.1530 C.3     1  UNL1        0.2100
     25  C         17.1890  -22.6590   -7.6640 C.2     1  UNL1        0.0320
     26  C         16.0330  -23.4320   -7.4960 C.2     1  UNL1        0.0180
     27  C         15.4530  -23.5400   -6.2310 C.2     1  UNL1        0.0250
     28  C         16.0360  -22.8910   -5.1410 C.2     1  UNL1        0.0340
     29 CL         15.3170  -23.0260   -3.5840 Cl      1  UNL1       -0.0840
     30  C         17.2010  -22.1400   -5.3020 C.2     1  UNL1        0.0250
     31  C         17.7860  -22.0290   -6.5660 C.2     1  UNL1        0.0180
@<TRIPOS>BOND
     1    24    23    1
     2    23    21    1
     3    21    20    2
     4    21    22    1
     5    20    19    1
     6    22    17    2
     7    19    18    2
     8    17    18    1
     9    17    14    1
    10    16    13    2
    11    14    13   am
    12    14    15    1
    13    13     1    1
    14     1     2    2
    15     1     6    1
    16     2     3    1
    17     6     5    2
    18     3     4    2
    19     5     4    1
    20     5     7    1
    21     4    10    1
    22    12    11    2
    23     7     8    1
    24    10    11   am
    25    10     9    1
    26    11    25    1
    27     8     9    1
    28    25    26    2
    29    25    31    1
    30    26    27    1
    31    31    30    2
    32    27    28    2
    33    30    28    1
    34    28    29    1
