@<TRIPOS>MOLECULE
77488_out_ligand_01.pdbqt
 35 38 0 0 0
SMALL
GASTEIGER

@<TRIPOS>ATOM
      1  C         18.1540  -23.2790   -9.6370 C.3     1  UNL1        0.1290
      2  C         17.4420  -22.6200  -10.8210 C.3     1  UNL1        0.1220
      3  C         18.2310  -21.5080  -11.4760 C.2     1  UNL1        0.2240
      4  O         17.6940  -20.6500  -12.1700 O.2     1  UNL1       -0.2730
      5  N         19.5880  -21.5360  -11.3230 N.am    1  UNL1       -0.3110
      6  C         20.2950  -22.4080  -10.5550 C.ar    1  UNL1        0.1450
      7  N         21.6500  -22.2900  -10.6500 N.ar    1  UNL1       -0.2060
      8  C         22.3440  -23.0760   -9.8990 C.ar    1  UNL1        0.1710
      9  N         21.8090  -23.9900   -9.0500 N.ar    1  UNL1       -0.3020
     10  C         20.4650  -24.1690   -8.9350 C.ar    1  UNL1        0.2580
     11  O         19.9740  -25.0290   -8.2200 O.2     1  UNL1       -0.2670
     12  C         19.6450  -23.2560   -9.7500 C.ar    1  UNL1        0.0700
     13  H         20.1160  -20.8520  -11.8520 H       1  UNL1        0.1700
     14  H         22.4170  -24.5860   -8.5090 H       1  UNL1        0.1710
     15  C         17.7090  -22.6300   -8.3190 C.2     1  UNL1        0.2310
     16  N         18.6140  -22.7650   -7.2820 N.am    1  UNL1       -0.3240
     17  H         19.4890  -23.2550   -7.4440 H       1  UNL1        0.1690
     18  O         16.6440  -22.0210   -8.2630 O.2     1  UNL1       -0.2720
     19  C         18.5030  -22.2970   -5.9540 C.2     1  UNL1        0.0680
     20  C         19.1000  -21.1260   -5.4870 C.2     1  UNL1        0.0320
     21  C         18.9350  -20.7370   -4.1560 C.2     1  UNL1        0.0020
     22  C         18.1730  -21.5140   -3.2870 C.2     1  UNL1        0.0030
     23  C         17.5690  -22.6890   -3.7430 C.2     1  UNL1        0.0390
     24  C         17.7310  -23.0870   -5.0720 C.2     1  UNL1        0.0950
     25  O         17.1780  -24.2190   -5.6300 O.2     1  UNL1       -0.3540
     26  C         15.7600  -24.2590   -5.7280 C.3     1  UNL1        0.2100
     27  S         24.0760  -23.0840   -9.8620 S.3     1  UNL1       -0.0870
     28  C         24.4340  -21.7070  -10.9880 C.3     1  UNL1        0.1210
     29  C         24.5520  -22.1800  -12.4140 C.2     1  UNL1       -0.0490
     30  C         24.0520  -21.4010  -13.4680 C.2     1  UNL1        0.0080
     31  C         24.1720  -21.8330  -14.7900 C.2     1  UNL1        0.0070
     32  C         24.8050  -23.0450  -15.0870 C.2     1  UNL1       -0.0620
     33  C         24.9110  -23.5280  -16.5030 C.3     1  UNL1        0.0480
     34  C         25.2990  -23.8280  -14.0380 C.2     1  UNL1        0.0070
     35  C         25.1810  -23.3960  -12.7150 C.2     1  UNL1        0.0080
@<TRIPOS>BOND
     1    33    32    1
     2    32    31    2
     3    32    34    1
     4    31    30    1
     5    34    35    2
     6    30    29    2
     7    35    29    1
     8    29    28    1
     9     4     3    2
    10    13     5    1
    11     3     5   am
    12     3     2    1
    13     5     6    1
    14    28    27    1
    15     2     1    1
    16     7     6   ar
    17     7     8   ar
    18     6    12   ar
    19     8    27    1
    20     8     9   ar
    21    12     1    1
    22    12    10   ar
    23     1    15    1
    24     9    10   ar
    25     9    14    1
    26    10    11    2
    27    15    18    2
    28    15    16   am
    29    17    16    1
    30    16    19    1
    31    19    20    2
    32    19    24    1
    33    26    25    1
    34    25    24    1
    35    20    21    1
    36    24    23    2
    37    21    22    2
    38    23    22    1
