@<TRIPOS>MOLECULE
77486_out_ligand_01.pdbqt
 30 33 0 0 0
SMALL
GASTEIGER

@<TRIPOS>ATOM
      1  C         21.6510  -21.6840  -12.2830 C.2     1  UNL1        0.0330
      2  C         20.3510  -21.1910  -12.1840 C.2     1  UNL1        0.0190
      3  C         19.5120  -21.6250  -11.1490 C.2     1  UNL1        0.0310
      4  C         19.9290  -22.5750  -10.2020 C.2     1  UNL1        0.0430
      5  C         21.2400  -23.0860  -10.3280 C.2     1  UNL1       -0.0300
      6  C         22.0870  -22.6360  -11.3600 C.2     1  UNL1        0.0260
      7  C         21.8020  -24.0950   -9.3620 C.3     1  UNL1        0.0420
      8  C         20.6920  -24.8450   -8.6570 C.3     1  UNL1        0.0250
      9  C         19.7070  -23.8450   -8.0810 C.3     1  UNL1        0.1330
     10  N         19.0820  -23.0060   -9.1150 N.am    1  UNL1       -0.3130
     11  C         17.7230  -22.6480   -9.0230 C.2     1  UNL1        0.2610
     12  O         17.0130  -22.2430   -9.9430 O.2     1  UNL1       -0.2670
     13  C         22.5870  -21.2470  -13.3580 C.2     1  UNL1        0.2560
     14  N         23.7610  -21.9730  -13.4400 N.am    1  UNL1       -0.3230
     15  H         23.8380  -22.7890  -12.8470 H       1  UNL1        0.1690
     16  O         22.2370  -20.3280  -14.0900 O.2     1  UNL1       -0.2670
     17  C         24.8410  -21.7650  -14.3240 C.2     1  UNL1        0.0350
     18  C         25.9730  -21.1230  -13.8080 C.2     1  UNL1        0.0290
     19  C         27.0800  -20.8680  -14.6220 C.2     1  UNL1        0.0030
     20  C         27.0660  -21.2550  -15.9600 C.2     1  UNL1        0.0070
     21  C         25.9480  -21.9060  -16.4900 C.2     1  UNL1       -0.0600
     22  C         25.9090  -22.2940  -17.9400 C.3     1  UNL1        0.0480
     23  C         24.8350  -22.1450  -15.6680 C.2     1  UNL1        0.0360
     24  C         17.0280  -22.8010   -7.7290 C.2     1  UNL1        0.0710
     25  C         17.4280  -22.0110   -6.6450 C.2     1  UNL1        0.0200
     26  C         16.8010  -22.1660   -5.4060 C.2     1  UNL1        0.0010
     27  C         15.7910  -23.1180   -5.2460 C.2     1  UNL1        0.0030
     28  C         15.4100  -23.9210   -6.3230 C.2     1  UNL1        0.0430
     29  C         16.0370  -23.7650   -7.5580 C.2     1  UNL1        0.1320
     30  F         15.6650  -24.5600   -8.5710 F       1  UNL1       -0.2050
@<TRIPOS>BOND
     1    22    21    1
     2    21    20    2
     3    21    23    1
     4    20    19    1
     5    23    17    2
     6    19    18    2
     7    17    18    1
     8    17    14    1
     9    16    13    2
    10    14    13   am
    11    14    15    1
    12    13     1    1
    13     1     2    2
    14     1     6    1
    15     2     3    1
    16     6     5    2
    17     3     4    2
    18     5     4    1
    19     5     7    1
    20     4    10    1
    21    12    11    2
    22     7     8    1
    23    10    11   am
    24    10     9    1
    25    11    24    1
    26     8     9    1
    27    30    29    1
    28    24    29    2
    29    24    25    1
    30    29    28    1
    31    25    26    2
    32    28    27    2
    33    26    27    1
