@<TRIPOS>MOLECULE
77490_out_ligand_01.pdbqt
 31 34 0 0 0
SMALL
GASTEIGER

@<TRIPOS>ATOM
      1  C         20.1350  -22.8090   -8.3050 C.2     1  UNL1        0.2580
      2  O         21.2220  -22.9580   -7.7520 O.2     1  UNL1       -0.2670
      3  N         19.9070  -22.4500   -9.6520 N.am    1  UNL1       -0.3130
      4  C         18.6010  -21.8940  -10.0410 C.3     1  UNL1        0.1330
      5  C         18.3720  -21.7970  -11.5370 C.3     1  UNL1        0.0250
      6  C         19.4940  -20.9930  -12.1590 C.3     1  UNL1        0.0420
      7  C         20.8130  -21.6220  -11.8070 C.2     1  UNL1       -0.0300
      8  C         21.8860  -21.4590  -12.7050 C.2     1  UNL1        0.0260
      9  C         23.1360  -22.0180  -12.4340 C.2     1  UNL1        0.0330
     10  C         23.3040  -22.7760  -11.2770 C.2     1  UNL1        0.0190
     11  C         22.2440  -22.9240  -10.3740 C.2     1  UNL1        0.0310
     12  C         20.9930  -22.3260  -10.5960 C.2     1  UNL1        0.0430
     13  C         24.2410  -21.8170  -13.4140 C.2     1  UNL1        0.2560
     14  O         25.3930  -21.8990  -13.0070 O.2     1  UNL1       -0.2670
     15  N         23.8220  -21.5980  -14.7140 N.am    1  UNL1       -0.3220
     16  H         22.8340  -21.7050  -14.8870 H       1  UNL1        0.1690
     17  C         24.6210  -21.3370  -15.8540 C.2     1  UNL1        0.0410
     18  C         25.2580  -20.1060  -16.0590 C.2     1  UNL1        0.0370
     19  C         26.0500  -19.8700  -17.1940 C.2     1  UNL1       -0.0600
     20  C         26.6960  -18.5310  -17.3990 C.3     1  UNL1        0.0480
     21  C         26.1800  -20.8730  -18.1530 C.2     1  UNL1        0.0070
     22  C         25.5490  -22.1020  -17.9690 C.2     1  UNL1        0.0090
     23  C         24.7690  -22.3510  -16.8270 C.2     1  UNL1       -0.0350
     24  C         24.1150  -23.7000  -16.6930 C.3     1  UNL1        0.0500
     25  C         18.9600  -23.0040   -7.4320 C.2     1  UNL1        0.0320
     26  C         18.2300  -24.1940   -7.5020 C.2     1  UNL1        0.0170
     27  C         17.1320  -24.3770   -6.6600 C.2     1  UNL1        0.0070
     28  C         16.7640  -23.3770   -5.7470 C.2     1  UNL1       -0.0620
     29  C         15.6080  -23.5970   -4.8140 C.3     1  UNL1        0.0480
     30  C         17.5290  -22.2050   -5.6630 C.2     1  UNL1        0.0070
     31  C         18.6270  -22.0150   -6.5020 C.2     1  UNL1        0.0170
@<TRIPOS>BOND
     1    21    22    2
     2    21    19    1
     3    22    23    1
     4    20    19    1
     5    19    18    2
     6    23    24    1
     7    23    17    2
     8    18    17    1
     9    17    15    1
    10    16    15    1
    11    15    13   am
    12    13    14    2
    13    13     9    1
    14     8     9    1
    15     8     7    2
    16     9    10    2
    17     6     7    1
    18     6     5    1
    19     7    12    1
    20     5     4    1
    21    10    11    1
    22    12    11    2
    23    12     3    1
    24     4     3    1
    25     3     1   am
    26     1     2    2
    27     1    25    1
    28    26    25    2
    29    26    27    1
    30    25    31    1
    31    27    28    2
    32    31    30    2
    33    28    30    1
    34    28    29    1
