@<TRIPOS>MOLECULE
77495_out_ligand_01.pdbqt
 31 34 0 0 0
SMALL
GASTEIGER

@<TRIPOS>ATOM
      1  C         24.1370  -21.1150  -14.2510 C.2     1  UNL1        0.2580
      2  O         23.0160  -21.2690  -14.7310 O.2     1  UNL1       -0.2670
      3  N         24.5790  -21.5300  -12.9750 N.am    1  UNL1       -0.3130
      4  C         26.0170  -21.7450  -12.7440 C.3     1  UNL1        0.1330
      5  C         26.4030  -21.9080  -11.2860 C.3     1  UNL1        0.0250
      6  C         25.6060  -23.0440  -10.6850 C.3     1  UNL1        0.0420
      7  C         24.1380  -22.7900  -10.8850 C.2     1  UNL1       -0.0300
      8  C         23.2390  -23.3330   -9.9460 C.2     1  UNL1        0.0260
      9  C         21.8630  -23.1300  -10.0720 C.2     1  UNL1        0.0330
     10  C         21.3850  -22.3520  -11.1250 C.2     1  UNL1        0.0190
     11  C         22.2770  -21.8260  -12.0680 C.2     1  UNL1        0.0310
     12  C         23.6600  -22.0580  -11.9930 C.2     1  UNL1        0.0430
     13  C         20.9550  -23.7150   -9.0440 C.2     1  UNL1        0.2560
     14  O         21.0820  -24.9030   -8.7710 O.2     1  UNL1       -0.2670
     15  N         20.0190  -22.8370   -8.5290 N.am    1  UNL1       -0.3230
     16  H         19.9550  -21.9260   -8.9630 H       1  UNL1        0.1690
     17  C         19.0700  -23.0950   -7.5170 C.2     1  UNL1        0.0350
     18  C         18.1680  -24.1550   -7.5460 C.2     1  UNL1        0.0300
     19  C         17.2630  -24.3450   -6.4970 C.2     1  UNL1        0.0090
     20  C         17.2440  -23.4810   -5.3940 C.2     1  UNL1       -0.0560
     21  C         16.2510  -23.7180   -4.2890 C.3     1  UNL1        0.0490
     22  C         18.1510  -22.4060   -5.3520 C.2     1  UNL1       -0.0540
     23  C         18.1770  -21.4470   -4.1940 C.3     1  UNL1        0.0490
     24  C         19.0560  -22.2290   -6.4150 C.2     1  UNL1        0.0370
     25  C         25.1100  -20.4400  -15.1370 C.2     1  UNL1        0.0330
     26  C         25.5330  -21.0660  -16.3130 C.2     1  UNL1        0.0170
     27  C         26.4560  -20.4230  -17.1350 C.2     1  UNL1        0.0020
     28  C         26.9670  -19.1730  -16.7720 C.2     1  UNL1        0.0070
     29  C         26.5730  -18.5590  -15.5730 C.2     1  UNL1       -0.0610
     30  C         27.1150  -17.2130  -15.1930 C.3     1  UNL1        0.0480
     31  C         25.6330  -19.2000  -14.7570 C.2     1  UNL1        0.0230
@<TRIPOS>BOND
     1    27    28    2
     2    27    26    1
     3    28    29    1
     4    26    25    2
     5    29    30    1
     6    29    31    2
     7    25    31    1
     8    25     1    1
     9     2     1    2
    10     1     3   am
    11     3     4    1
    12     3    12    1
    13     4     5    1
    14    11    12    1
    15    11    10    2
    16    12     7    2
    17     5     6    1
    18    10     9    1
    19     7     6    1
    20     7     8    1
    21     9     8    2
    22     9    13    1
    23    13    14    2
    24    13    15   am
    25    16    15    1
    26    15    17    1
    27    18    17    2
    28    18    19    1
    29    17    24    1
    30    19    20    2
    31    24    22    2
    32    20    22    1
    33    20    21    1
    34    22    23    1
