@<TRIPOS>MOLECULE
77499_out_ligand_01.pdbqt
 31 34 0 0 0
SMALL
GASTEIGER

@<TRIPOS>ATOM
      1  C         23.3390  -22.2090  -12.5130 C.2     1  UNL1        0.0330
      2  C         23.5860  -22.7200  -11.2400 C.2     1  UNL1        0.0190
      3  C         22.5680  -22.7320  -10.2770 C.2     1  UNL1        0.0310
      4  C         21.2840  -22.2340  -10.5520 C.2     1  UNL1        0.0430
      5  C         21.0370  -21.7390  -11.8510 C.2     1  UNL1       -0.0300
      6  C         22.0590  -21.7420  -12.8200 C.2     1  UNL1        0.0260
      7  C         19.6820  -21.2330  -12.2700 C.3     1  UNL1        0.0420
      8  C         18.8570  -20.8270  -11.0660 C.3     1  UNL1        0.0250
      9  C         18.8710  -21.9540  -10.0510 C.3     1  UNL1        0.1330
     10  N         20.2270  -22.2590   -9.5700 N.am    1  UNL1       -0.3130
     11  C         20.4650  -22.5470   -8.2130 C.2     1  UNL1        0.2610
     12  O         21.5490  -22.4630   -7.6370 O.2     1  UNL1       -0.2670
     13  C         24.3930  -22.1790  -13.5690 C.2     1  UNL1        0.2560
     14  N         24.0450  -21.4780  -14.7110 N.am    1  UNL1       -0.3220
     15  H         23.0490  -21.3850  -14.8550 H       1  UNL1        0.1690
     16  O         25.4210  -22.8190  -13.3880 O.2     1  UNL1       -0.2670
     17  C         24.8560  -21.2820  -15.8580 C.2     1  UNL1        0.0460
     18  C         24.8680  -22.1610  -16.9620 C.2     1  UNL1       -0.0350
     19  C         25.6770  -21.8550  -18.0740 C.2     1  UNL1        0.0090
     20  C         24.1050  -23.4560  -17.0310 C.3     1  UNL1        0.0500
     21  C         26.5090  -20.7410  -18.0770 C.2     1  UNL1        0.0010
     22  C         26.5510  -19.9130  -16.9630 C.2     1  UNL1        0.0090
     23  C         25.7360  -20.1700  -15.8470 C.2     1  UNL1       -0.0350
     24  C         25.8160  -19.2120  -14.6850 C.3     1  UNL1        0.0500
     25  C         19.3290  -22.9380   -7.3520 C.2     1  UNL1        0.0710
     26  C         18.6890  -24.1610   -7.5860 C.2     1  UNL1        0.0200
     27  C         17.5940  -24.5320   -6.8020 C.2     1  UNL1        0.0010
     28  C         17.1310  -23.6780   -5.7980 C.2     1  UNL1        0.0030
     29  C         17.7550  -22.4480   -5.5820 C.2     1  UNL1        0.0430
     30  C         18.8470  -22.0800   -6.3660 C.2     1  UNL1        0.1320
     31  F         19.4190  -20.8880   -6.1500 F       1  UNL1       -0.2050
@<TRIPOS>BOND
     1    21    19    2
     2    21    22    1
     3    19    18    1
     4    20    18    1
     5    22    23    2
     6    18    17    2
     7    17    23    1
     8    17    14    1
     9    23    24    1
    10    15    14    1
    11    14    13   am
    12    13    16    2
    13    13     1    1
    14     6     1    2
    15     6     5    1
    16     1     2    1
    17     7     5    1
    18     7     8    1
    19     5     4    2
    20     2     3    2
    21     8     9    1
    22     4     3    1
    23     4    10    1
    24     9    10    1
    25    10    11   am
    26    11    12    2
    27    11    25    1
    28    26    25    2
    29    26    27    1
    30    25    30    1
    31    27    28    2
    32    30    31    1
    33    30    29    2
    34    28    29    1
