@<TRIPOS>MOLECULE
77491_out_ligand_01.pdbqt
 38 42 0 0 0
SMALL
GASTEIGER

@<TRIPOS>ATOM
      1  C         17.1280  -22.1770  -10.1970 C.ar    1  UNL1        0.1530
      2  N         16.5740  -21.2530  -10.9600 N.ar    1  UNL1       -0.1330
      3  N         17.5770  -20.6330  -11.6750 N.ar    1  UNL1       -0.1280
      4  C         18.7180  -21.1950  -11.3360 C.ar    1  UNL1        0.1740
      5  C         20.0490  -20.9960  -11.7600 C.2     1  UNL1        0.0570
      6  C         21.0180  -21.7730  -11.2580 C.2     1  UNL1        0.0440
      7  C         20.6060  -22.7790  -10.2400 C.2     1  UNL1        0.1140
      8  N         19.4000  -23.0200   -9.8370 N.2     1  UNL1       -0.1580
      9  N         18.4850  -22.1890  -10.4070 N.ar    1  UNL1       -0.1970
     10  S         21.9010  -23.7430   -9.5750 S.3     1  UNL1       -0.0990
     11  C         23.1520  -22.4850   -9.1950 C.3     1  UNL1        0.1840
     12  C         24.0830  -22.1630  -10.3580 C.2     1  UNL1        0.2310
     13  O         24.7210  -21.1190  -10.4160 O.2     1  UNL1       -0.2720
     14  N         24.1070  -23.1790  -11.3060 N.am    1  UNL1       -0.3260
     15  H         23.7020  -24.0700  -11.0430 H       1  UNL1        0.1690
     16  C         24.7270  -23.1490  -12.5760 C.2     1  UNL1        0.0370
     17  C         25.9150  -23.8400  -12.8820 C.2     1  UNL1        0.0320
     18  C         26.4970  -23.7450  -14.1540 C.2     1  UNL1        0.0420
     19  C         25.8720  -22.9570  -15.0920 C.2     1  UNL1        0.1050
     20  C         24.7160  -22.2790  -14.8020 C.2     1  UNL1        0.1070
     21  O         26.2900  -22.7480  -16.3690 O.2     1  UNL1       -0.3230
     22  C         24.1230  -22.3470  -13.5560 C.2     1  UNL1        0.0690
     23  O         24.2540  -21.5590  -15.8630 O.2     1  UNL1       -0.3230
     24  C         25.2460  -21.8830  -16.8610 C.3     1  UNL1        0.3520
     25  C         16.4380  -23.1160   -9.2730 C.3     1  UNL1        0.1030
     26  C         16.1000  -22.4460   -7.9390 C.3     1  UNL1        0.1400
     27  N         15.6490  -23.4500   -6.9610 N.3     1  UNL1       -0.3150
     28  H         14.9360  -24.1200   -7.2520 H       1  UNL1        0.1720
     29  S         16.7810  -24.1130   -5.9120 S.O2    1  UNL1        0.2580
     30  O         17.4110  -25.2340   -6.5780 O.2     1  UNL1       -0.2010
     31  O         16.1240  -24.2590   -4.6330 O.2     1  UNL1       -0.2010
     32  C         17.9600  -22.7920   -5.7590 C.2     1  UNL1        0.0790
     33  C         19.0020  -22.6930   -6.6870 C.2     1  UNL1        0.0260
     34  C         19.9210  -21.6490   -6.5800 C.2     1  UNL1        0.0080
     35  C         19.7990  -20.6970   -5.5570 C.2     1  UNL1       -0.0620
     36  C         20.8090  -19.5920   -5.4400 C.3     1  UNL1        0.0480
     37  C         18.7520  -20.8110   -4.6320 C.2     1  UNL1        0.0080
     38  C         17.8250  -21.8520   -4.7340 C.2     1  UNL1        0.0260
@<TRIPOS>BOND
     1    24    21    1
     2    24    23    1
     3    21    19    1
     4    23    20    1
     5    19    20    2
     6    19    18    1
     7    20    22    1
     8    18    17    2
     9    22    16    2
    10    17    16    1
    11    16    14    1
    12     5     4    1
    13     5     6    2
    14     3     4   ar
    15     3     2   ar
    16     4     9   ar
    17    14    15    1
    18    14    12   am
    19     6     7    1
    20     2     1   ar
    21    13    12    2
    22     9     1   ar
    23     9     8    1
    24    12    11    1
    25     7     8    2
    26     7    10    1
    27     1    25    1
    28    10    11    1
    29    25    26    1
    30    26    27    1
    31    28    27    1
    32    27    29    1
    33    33    34    1
    34    33    32    2
    35    34    35    2
    36    30    29    2
    37    29    32    1
    38    29    31    2
    39    32    38    1
    40    35    36    1
    41    35    37    1
    42    38    37    2
