@<TRIPOS>MOLECULE
77504_out_ligand_01.pdbqt
 31 34 0 0 0
SMALL
GASTEIGER

@<TRIPOS>ATOM
      1  C         19.7120  -22.1520  -10.5310 C.2     1  UNL1        0.0330
      2  C         19.6850  -21.6120  -11.8150 C.2     1  UNL1        0.0190
      3  C         20.8670  -21.5160  -12.5610 C.2     1  UNL1        0.0310
      4  C         22.1010  -21.9510  -12.0510 C.2     1  UNL1        0.0430
      5  C         22.1130  -22.5200  -10.7590 C.2     1  UNL1       -0.0300
      6  C         20.9200  -22.6260  -10.0170 C.2     1  UNL1        0.0260
      7  C         23.3710  -23.0700  -10.1400 C.3     1  UNL1        0.0420
      8  C         24.6020  -22.4670  -10.7830 C.3     1  UNL1        0.0250
      9  C         24.4860  -22.5890  -12.2900 C.3     1  UNL1        0.1330
     10  N         23.3180  -21.8710  -12.8240 N.am    1  UNL1       -0.3130
     11  C         23.4050  -21.1350  -14.0210 C.2     1  UNL1        0.2610
     12  O         22.6440  -20.2330  -14.3700 O.2     1  UNL1       -0.2670
     13  C         18.4810  -22.2750   -9.6990 C.2     1  UNL1        0.2560
     14  N         18.6590  -22.9480   -8.5030 N.am    1  UNL1       -0.3220
     15  H         19.5600  -23.3810   -8.3720 H       1  UNL1        0.1690
     16  O         17.4370  -21.8170  -10.1470 O.2     1  UNL1       -0.2670
     17  C         17.7030  -23.1840   -7.4820 C.2     1  UNL1        0.0410
     18  C         16.6020  -24.0240   -7.6860 C.2     1  UNL1        0.0300
     19  C         15.6680  -24.2380   -6.6750 C.2     1  UNL1        0.0030
     20  C         15.8190  -23.6140   -5.4430 C.2     1  UNL1        0.0070
     21  C         16.9050  -22.7600   -5.2020 C.2     1  UNL1       -0.0540
     22  C         17.0090  -22.1120   -3.8470 C.3     1  UNL1        0.0490
     23  C         17.8610  -22.5370   -6.2270 C.2     1  UNL1       -0.0290
     24  C         19.0390  -21.6220   -5.9880 C.3     1  UNL1        0.0510
     25  C         24.5250  -21.4030  -14.9470 C.2     1  UNL1        0.0710
     26  C         24.4630  -22.5250  -15.7820 C.2     1  UNL1        0.0200
     27  C         25.5260  -22.8090  -16.6420 C.2     1  UNL1        0.0010
     28  C         26.6540  -21.9850  -16.6560 C.2     1  UNL1        0.0030
     29  C         26.7250  -20.8800  -15.8050 C.2     1  UNL1        0.0430
     30  C         25.6630  -20.5990  -14.9480 C.2     1  UNL1        0.1320
     31  F         25.7620  -19.5420  -14.1300 F       1  UNL1       -0.2050
@<TRIPOS>BOND
     1    28    27    2
     2    28    29    1
     3    27    26    1
     4    29    30    2
     5    26    25    2
     6    30    25    1
     7    30    31    1
     8    25    11    1
     9    12    11    2
    10    11    10   am
    11    10     9    1
    12    10     4    1
    13     3     4    2
    14     3     2    1
    15     9     8    1
    16     4     5    1
    17     2     1    2
    18     8     7    1
    19     5     7    1
    20     5     6    2
    21     1     6    1
    22     1    13    1
    23    16    13    2
    24    13    14   am
    25    14    15    1
    26    14    17    1
    27    18    17    2
    28    18    19    1
    29    17    23    1
    30    19    20    2
    31    23    24    1
    32    23    21    2
    33    20    21    1
    34    21    22    1
