@<TRIPOS>MOLECULE
77506_out_ligand_01.pdbqt
 31 34 0 0 0
SMALL
GASTEIGER

@<TRIPOS>ATOM
      1  C         23.1730  -22.2050  -12.0760 C.2     1  UNL1        0.0330
      2  C         23.2250  -23.0270  -10.9540 C.2     1  UNL1        0.0190
      3  C         22.0830  -23.2080  -10.1590 C.2     1  UNL1        0.0310
      4  C         20.8580  -22.5990  -10.4680 C.2     1  UNL1        0.0430
      5  C         20.8120  -21.7820  -11.6210 C.2     1  UNL1       -0.0300
      6  C         21.9660  -21.5910  -12.4090 C.2     1  UNL1        0.0260
      7  C         19.5590  -21.0630  -12.0440 C.3     1  UNL1        0.0420
      8  C         18.3330  -21.7400  -11.4760 C.3     1  UNL1        0.0250
      9  C         18.5120  -21.9350   -9.9830 C.3     1  UNL1        0.1330
     10  N         19.6780  -22.7660   -9.6470 N.am    1  UNL1       -0.3130
     11  C         19.6230  -23.6690   -8.5640 C.2     1  UNL1        0.2580
     12  O         20.4040  -24.5920   -8.3270 O.2     1  UNL1       -0.2670
     13  C         24.3590  -21.9820  -12.9520 C.2     1  UNL1        0.2560
     14  N         24.1250  -21.1870  -14.0550 N.am    1  UNL1       -0.3220
     15  H         23.1670  -20.9180  -14.2550 H       1  UNL1        0.1690
     16  O         25.4130  -22.5380  -12.6620 O.2     1  UNL1       -0.2670
     17  C         25.0500  -20.7540  -15.0320 C.2     1  UNL1        0.0510
     18  C         25.7450  -19.5450  -14.9420 C.2     1  UNL1        0.0310
     19  C         26.6350  -19.1610  -15.9490 C.2     1  UNL1        0.0020
     20  C         26.8370  -19.9750  -17.0590 C.2     1  UNL1        0.0020
     21  C         26.1470  -21.1800  -17.1670 C.2     1  UNL1        0.0210
     22  C         25.2580  -21.5800  -16.1590 C.2     1  UNL1        0.0260
     23  S         24.3790  -23.1390  -16.3340 S.3     1  UNL1       -0.1320
     24  C         24.2350  -23.1900  -18.1410 C.3     1  UNL1        0.0950
     25  C         18.5110  -23.5300   -7.5950 C.2     1  UNL1        0.0320
     26  C         18.6200  -22.6470   -6.5150 C.2     1  UNL1        0.0170
     27  C         17.5720  -22.5480   -5.5960 C.2     1  UNL1        0.0070
     28  C         16.4200  -23.3310   -5.7480 C.2     1  UNL1       -0.0620
     29  C         15.2950  -23.2450   -4.7580 C.3     1  UNL1        0.0480
     30  C         16.3380  -24.2350   -6.8180 C.2     1  UNL1        0.0070
     31  C         17.3830  -24.3410   -7.7350 C.2     1  UNL1        0.0170
@<TRIPOS>BOND
     1    24    23    1
     2    21    20    2
     3    21    22    1
     4    20    19    1
     5    23    22    1
     6    22    17    2
     7    19    18    2
     8    17    18    1
     9    17    14    1
    10    15    14    1
    11    14    13   am
    12    13    16    2
    13    13     1    1
    14     6     1    2
    15     6     5    1
    16     1     2    1
    17     7     5    1
    18     7     8    1
    19     5     4    2
    20     8     9    1
    21     2     3    2
    22     4     3    1
    23     4    10    1
    24     9    10    1
    25    10    11   am
    26    11    12    2
    27    11    25    1
    28    31    25    2
    29    31    30    1
    30    25    26    1
    31    30    28    2
    32    26    27    2
    33    28    27    1
    34    28    29    1
