@<TRIPOS>MOLECULE
77509_out_ligand_01.pdbqt
 34 37 0 0 0
SMALL
GASTEIGER

@<TRIPOS>ATOM
      1  C         22.3010  -22.3150  -11.2140 C.2     1  UNL1        0.0360
      2  C         22.4850  -23.2930  -10.2350 C.2     1  UNL1        0.0300
      3  C         21.4070  -23.7280   -9.4560 C.2     1  UNL1        0.0190
      4  C         20.1330  -23.1840   -9.6430 C.2     1  UNL1        0.0320
      5  C         19.9370  -22.2200  -10.6360 C.2     1  UNL1        0.0190
      6  C         21.0170  -21.7900  -11.4160 C.2     1  UNL1        0.0300
      7  N         23.3300  -21.8370  -12.0490 N.am    1  UNL1       -0.3090
      8  C         24.5550  -21.3240  -11.6760 C.2     1  UNL1        0.3270
      9  N         25.4000  -20.9960  -12.7520 N.am    1  UNL1       -0.2960
     10  O         24.8790  -21.0660  -10.5170 O.2     1  UNL1       -0.2460
     11  C         26.2900  -19.8610  -12.4900 C.3     1  UNL1        0.1440
     12  C         25.3080  -21.5470  -14.0770 C.2     1  UNL1        0.0800
     13  C         27.1210  -19.3430  -13.6540 C.3     1  UNL1        0.1010
     14  S         26.0420  -19.0440  -15.0710 S.3     1  UNL1       -0.1060
     15  C         25.4900  -20.7330  -15.2120 C.2     1  UNL1        0.1210
     16  N         25.3050  -21.1500  -16.4860 N.2     1  UNL1       -0.2440
     17  C         24.9680  -22.4390  -16.6870 C.2     1  UNL1        0.0320
     18  C         24.7640  -22.8860  -18.1020 C.3     1  UNL1        0.0700
     19  C         24.8510  -23.3430  -15.6400 C.2     1  UNL1        0.0350
     20  C         25.0560  -22.9140  -14.3180 C.2     1  UNL1       -0.0300
     21  C         25.0630  -23.9820  -13.2540 C.3     1  UNL1        0.0500
     22  H         23.0950  -21.7180  -13.0240 H       1  UNL1        0.1700
     23  C         19.0160  -23.6740   -8.7890 C.2     1  UNL1        0.2510
     24  O         19.2470  -24.3800   -7.8150 O.2     1  UNL1       -0.2680
     25  N         17.7500  -23.2530   -9.1450 N.am    1  UNL1       -0.3570
     26  H         17.6740  -22.4590   -9.7670 H       1  UNL1        0.1620
     27  C         16.6080  -23.5160   -8.2860 C.3     1  UNL1        0.1270
     28  C         16.2040  -22.2910   -7.4530 C.3     1  UNL1        0.0530
     29  C         16.5980  -22.2650   -5.9810 C.2     1  UNL1       -0.0820
     30  C         15.7810  -22.5660   -4.9540 C.2     1  UNL1       -0.0240
     31  C         16.2100  -22.5790   -3.5130 C.3     1  UNL1        0.0270
     32  C         17.7260  -22.5460   -3.3310 C.3     1  UNL1        0.0040
     33  C         18.3640  -21.5420   -4.2800 C.3     1  UNL1        0.0050
     34  C         18.0450  -21.8810   -5.7380 C.3     1  UNL1        0.0340
@<TRIPOS>BOND
     1    18    17    1
     2    17    16    2
     3    17    19    1
     4    16    15    1
     5    19    20    2
     6    15    14    1
     7    15    12    2
     8    14    13    1
     9    20    12    1
    10    20    21    1
    11    12     9    1
    12    13    11    1
    13    22     7    1
    14     9    11    1
    15     9     8   am
    16     7     8   am
    17     7     1    1
    18     8    10    2
    19     6     1    2
    20     6     5    1
    21     1     2    1
    22     5     4    2
    23     2     3    2
    24    26    25    1
    25     4     3    1
    26     4    23    1
    27    25    23   am
    28    25    27    1
    29    23    24    2
    30    27    28    1
    31    28    29    1
    32    29    34    1
    33    29    30    2
    34    34    33    1
    35    30    31    1
    36    33    32    1
    37    31    32    1
