@<TRIPOS>MOLECULE
77508_out_ligand_01.pdbqt
 32 35 0 0 0
SMALL
GASTEIGER

@<TRIPOS>ATOM
      1  C         22.0100  -21.5700  -12.5350 C.2     1  UNL1        0.0330
      2  C         22.4800  -22.2320  -11.4010 C.2     1  UNL1        0.0190
      3  C         21.6140  -22.4880  -10.3290 C.2     1  UNL1        0.0310
      4  C         20.2670  -22.0960  -10.3530 C.2     1  UNL1        0.0430
      5  C         19.7860  -21.4920  -11.5340 C.2     1  UNL1       -0.0300
      6  C         20.6610  -21.2180  -12.6030 C.2     1  UNL1        0.0260
      7  C         18.3450  -21.0920  -11.6790 C.3     1  UNL1        0.0420
      8  C         17.4790  -22.0210  -10.8560 C.3     1  UNL1        0.0250
      9  C         17.9580  -22.0010   -9.4170 C.3     1  UNL1        0.1330
     10  N         19.3790  -22.3350   -9.2370 N.am    1  UNL1       -0.3130
     11  C         19.8790  -22.5860   -7.9400 C.2     1  UNL1        0.2610
     12  O         21.0490  -22.4980   -7.5710 O.2     1  UNL1       -0.2670
     13  C         22.8920  -21.2600  -13.6980 C.2     1  UNL1        0.2560
     14  N         23.9910  -22.0800  -13.8270 N.am    1  UNL1       -0.3210
     15  H         24.1820  -22.7580  -13.0960 H       1  UNL1        0.1690
     16  O         22.6010  -20.3050  -14.4110 O.2     1  UNL1       -0.2670
     17  C         24.9850  -22.0630  -14.8320 C.2     1  UNL1        0.0680
     18  C         24.9210  -22.8320  -15.9950 C.2     1  UNL1        0.0320
     19  C         25.9470  -22.7660  -16.9390 C.2     1  UNL1        0.0020
     20  C         27.0440  -21.9350  -16.7220 C.2     1  UNL1        0.0030
     21  C         27.1210  -21.1630  -15.5610 C.2     1  UNL1        0.0390
     22  C         26.0960  -21.2160  -14.6140 C.2     1  UNL1        0.0950
     23  O         26.0670  -20.5100  -13.4340 O.2     1  UNL1       -0.3490
     24  C         26.8200  -20.9920  -12.3210 C.3     1  UNL1        0.1710
     25  C         26.0420  -20.8140  -11.0290 C.3     1  UNL1        0.0340
     26  C         18.9260  -22.9310   -6.8710 C.2     1  UNL1        0.0710
     27  C         18.2790  -24.1710   -6.9030 C.2     1  UNL1        0.0200
     28  C         17.3450  -24.4860   -5.9130 C.2     1  UNL1        0.0010
     29  C         17.0490  -23.5610   -4.9090 C.2     1  UNL1        0.0030
     30  C         17.6810  -22.3150   -4.8950 C.2     1  UNL1        0.0430
     31  C         18.6110  -22.0020   -5.8820 C.2     1  UNL1        0.1320
     32  F         19.2080  -20.8030   -5.8520 F       1  UNL1       -0.2050
@<TRIPOS>BOND
     1    19    20    2
     2    19    18    1
     3    20    21    1
     4    18    17    2
     5    21    22    2
     6    17    22    1
     7    17    14    1
     8    22    23    1
     9    16    13    2
    10    14    13   am
    11    14    15    1
    12    13     1    1
    13    23    24    1
    14     6     1    2
    15     6     5    1
    16     1     2    1
    17    24    25    1
    18     7     5    1
    19     7     8    1
    20     5     4    2
    21     2     3    2
    22     8     9    1
    23     4     3    1
    24     4    10    1
    25     9    10    1
    26    10    11   am
    27    11    12    2
    28    11    26    1
    29    27    26    2
    30    27    28    1
    31    26    31    1
    32    28    29    2
    33    31    32    1
    34    31    30    2
    35    29    30    1
