@<TRIPOS>MOLECULE
77500_out_ligand_01.pdbqt
 31 34 0 0 0
SMALL
GASTEIGER

@<TRIPOS>ATOM
      1  C         21.7130  -21.6010  -12.2980 C.2     1  UNL1        0.0330
      2  C         20.4160  -21.1060  -12.1730 C.2     1  UNL1        0.0190
      3  C         19.5900  -21.5540  -11.1330 C.2     1  UNL1        0.0310
      4  C         20.0190  -22.5190  -10.2070 C.2     1  UNL1        0.0430
      5  C         21.3250  -23.0320  -10.3580 C.2     1  UNL1       -0.0300
      6  C         22.1600  -22.5670  -11.3940 C.2     1  UNL1        0.0260
      7  C         21.8940  -24.0600   -9.4160 C.3     1  UNL1        0.0420
      8  C         20.7870  -24.8260   -8.7230 C.3     1  UNL1        0.0250
      9  C         19.8110  -23.8390   -8.1120 C.3     1  UNL1        0.1330
     10  N         19.1850  -22.9610   -9.1130 N.am    1  UNL1       -0.3130
     11  C         17.8290  -22.6030   -8.9980 C.2     1  UNL1        0.2580
     12  O         17.1030  -22.1910   -9.9010 O.2     1  UNL1       -0.2670
     13  C         22.6380  -21.1510  -13.3790 C.2     1  UNL1        0.2560
     14  N         23.8770  -21.7680  -13.3830 N.am    1  UNL1       -0.3230
     15  H         24.0130  -22.5280  -12.7300 H       1  UNL1        0.1690
     16  O         22.2290  -20.3190  -14.1790 O.2     1  UNL1       -0.2670
     17  C         24.9530  -21.5220  -14.2620 C.2     1  UNL1        0.0360
     18  C         26.1000  -20.8090  -13.9110 C.2     1  UNL1        0.0290
     19  C         27.1210  -20.6020  -14.8440 C.2     1  UNL1        0.0040
     20  C         27.0050  -21.1140  -16.1350 C.2     1  UNL1        0.0180
     21  C         25.8740  -21.8440  -16.4970 C.2     1  UNL1        0.0020
     22  C         24.8490  -22.0380  -15.5620 C.2     1  UNL1        0.0480
     23  S         25.7390  -22.4930  -18.1530 S.3     1  UNL1       -0.1340
     24  C         24.1140  -23.2830  -18.0240 C.3     1  UNL1        0.0950
     25  C         17.1800  -22.7350   -7.6700 C.2     1  UNL1        0.0330
     26  C         16.0030  -23.4770   -7.5270 C.2     1  UNL1        0.0170
     27  C         15.4230  -23.6100   -6.2660 C.2     1  UNL1        0.0020
     28  C         16.0210  -23.0120   -5.1540 C.2     1  UNL1        0.0070
     29  C         17.2070  -22.2760   -5.2880 C.2     1  UNL1       -0.0610
     30  C         17.8750  -21.6840   -4.0830 C.3     1  UNL1        0.0480
     31  C         17.7950  -22.1580   -6.5530 C.2     1  UNL1        0.0230
@<TRIPOS>BOND
     1    23    24    1
     2    23    21    1
     3    21    20    2
     4    21    22    1
     5    20    19    1
     6    22    17    2
     7    19    18    2
     8    17    18    1
     9    17    14    1
    10    16    13    2
    11    14    13   am
    12    14    15    1
    13    13     1    1
    14     1     2    2
    15     1     6    1
    16     2     3    1
    17     6     5    2
    18     3     4    2
    19     5     4    1
    20     5     7    1
    21     4    10    1
    22    12    11    2
    23     7     8    1
    24    10    11   am
    25    10     9    1
    26    11    25    1
    27     8     9    1
    28    25    26    2
    29    25    31    1
    30    26    27    1
    31    31    29    2
    32    27    28    2
    33    29    28    1
    34    29    30    1
