@<TRIPOS>MOLECULE
77519_out_ligand_01.pdbqt
 30 33 0 0 0
SMALL
GASTEIGER

@<TRIPOS>ATOM
      1  C         20.1600  -23.5060   -8.6060 C.2     1  UNL1        0.2580
      2  O         20.9320  -24.4480   -8.4360 O.2     1  UNL1       -0.2670
      3  N         20.1120  -22.6470   -9.7220 N.am    1  UNL1       -0.3130
      4  C         18.9140  -21.8340   -9.9840 C.3     1  UNL1        0.1330
      5  C         18.5930  -21.7140  -11.4620 C.3     1  UNL1        0.0250
      6  C         19.7580  -21.0560  -12.1690 C.3     1  UNL1        0.0420
      7  C         21.0480  -21.7580  -11.8370 C.2     1  UNL1       -0.0300
      8  C         22.1210  -21.6020  -12.7370 C.2     1  UNL1        0.0260
      9  C         23.3550  -22.2100  -12.4990 C.2     1  UNL1        0.0330
     10  C         23.5120  -22.9900  -11.3550 C.2     1  UNL1        0.0190
     11  C         22.4520  -23.1300  -10.4470 C.2     1  UNL1        0.0310
     12  C         21.2040  -22.5260  -10.6620 C.2     1  UNL1        0.0430
     13  C         24.4480  -22.0280  -13.5000 C.2     1  UNL1        0.2560
     14  O         25.5950  -22.2800  -13.1510 O.2     1  UNL1       -0.2670
     15  N         24.0290  -21.6240  -14.7560 N.am    1  UNL1       -0.3220
     16  H         23.0320  -21.6050  -14.9120 H       1  UNL1        0.1690
     17  C         24.8320  -21.3160  -15.8820 C.2     1  UNL1        0.0410
     18  C         25.5560  -20.1220  -15.9810 C.2     1  UNL1        0.0300
     19  C         26.3360  -19.8420  -17.1060 C.2     1  UNL1        0.0020
     20  C         26.4030  -20.7520  -18.1530 C.2     1  UNL1        0.0010
     21  C         25.6850  -21.9430  -18.0760 C.2     1  UNL1        0.0090
     22  C         24.8910  -22.2380  -16.9520 C.2     1  UNL1       -0.0350
     23  C         24.1360  -23.5410  -16.9390 C.3     1  UNL1        0.0500
     24  C         19.1840  -23.2810   -7.5120 C.2     1  UNL1        0.0320
     25  C         19.3030  -22.1360   -6.7200 C.2     1  UNL1        0.0170
     26  C         18.3890  -21.9100   -5.6880 C.2     1  UNL1        0.0070
     27  C         17.3380  -22.8110   -5.4610 C.2     1  UNL1       -0.0620
     28  C         16.3730  -22.5820   -4.3320 C.3     1  UNL1        0.0480
     29  C         17.2190  -23.9500   -6.2710 C.2     1  UNL1        0.0070
     30  C         18.1330  -24.1820   -7.3020 C.2     1  UNL1        0.0170
@<TRIPOS>BOND
     1    20    21    2
     2    20    19    1
     3    21    22    1
     4    19    18    2
     5    22    23    1
     6    22    17    2
     7    18    17    1
     8    17    15    1
     9    16    15    1
    10    15    13   am
    11    13    14    2
    12    13     9    1
    13     8     9    1
    14     8     7    2
    15     9    10    2
    16     6     7    1
    17     6     5    1
    18     7    12    1
    19     5     4    1
    20    10    11    1
    21    12    11    2
    22    12     3    1
    23     4     3    1
    24     3     1   am
    25     1     2    2
    26     1    24    1
    27    24    30    2
    28    24    25    1
    29    30    29    1
    30    25    26    2
    31    29    27    2
    32    26    27    1
    33    27    28    1
