@<TRIPOS>MOLECULE
77515_out_ligand_01.pdbqt
 32 35 0 0 0
SMALL
GASTEIGER

@<TRIPOS>ATOM
      1  C         24.0650  -22.4400  -13.1790 C.3     1  UNL1        0.1690
      2  C         22.9250  -21.6380  -12.5530 C.3     1  UNL1        0.0770
      3  C         22.5460  -22.2990  -11.2590 C.2     1  UNL1       -0.0380
      4  C         21.2360  -22.2430  -10.7670 C.2     1  UNL1        0.0250
      5  C         20.9110  -22.8490   -9.5440 C.2     1  UNL1        0.0320
      6  C         21.9130  -23.4790   -8.7940 C.2     1  UNL1        0.0180
      7  C         23.2230  -23.5250   -9.2780 C.2     1  UNL1        0.0190
      8  C         23.5420  -22.9400  -10.5110 C.2     1  UNL1        0.0450
      9  C         24.9510  -22.9670  -10.9880 C.2     1  UNL1        0.2940
     10  O         25.8590  -23.3320  -10.2540 O.2     1  UNL1       -0.2590
     11  O         25.1730  -22.5460  -12.2590 O.3     1  UNL1       -0.3070
     12  C         19.5010  -22.7650   -9.0660 C.2     1  UNL1        0.2560
     13  O         18.7340  -22.0150   -9.6580 O.2     1  UNL1       -0.2670
     14  N         19.1890  -23.5970   -8.0050 N.am    1  UNL1       -0.3230
     15  H         19.8970  -24.2590   -7.7150 H       1  UNL1        0.1690
     16  C         17.9520  -23.6990   -7.3340 C.2     1  UNL1        0.0350
     17  C         16.8980  -24.3040   -8.0290 C.2     1  UNL1        0.0290
     18  C         15.6410  -24.4450   -7.4380 C.2     1  UNL1        0.0030
     19  C         15.4260  -23.9870   -6.1400 C.2     1  UNL1        0.0160
     20  C         16.4690  -23.3880   -5.4210 C.2     1  UNL1        0.0500
     21  C         17.7300  -23.2480   -6.0320 C.2     1  UNL1        0.0450
     22  C         16.2560  -22.8770   -4.0180 C.3     1  UNL1        0.4170
     23  F         15.3030  -21.9040   -3.9370 F       1  UNL1       -0.1660
     24  F         17.3840  -22.3340   -3.4820 F       1  UNL1       -0.1660
     25  F         15.8590  -23.8530   -3.1550 F       1  UNL1       -0.1660
     26  C         24.5350  -21.7930  -14.4670 C.2     1  UNL1       -0.0290
     27  C         24.4260  -22.4510  -15.7000 C.2     1  UNL1        0.0100
     28  C         24.8920  -21.8510  -16.8720 C.2     1  UNL1        0.0070
     29  C         25.4770  -20.5810  -16.8360 C.2     1  UNL1       -0.0620
     30  C         25.9790  -19.9510  -18.1020 C.3     1  UNL1        0.0480
     31  C         25.5980  -19.9240  -15.6070 C.2     1  UNL1        0.0070
     32  C         25.1320  -20.5240  -14.4340 C.2     1  UNL1        0.0100
@<TRIPOS>BOND
     1    30    29    1
     2    28    29    2
     3    28    27    1
     4    29    31    1
     5    27    26    2
     6    31    32    2
     7    26    32    1
     8    26     1    1
     9     1     2    1
    10     1    11    1
    11     2     3    1
    12    11     9    1
    13     3     4    2
    14     3     8    1
    15     9     8    1
    16     9    10    2
    17     4     5    1
    18     8     7    2
    19    13    12    2
    20     5    12    1
    21     5     6    2
    22     7     6    1
    23    12    14   am
    24    17    18    1
    25    17    16    2
    26    14    15    1
    27    14    16    1
    28    18    19    2
    29    16    21    1
    30    19    20    1
    31    21    20    2
    32    20    22    1
    33    22    23    1
    34    22    24    1
    35    22    25    1
