@<TRIPOS>MOLECULE
77524_out_ligand_01.pdbqt
 32 35 0 0 0
SMALL
GASTEIGER

@<TRIPOS>ATOM
      1  C         21.6390  -21.7140  -12.2810 C.2     1  UNL1        0.0330
      2  C         20.2950  -21.3500  -12.2960 C.2     1  UNL1        0.0190
      3  C         19.4420  -21.7690  -11.2660 C.2     1  UNL1        0.0310
      4  C         19.9000  -22.5580  -10.1980 C.2     1  UNL1        0.0430
      5  C         21.2470  -22.9770  -10.2310 C.2     1  UNL1       -0.0300
      6  C         22.1080  -22.5400  -11.2570 C.2     1  UNL1        0.0260
      7  C         21.8190  -23.8700   -9.1640 C.3     1  UNL1        0.0420
      8  C         20.7260  -24.7560   -8.6070 C.3     1  UNL1        0.0250
      9  C         19.5870  -23.8850   -8.1100 C.3     1  UNL1        0.1330
     10  N         19.0300  -22.9720   -9.1210 N.am    1  UNL1       -0.3130
     11  C         17.8100  -22.3090   -8.8600 C.2     1  UNL1        0.2580
     12  O         17.3910  -21.2870   -9.3990 O.2     1  UNL1       -0.2670
     13  C         22.5890  -21.2840  -13.3460 C.2     1  UNL1        0.2560
     14  N         23.8680  -21.7960  -13.2280 N.am    1  UNL1       -0.3230
     15  H         24.0200  -22.4880  -12.5040 H       1  UNL1        0.1690
     16  O         22.1680  -20.5580  -14.2390 O.2     1  UNL1       -0.2670
     17  C         24.9760  -21.5350  -14.0620 C.2     1  UNL1        0.0350
     18  C         26.0570  -20.7320  -13.6950 C.2     1  UNL1        0.0290
     19  C         27.1210  -20.5270  -14.5790 C.2     1  UNL1        0.0030
     20  C         27.1180  -21.1250  -15.8390 C.2     1  UNL1        0.0150
     21  C         26.0440  -21.9350  -16.2200 C.2     1  UNL1        0.0110
     22  C         24.9790  -22.1360  -15.3270 C.2     1  UNL1        0.0440
     23  C         25.9850  -22.6030  -17.5540 C.2     1  UNL1        0.1550
     24  C         24.6410  -22.9260  -18.1510 C.3     1  UNL1        0.0960
     25  O         27.0270  -22.8780  -18.1440 O.2     1  UNL1       -0.2930
     26  C         16.9300  -22.8630   -7.8100 C.2     1  UNL1        0.0320
     27  C         16.7260  -22.1360   -6.6350 C.2     1  UNL1        0.0170
     28  C         15.8850  -22.6480   -5.6470 C.2     1  UNL1        0.0070
     29  C         15.2280  -23.8720   -5.8390 C.2     1  UNL1       -0.0620
     30  C         14.3440  -24.4330   -4.7620 C.3     1  UNL1        0.0480
     31  C         15.4340  -24.5880   -7.0280 C.2     1  UNL1        0.0070
     32  C         16.2750  -24.0800   -8.0200 C.2     1  UNL1        0.0170
@<TRIPOS>BOND
     1    24    23    1
     2    25    23    2
     3    23    21    1
     4    21    20    2
     5    21    22    1
     6    20    19    1
     7    22    17    2
     8    19    18    2
     9    16    13    2
    10    17    18    1
    11    17    14    1
    12    13    14   am
    13    13     1    1
    14    14    15    1
    15     2     1    2
    16     2     3    1
    17     1     6    1
    18     3     4    2
    19     6     5    2
    20     5     4    1
    21     5     7    1
    22     4    10    1
    23    12    11    2
    24     7     8    1
    25    10    11   am
    26    10     9    1
    27    11    26    1
    28     8     9    1
    29    32    26    2
    30    32    31    1
    31    26    27    1
    32    31    29    2
    33    27    28    2
    34    29    28    1
    35    29    30    1
