@<TRIPOS>MOLECULE
77529_out_ligand_01.pdbqt
 30 33 0 0 0
SMALL
GASTEIGER

@<TRIPOS>ATOM
      1  C         23.5480  -22.1350  -12.5890 C.2     1  UNL1        0.0330
      2  C         23.7190  -22.8970  -11.4340 C.2     1  UNL1        0.0190
      3  C         22.6510  -23.0730  -10.5440 C.2     1  UNL1        0.0310
      4  C         21.3890  -22.5020  -10.7790 C.2     1  UNL1        0.0430
      5  C         21.2320  -21.7170  -11.9430 C.2     1  UNL1       -0.0300
      6  C         22.3120  -21.5320  -12.8280 C.2     1  UNL1        0.0260
      7  C         19.9350  -21.0240  -12.2680 C.3     1  UNL1        0.0420
      8  C         18.7720  -21.6920  -11.5650 C.3     1  UNL1        0.0250
      9  C         19.1000  -21.8340  -10.0890 C.3     1  UNL1        0.1330
     10  N         20.2960  -22.6570   -9.8530 N.am    1  UNL1       -0.3130
     11  C         20.3320  -23.5790   -8.7910 C.2     1  UNL1        0.2580
     12  O         21.0590  -24.5670   -8.7110 O.2     1  UNL1       -0.2670
     13  C         24.6550  -21.9110  -13.5620 C.2     1  UNL1        0.2560
     14  O         25.7910  -22.2250  -13.2300 O.2     1  UNL1       -0.2670
     15  N         24.2720  -21.3220  -14.7510 N.am    1  UNL1       -0.3220
     16  H         23.3150  -20.9980  -14.8280 H       1  UNL1        0.1690
     17  C         25.0810  -21.0180  -15.8730 C.2     1  UNL1        0.0520
     18  C         25.8830  -19.8760  -15.9490 C.2     1  UNL1        0.0310
     19  C         26.6660  -19.6280  -17.0810 C.2     1  UNL1        0.0020
     20  C         26.6610  -20.5190  -18.1510 C.2     1  UNL1        0.0020
     21  C         25.8730  -21.6650  -18.0920 C.2     1  UNL1        0.0210
     22  C         25.0900  -21.9130  -16.9600 C.2     1  UNL1        0.0370
     23 BR         24.0400  -23.5010  -16.9440 Br      1  UNL1       -0.0490
     24  C         19.4070  -23.3730   -7.6490 C.2     1  UNL1        0.0320
     25  C         19.5320  -22.2100   -6.8760 C.2     1  UNL1        0.0200
     26  C         18.6540  -21.9880   -5.8150 C.2     1  UNL1        0.0430
     27  C         17.6540  -22.9180   -5.5460 C.2     1  UNL1        0.1160
     28  F         16.8110  -22.7020   -4.5280 F       1  UNL1       -0.2060
     29  C         17.5070  -24.0640   -6.3230 C.2     1  UNL1        0.0430
     30  C         18.3820  -24.2920   -7.3860 C.2     1  UNL1        0.0200
@<TRIPOS>BOND
     1    20    21    2
     2    20    19    1
     3    21    22    1
     4    19    18    2
     5    22    23    1
     6    22    17    2
     7    18    17    1
     8    17    15    1
     9    16    15    1
    10    15    13   am
    11    13    14    2
    12    13     1    1
    13     6     1    2
    14     6     5    1
    15     1     2    1
    16     7     5    1
    17     7     8    1
    18     5     4    2
    19     8     9    1
    20     2     3    2
    21     4     3    1
    22     4    10    1
    23     9    10    1
    24    10    11   am
    25    11    12    2
    26    11    24    1
    27    24    30    2
    28    24    25    1
    29    30    29    1
    30    25    26    2
    31    29    27    2
    32    26    27    1
    33    27    28    1
