@<TRIPOS>MOLECULE
77527_out_ligand_01.pdbqt
 34 37 0 0 0
SMALL
GASTEIGER

@<TRIPOS>ATOM
      1  C         23.4660  -22.7240  -11.3290 C.2     1  UNL1        0.2270
      2  N         22.7120  -21.8310  -12.0280 N.2     1  UNL1       -0.0330
      3  C         21.5080  -22.0030  -11.5310 C.cat   1  UNL1        0.7520
      4  N         20.3690  -21.3220  -11.8160 N.2     1  UNL1       -0.0650
      5  C         19.3070  -21.6480  -11.1410 C.2     1  UNL1        0.0580
      6  C         18.0660  -20.8410  -11.4480 C.3     1  UNL1        0.0720
      7  C         19.2310  -22.7530  -10.0900 C.2     1  UNL1       -0.0040
      8  C         20.4040  -23.3650   -9.8320 C.2     1  UNL1        0.0590
      9  C         20.6240  -24.4200   -8.7760 C.3     1  UNL1        0.0720
     10  N         21.5410  -23.0030  -10.5680 N.pl3   1  UNL1       -0.0610
     11  N         22.8040  -23.5050  -10.4920 N.pl3   1  UNL1       -0.1240
     12  S         25.1900  -22.8420  -11.4970 S.3     1  UNL1       -0.0790
     13  C         25.6930  -21.2860  -10.7140 C.3     1  UNL1        0.1850
     14  C         26.0180  -20.2160  -11.7500 C.2     1  UNL1        0.2310
     15  N         25.8190  -20.6420  -13.0520 N.am    1  UNL1       -0.3260
     16  H         25.4290  -21.5670  -13.1690 H       1  UNL1        0.1690
     17  O         26.4380  -19.1140  -11.4140 O.2     1  UNL1       -0.2720
     18  C         26.0250  -19.9210  -14.2460 C.2     1  UNL1        0.0350
     19  C         26.7020  -18.7070  -14.3150 C.2     1  UNL1        0.0290
     20  C         26.8660  -18.0560  -15.5390 C.2     1  UNL1        0.0040
     21  C         26.3670  -18.6210  -16.7150 C.2     1  UNL1        0.0180
     22  C         25.7060  -19.8460  -16.6690 C.2     1  UNL1        0.0020
     23  C         25.5170  -20.4750  -15.4320 C.2     1  UNL1        0.0480
     24  S         25.0880  -20.6270  -18.1520 S.3     1  UNL1       -0.1340
     25  C         25.0180  -22.3580  -17.5910 C.3     1  UNL1        0.0950
     26  C         17.8810  -23.0690   -9.4830 C.3     1  UNL1        0.0820
     27  C         17.7350  -22.8940   -7.9740 C.2     1  UNL1       -0.0470
     28  C         18.5260  -21.9100   -7.3440 C.2     1  UNL1        0.0140
     29  C         18.4900  -21.7110   -5.9590 C.2     1  UNL1       -0.0610
     30  C         19.3750  -20.6820   -5.3220 C.3     1  UNL1        0.0480
     31  C         17.6210  -22.4820   -5.1930 C.2     1  UNL1        0.0070
     32  C         16.8010  -23.4330   -5.8010 C.2     1  UNL1        0.0080
     33  C         16.8300  -23.6380   -7.1910 C.2     1  UNL1       -0.0550
     34  C         15.9130  -24.6770   -7.7710 C.3     1  UNL1        0.0490
@<TRIPOS>BOND
     1    24    25    1
     2    24    22    1
     3    21    22    2
     4    21    20    1
     5    22    23    1
     6    20    19    2
     7    23    18    2
     8    19    18    1
     9    18    15    1
    10    16    15    1
    11    15    14   am
    12     2     3    2
    13     2     1    2
    14     4     3    1
    15     4     5    2
    16    14    17    2
    17    14    13    1
    18     3    10    1
    19    12     1    1
    20    12    13    1
    21     6     5    1
    22     1    11    1
    23     5     7    1
    24    10    11    1
    25    10     8    1
    26     7     8    2
    27     7    26    1
    28     8     9    1
    29    26    27    1
    30    27    28    2
    31    27    33    1
    32    34    33    1
    33    28    29    1
    34    33    32    2
    35    29    30    1
    36    29    31    2
    37    32    31    1
