@<TRIPOS>MOLECULE
77537_out_ligand_01.pdbqt
 30 33 0 0 0
SMALL
GASTEIGER

@<TRIPOS>ATOM
      1  C         22.5580  -22.2530  -11.7860 C.2     1  UNL1        0.0330
      2  C         22.6010  -23.0220  -10.6250 C.2     1  UNL1        0.0190
      3  C         21.4440  -23.1980   -9.8560 C.2     1  UNL1        0.0310
      4  C         20.2180  -22.6170  -10.2220 C.2     1  UNL1        0.0430
      5  C         20.1890  -21.8230  -11.3880 C.2     1  UNL1       -0.0300
      6  C         21.3590  -21.6380  -12.1510 C.2     1  UNL1        0.0260
      7  C         18.9400  -21.1160  -11.8430 C.3     1  UNL1        0.0420
      8  C         17.7040  -21.7820  -11.2740 C.3     1  UNL1        0.0250
      9  C         17.8710  -21.9420   -9.7730 C.3     1  UNL1        0.1330
     10  N         19.0290  -22.7750   -9.4200 N.am    1  UNL1       -0.3130
     11  C         18.9460  -23.7140   -8.3740 C.2     1  UNL1        0.2580
     12  O         19.6560  -24.7070   -8.2320 O.2     1  UNL1       -0.2670
     13  C         23.7640  -22.0340  -12.6350 C.2     1  UNL1        0.2560
     14  O         24.7950  -22.6270  -12.3390 O.2     1  UNL1       -0.2670
     15  N         23.5920  -21.1300  -13.6670 N.am    1  UNL1       -0.3230
     16  H         22.7150  -20.6260  -13.6900 H       1  UNL1        0.1690
     17  C         24.5390  -20.7570  -14.6450 C.2     1  UNL1        0.0360
     18  C         24.7690  -21.4730  -15.8210 C.2     1  UNL1        0.0290
     19  C         25.7230  -21.0360  -16.7480 C.2     1  UNL1        0.0040
     20  C         26.4530  -19.8750  -16.5050 C.2     1  UNL1        0.0240
     21  C         26.2250  -19.1560  -15.3370 C.2     1  UNL1        0.0360
     22 CL         27.1210  -17.7190  -15.0310 Cl      1  UNL1       -0.0840
     23  C         25.2750  -19.5880  -14.4100 C.2     1  UNL1        0.0530
     24  C         17.9030  -23.5190   -7.3370 C.2     1  UNL1        0.0320
     25  C         16.7120  -24.2530   -7.4260 C.2     1  UNL1        0.0200
     26  C         15.7310  -24.1000   -6.4450 C.2     1  UNL1        0.0430
     27  C         15.9550  -23.2310   -5.3810 C.2     1  UNL1        0.1160
     28  F         15.0120  -23.0860   -4.4410 F       1  UNL1       -0.2060
     29  C         17.1440  -22.5160   -5.2720 C.2     1  UNL1        0.0430
     30  C         18.1290  -22.6640   -6.2490 C.2     1  UNL1        0.0200
@<TRIPOS>BOND
     1    19    20    2
     2    19    18    1
     3    20    21    1
     4    18    17    2
     5    21    22    1
     6    21    23    2
     7    17    23    1
     8    17    15    1
     9    16    15    1
    10    15    13   am
    11    13    14    2
    12    13     1    1
    13     6     1    2
    14     6     5    1
    15     7     5    1
    16     7     8    1
    17     1     2    1
    18     5     4    2
    19     8     9    1
    20     2     3    2
    21     4     3    1
    22     4    10    1
    23     9    10    1
    24    10    11   am
    25    11    12    2
    26    11    24    1
    27    25    24    2
    28    25    26    1
    29    24    30    1
    30    26    27    2
    31    30    29    2
    32    27    29    1
    33    27    28    1
