@<TRIPOS>MOLECULE
77530_out_ligand_01.pdbqt
 30 33 0 0 0
SMALL
GASTEIGER

@<TRIPOS>ATOM
      1  C         21.6700  -21.7100  -12.2970 C.2     1  UNL1        0.0330
      2  C         20.3500  -21.2660  -12.2500 C.2     1  UNL1        0.0190
      3  C         19.4850  -21.7450  -11.2580 C.2     1  UNL1        0.0310
      4  C         19.9060  -22.6770  -10.2950 C.2     1  UNL1        0.0430
      5  C         21.2520  -23.1030  -10.3390 C.2     1  UNL1       -0.0300
      6  C         22.1230  -22.6080  -11.3290 C.2     1  UNL1        0.0260
      7  C         21.8190  -24.0610   -9.3260 C.3     1  UNL1        0.0420
      8  C         20.7210  -24.8780   -8.6790 C.3     1  UNL1        0.0250
      9  C         19.6350  -23.9450   -8.1770 C.3     1  UNL1        0.1330
     10  N         19.0250  -23.1560   -9.2590 N.am    1  UNL1       -0.3130
     11  C         17.6360  -22.9320   -9.2880 C.2     1  UNL1        0.2580
     12  O         16.9690  -22.6520  -10.2810 O.2     1  UNL1       -0.2670
     13  C         22.6280  -21.2240  -13.3300 C.2     1  UNL1        0.2560
     14  O         22.2600  -20.3360  -14.0890 O.2     1  UNL1       -0.2670
     15  N         23.8780  -21.8180  -13.2900 N.am    1  UNL1       -0.3230
     16  H         24.0640  -22.4380  -12.5120 H       1  UNL1        0.1690
     17  C         24.9630  -21.5880  -14.1620 C.2     1  UNL1        0.0370
     18  C         25.9940  -20.6810  -13.9040 C.2     1  UNL1        0.0290
     19  C         27.0370  -20.5040  -14.8230 C.2     1  UNL1        0.0050
     20  C         27.0540  -21.2330  -16.0070 C.2     1  UNL1        0.0420
     21  C         26.0280  -22.1320  -16.2630 C.2     1  UNL1        0.1180
     22  F         26.0380  -22.8360  -17.4030 F       1  UNL1       -0.2060
     23  C         24.9870  -22.3150  -15.3580 C.2     1  UNL1        0.0710
     24  C         16.8770  -23.0510   -8.0180 C.2     1  UNL1        0.0320
     25  C         16.1240  -24.2100   -7.7860 C.2     1  UNL1        0.0200
     26  C         15.3840  -24.3290   -6.6090 C.2     1  UNL1        0.0430
     27  C         15.3920  -23.2870   -5.6860 C.2     1  UNL1        0.1160
     28  F         14.6810  -23.4040   -4.5570 F       1  UNL1       -0.2060
     29  C         16.1180  -22.1220   -5.9200 C.2     1  UNL1        0.0430
     30  C         16.8590  -21.9960   -7.0960 C.2     1  UNL1        0.0200
@<TRIPOS>BOND
     1    22    21    1
     2    21    20    2
     3    21    23    1
     4    20    19    1
     5    23    17    2
     6    19    18    2
     7    17    18    1
     8    17    15    1
     9    14    13    2
    10    13    15   am
    11    13     1    1
    12    15    16    1
    13     1     2    2
    14     1     6    1
    15     2     3    1
    16     6     5    2
    17     3     4    2
    18     5     4    1
    19     5     7    1
    20     4    10    1
    21    12    11    2
    22     7     8    1
    23    11    10   am
    24    11    24    1
    25    10     9    1
    26     8     9    1
    27    24    25    2
    28    24    30    1
    29    25    26    1
    30    30    29    2
    31    26    27    2
    32    29    27    1
    33    27    28    1
