@<TRIPOS>MOLECULE
77556_out_ligand_01.pdbqt
 29 32 0 0 0
SMALL
GASTEIGER

@<TRIPOS>ATOM
      1  C         22.1520  -22.4090  -11.3440 C.2     1  UNL1        0.0330
      2  C         22.1830  -23.1530  -10.1660 C.2     1  UNL1        0.0190
      3  C         21.0250  -23.2760   -9.3850 C.2     1  UNL1        0.0310
      4  C         19.8140  -22.6700   -9.7550 C.2     1  UNL1        0.0430
      5  C         19.8010  -21.9000  -10.9380 C.2     1  UNL1       -0.0300
      6  C         20.9690  -21.7660  -11.7140 C.2     1  UNL1        0.0260
      7  C         18.5690  -21.1680  -11.3990 C.3     1  UNL1        0.0420
      8  C         17.3180  -21.7830  -10.8070 C.3     1  UNL1        0.0250
      9  C         17.4930  -21.9160   -9.3050 C.3     1  UNL1        0.1330
     10  N         18.6290  -22.7760   -8.9420 N.am    1  UNL1       -0.3130
     11  C         18.5240  -23.6890   -7.8750 C.2     1  UNL1        0.2580
     12  O         19.2060  -24.7000   -7.7190 O.2     1  UNL1       -0.2670
     13  C         23.3570  -22.2450  -12.2060 C.2     1  UNL1        0.2560
     14  O         24.4230  -22.6940  -11.8020 O.2     1  UNL1       -0.2670
     15  N         23.1380  -21.5510  -13.3830 N.am    1  UNL1       -0.3230
     16  H         22.2250  -21.1320  -13.5020 H       1  UNL1        0.1690
     17  C         24.0740  -21.2780  -14.4020 C.2     1  UNL1        0.0350
     18  C         24.1660  -22.2030  -15.4500 C.2     1  UNL1        0.0310
     19  C         25.0720  -22.0100  -16.4970 C.2     1  UNL1        0.0210
     20  C         25.8940  -20.8870  -16.4980 C.2     1  UNL1        0.0110
     21 BR         27.1210  -20.6200  -17.9100 Br      1  UNL1       -0.0510
     22  C         25.8170  -19.9610  -15.4610 C.2     1  UNL1        0.0210
     23  C         24.9090  -20.1580  -14.4150 C.2     1  UNL1        0.0310
     24  C         17.4940  -23.4400   -6.8370 C.2     1  UNL1        0.0320
     25  C         16.2820  -24.1340   -6.9030 C.2     1  UNL1        0.0170
     26  C         15.3100  -23.9250   -5.9240 C.2     1  UNL1        0.0010
     27  C         15.5570  -23.0370   -4.8760 C.2     1  UNL1        0.0000
     28  C         16.7770  -22.3630   -4.7960 C.2     1  UNL1        0.0010
     29  C         17.7530  -22.5690   -5.7720 C.2     1  UNL1        0.0170
@<TRIPOS>BOND
     1    21    20    1
     2    20    19    2
     3    20    22    1
     4    19    18    1
     5    22    23    2
     6    18    17    2
     7    23    17    1
     8    17    15    1
     9    16    15    1
    10    15    13   am
    11    13    14    2
    12    13     1    1
    13     6     1    2
    14     6     5    1
    15     7     5    1
    16     7     8    1
    17     1     2    1
    18     5     4    2
    19     8     9    1
    20     2     3    2
    21     4     3    1
    22     4    10    1
    23     9    10    1
    24    10    11   am
    25    11    12    2
    26    11    24    1
    27    25    24    2
    28    25    26    1
    29    24    29    1
    30    26    27    2
    31    29    28    2
    32    27    28    1
