@<TRIPOS>MOLECULE
77563_out_ligand_01.pdbqt
 30 33 0 0 0
SMALL
GASTEIGER

@<TRIPOS>ATOM
      1  C         19.4870  -22.2370  -10.2690 C.2     1  UNL1        0.0330
      2  C         19.5960  -21.3950  -11.3740 C.2     1  UNL1        0.0190
      3  C         20.8230  -21.2630  -12.0370 C.2     1  UNL1        0.0310
      4  C         21.9690  -21.9600  -11.6220 C.2     1  UNL1        0.0430
      5  C         21.8640  -22.7530  -10.4590 C.2     1  UNL1       -0.0300
      6  C         20.6260  -22.8990   -9.8030 C.2     1  UNL1        0.0260
      7  C         23.0480  -23.4910   -9.9020 C.3     1  UNL1        0.0420
      8  C         24.3160  -22.7370  -10.2350 C.3     1  UNL1        0.0250
      9  C         24.3930  -22.5320  -11.7360 C.3     1  UNL1        0.1330
     10  N         23.2290  -21.8450  -12.3190 N.am    1  UNL1       -0.3130
     11  C         23.2950  -21.3790  -13.6510 C.2     1  UNL1        0.2580
     12  O         22.3500  -21.1430  -14.4000 O.2     1  UNL1       -0.2670
     13  C         18.2000  -22.4230   -9.5410 C.2     1  UNL1        0.2560
     14  N         18.3360  -22.8390   -8.2290 N.am    1  UNL1       -0.3220
     15  H         19.2790  -22.8630   -7.8700 H       1  UNL1        0.1690
     16  O         17.1610  -22.1620  -10.1360 O.2     1  UNL1       -0.2670
     17  C         17.3120  -23.1450   -7.2980 C.2     1  UNL1        0.0410
     18  C         16.2620  -24.0120   -7.6190 C.2     1  UNL1        0.0300
     19  C         15.2670  -24.3070   -6.6890 C.2     1  UNL1        0.0030
     20  C         15.3070  -23.7410   -5.4210 C.2     1  UNL1        0.0070
     21  C         16.3470  -22.8710   -5.0600 C.2     1  UNL1       -0.0540
     22  C         16.3340  -22.2930   -3.6690 C.3     1  UNL1        0.0490
     23  C         17.3630  -22.5670   -6.0010 C.2     1  UNL1       -0.0290
     24  C         18.4920  -21.6320   -5.6300 C.3     1  UNL1        0.0510
     25  C         24.6310  -21.1660  -14.2470 C.2     1  UNL1        0.0320
     26  C         25.3020  -19.9550  -14.0420 C.2     1  UNL1        0.0170
     27  C         26.5540  -19.7580  -14.6240 C.2     1  UNL1        0.0010
     28  C         27.1210  -20.7590  -15.4150 C.2     1  UNL1        0.0000
     29  C         26.4370  -21.9570  -15.6360 C.2     1  UNL1        0.0010
     30  C         25.1850  -22.1610  -15.0570 C.2     1  UNL1        0.0170
@<TRIPOS>BOND
     1    29    28    2
     2    29    30    1
     3    28    27    1
     4    30    25    2
     5    27    26    2
     6    12    11    2
     7    25    26    1
     8    25    11    1
     9    11    10   am
    10    10     9    1
    11    10     4    1
    12     3     4    2
    13     3     2    1
    14     9     8    1
    15     4     5    1
    16     2     1    2
    17     5     7    1
    18     5     6    2
    19     1     6    1
    20     1    13    1
    21     8     7    1
    22    16    13    2
    23    13    14   am
    24    14    15    1
    25    14    17    1
    26    18    17    2
    27    18    19    1
    28    17    23    1
    29    19    20    2
    30    23    24    1
    31    23    21    2
    32    20    21    1
    33    21    22    1
