@<TRIPOS>MOLECULE
77567_out_ligand_01.pdbqt
 30 33 0 0 0
SMALL
GASTEIGER

@<TRIPOS>ATOM
      1  C         19.5350  -23.0940   -8.2370 C.2     1  UNL1        0.2580
      2  O         20.5990  -23.6830   -8.0660 O.2     1  UNL1       -0.2670
      3  N         19.1540  -22.3380   -9.3670 N.am    1  UNL1       -0.3130
      4  C         17.7230  -22.1290   -9.6460 C.3     1  UNL1        0.1330
      5  C         17.4380  -21.0730  -10.6990 C.3     1  UNL1        0.0250
      6  C         18.1610  -21.4420  -11.9760 C.3     1  UNL1        0.0420
      7  C         19.6270  -21.6150  -11.6930 C.2     1  UNL1       -0.0300
      8  C         20.5360  -21.3690  -12.7390 C.2     1  UNL1        0.0260
      9  C         21.9110  -21.5080  -12.5420 C.2     1  UNL1        0.0330
     10  C         22.3820  -21.8640  -11.2790 C.2     1  UNL1        0.0190
     11  C         21.4780  -22.1260  -10.2420 C.2     1  UNL1        0.0310
     12  C         20.0880  -22.0450  -10.4290 C.2     1  UNL1        0.0430
     13  C         22.8300  -21.2310  -13.6820 C.2     1  UNL1        0.2560
     14  O         22.6160  -20.2440  -14.3750 O.2     1  UNL1       -0.2670
     15  N         23.8310  -22.1650  -13.8600 N.am    1  UNL1       -0.3220
     16  H         23.8030  -22.9980  -13.2810 H       1  UNL1        0.1690
     17  C         24.8650  -22.1630  -14.8270 C.2     1  UNL1        0.0520
     18  C         24.7470  -22.7850  -16.0730 C.2     1  UNL1        0.0310
     19  C         25.8000  -22.7490  -16.9930 C.2     1  UNL1        0.0020
     20  C         26.9850  -22.0870  -16.6820 C.2     1  UNL1        0.0020
     21  C         27.1210  -21.4570  -15.4470 C.2     1  UNL1        0.0210
     22  C         26.0670  -21.4940  -14.5280 C.2     1  UNL1        0.0370
     23 BR         26.3180  -20.6060  -12.8620 Br      1  UNL1       -0.0490
     24  C         18.5620  -23.2310   -7.1320 C.2     1  UNL1        0.0320
     25  C         17.6790  -24.3140   -7.1080 C.2     1  UNL1        0.0170
     26  C         16.7520  -24.4220   -6.0700 C.2     1  UNL1        0.0070
     27  C         16.6980  -23.4490   -5.0610 C.2     1  UNL1       -0.0620
     28  C         15.6740  -23.5560   -3.9700 C.3     1  UNL1        0.0480
     29  C         17.5650  -22.3500   -5.1190 C.2     1  UNL1        0.0070
     30  C         18.4960  -22.2360   -6.1530 C.2     1  UNL1        0.0170
@<TRIPOS>BOND
     1    19    20    2
     2    19    18    1
     3    20    21    1
     4    18    17    2
     5    21    22    2
     6    17    22    1
     7    17    15    1
     8    22    23    1
     9    14    13    2
    10    15    13   am
    11    15    16    1
    12    13     9    1
    13     8     9    1
    14     8     7    2
    15     9    10    2
    16     6     7    1
    17     6     5    1
    18     7    12    1
    19    10    11    1
    20     5     4    1
    21    12    11    2
    22    12     3    1
    23     4     3    1
    24     3     1   am
    25     1     2    2
    26     1    24    1
    27    24    25    2
    28    24    30    1
    29    25    26    1
    30    30    29    2
    31    26    27    2
    32    29    27    1
    33    27    28    1
