@<TRIPOS>MOLECULE
77577_out_ligand_01.pdbqt
 31 34 0 0 0
SMALL
GASTEIGER

@<TRIPOS>ATOM
      1  C         22.4820  -22.1990  -11.7970 C.2     1  UNL1        0.0330
      2  C         22.5440  -22.7260  -10.5080 C.2     1  UNL1        0.0190
      3  C         21.3780  -22.8380   -9.7390 C.2     1  UNL1        0.0310
      4  C         20.1250  -22.4340  -10.2280 C.2     1  UNL1        0.0430
      5  C         20.0870  -21.8360  -11.5070 C.2     1  UNL1       -0.0300
      6  C         21.2570  -21.7390  -12.2850 C.2     1  UNL1        0.0260
      7  C         18.8050  -21.3160  -12.0950 C.3     1  UNL1        0.0420
      8  C         17.8790  -20.8750  -10.9820 C.3     1  UNL1        0.0250
      9  C         17.6750  -22.0300  -10.0190 C.3     1  UNL1        0.1330
     10  N         18.9170  -22.5710   -9.4460 N.am    1  UNL1       -0.3130
     11  C         18.8460  -23.4610   -8.3530 C.2     1  UNL1        0.2580
     12  O         19.6870  -24.2930   -8.0190 O.2     1  UNL1       -0.2670
     13  C         23.6910  -22.0700  -12.6580 C.2     1  UNL1        0.2560
     14  N         23.6340  -21.0500  -13.5910 N.am    1  UNL1       -0.3230
     15  H         22.8370  -20.4270  -13.5410 H       1  UNL1        0.1690
     16  O         24.6280  -22.8330  -12.4570 O.2     1  UNL1       -0.2670
     17  C         24.6080  -20.7140  -14.5550 C.2     1  UNL1        0.0360
     18  C         25.5000  -19.6490  -14.4220 C.2     1  UNL1        0.0290
     19  C         26.4340  -19.3790  -15.4260 C.2     1  UNL1        0.0040
     20  C         26.4910  -20.1780  -16.5670 C.2     1  UNL1        0.0180
     21  C         25.6200  -21.2590  -16.7070 C.2     1  UNL1        0.0020
     22  C         24.6760  -21.5140  -15.7040 C.2     1  UNL1        0.0480
     23  S         25.6430  -22.3070  -18.1530 S.3     1  UNL1       -0.1340
     24  C         24.1390  -23.2790  -17.8700 C.3     1  UNL1        0.0950
     25  C         17.6320  -23.4330   -7.5090 C.2     1  UNL1        0.0320
     26  C         16.6440  -24.4060   -7.7020 C.2     1  UNL1        0.0200
     27  C         15.5110  -24.4010   -6.8890 C.2     1  UNL1        0.0430
     28  C         15.3860  -23.4410   -5.8890 C.2     1  UNL1        0.1160
     29  F         14.2970  -23.4400   -5.1090 F       1  UNL1       -0.2060
     30  C         16.3770  -22.4850   -5.6780 C.2     1  UNL1        0.0430
     31  C         17.5140  -22.4820   -6.4860 C.2     1  UNL1        0.0200
@<TRIPOS>BOND
     1    23    24    1
     2    23    21    1
     3    21    20    2
     4    21    22    1
     5    20    19    1
     6    22    17    2
     7    19    18    2
     8    17    18    1
     9    17    14    1
    10    14    15    1
    11    14    13   am
    12    13    16    2
    13    13     1    1
    14     6     1    2
    15     6     5    1
    16     7     5    1
    17     7     8    1
    18     1     2    1
    19     5     4    2
    20     8     9    1
    21     2     3    2
    22     4     3    1
    23     4    10    1
    24     9    10    1
    25    10    11   am
    26    11    12    2
    27    11    25    1
    28    26    25    2
    29    26    27    1
    30    25    31    1
    31    27    28    2
    32    31    30    2
    33    28    30    1
    34    28    29    1
