@<TRIPOS>MOLECULE
77582_out_ligand_01.pdbqt
 35 38 0 0 0
SMALL
GASTEIGER

@<TRIPOS>ATOM
      1  C         23.4270  -22.8780  -10.8350 C.2     1  UNL1        0.0320
      2  C         23.3970  -23.2770   -9.4960 C.2     1  UNL1        0.0190
      3  C         22.1970  -23.2230   -8.7780 C.2     1  UNL1        0.0300
      4  C         21.0160  -22.7750   -9.3870 C.2     1  UNL1        0.0360
      5  C         21.0600  -22.3530  -10.7170 C.2     1  UNL1        0.0300
      6  C         22.2590  -22.4010  -11.4370 C.2     1  UNL1        0.0190
      7  N         19.8540  -22.7500   -8.5930 N.am    1  UNL1       -0.3090
      8  C         18.5510  -22.5280   -8.9980 C.2     1  UNL1        0.3270
      9  O         18.1980  -22.4650  -10.1750 O.2     1  UNL1       -0.2460
     10  N         17.6220  -22.4840   -7.9430 N.am    1  UNL1       -0.2990
     11  C         16.2150  -22.6770   -8.2790 C.3     1  UNL1        0.1340
     12  C         17.9200  -22.1820   -6.5760 C.2     1  UNL1        0.0450
     13  C         15.8120  -24.1400   -8.1540 C.3     1  UNL1        0.0210
     14  C         16.2930  -24.7850   -6.8550 C.3     1  UNL1        0.0060
     15  C         16.1690  -23.8650   -5.6410 C.3     1  UNL1        0.0410
     16  C         17.2290  -22.7870   -5.5030 C.2     1  UNL1       -0.0310
     17  C         17.5310  -22.3770   -4.1870 C.2     1  UNL1        0.0090
     18  C         18.5030  -21.4120   -3.9290 C.2     1  UNL1        0.0010
     19  C         19.1840  -20.8230   -4.9830 C.2     1  UNL1        0.0020
     20  C         18.8890  -21.1990   -6.2940 C.2     1  UNL1        0.0300
     21  H         19.9470  -23.0780   -7.6420 H       1  UNL1        0.1700
     22  C         24.6780  -22.9180  -11.6430 C.2     1  UNL1        0.2510
     23  N         24.7440  -23.9020  -12.6090 N.am    1  UNL1       -0.3570
     24  H         23.9040  -24.4090  -12.8480 H       1  UNL1        0.1620
     25  O         25.5580  -22.0880  -11.4520 O.2     1  UNL1       -0.2680
     26  C         25.8560  -23.9660  -13.5430 C.3     1  UNL1        0.1270
     27  C         25.3820  -24.0170  -14.9990 C.3     1  UNL1        0.0610
     28  C         25.4760  -22.6670  -15.6770 C.2     1  UNL1       -0.0230
     29  C         25.9140  -21.5550  -14.9380 C.2     1  UNL1        0.0100
     30  C         26.0030  -20.2990  -15.5330 C.2     1  UNL1        0.0010
     31  C         25.6510  -20.1390  -16.8700 C.2     1  UNL1        0.0030
     32  C         25.2090  -21.2350  -17.6150 C.2     1  UNL1        0.0370
     33  C         25.1170  -22.5010  -17.0280 C.2     1  UNL1        0.0740
     34  O         24.6910  -23.6310  -17.6720 O.2     1  UNL1       -0.3550
     35  C         23.3560  -23.6550  -18.1530 C.3     1  UNL1        0.2100
@<TRIPOS>BOND
     1    35    34    1
     2    34    33    1
     3    32    33    1
     4    32    31    2
     5    33    28    2
     6    31    30    1
     7    28    27    1
     8    28    29    1
     9    30    29    2
    10    27    26    1
    11    26    23    1
    12    24    23    1
    13    23    22   am
    14    22    25    2
    15    22     1    1
    16     6     1    2
    17     6     5    1
    18     1     2    1
    19     5     4    2
    20     9     8    2
    21     2     3    2
    22     4     3    1
    23     4     7    1
    24     8     7   am
    25     8    10   am
    26     7    21    1
    27    11    13    1
    28    11    10    1
    29    13    14    1
    30    10    12    1
    31    14    15    1
    32    12    20    2
    33    12    16    1
    34    20    19    1
    35    15    16    1
    36    16    17    2
    37    19    18    2
    38    17    18    1
