@<TRIPOS>MOLECULE
77583_out_ligand_01.pdbqt
 30 33 0 0 0
SMALL
GASTEIGER

@<TRIPOS>ATOM
      1  C         21.6390  -21.6770  -12.2760 C.2     1  UNL1        0.0330
      2  C         20.3580  -21.1430  -12.1400 C.2     1  UNL1        0.0190
      3  C         19.5190  -21.5870  -11.1100 C.2     1  UNL1        0.0310
      4  C         19.9270  -22.5710  -10.1940 C.2     1  UNL1        0.0430
      5  C         21.2350  -23.0870  -10.3260 C.2     1  UNL1       -0.0300
      6  C         22.0810  -22.6280  -11.3560 C.2     1  UNL1        0.0260
      7  C         21.7940  -24.1020   -9.3650 C.3     1  UNL1        0.0420
      8  C         20.6850  -24.8510   -8.6570 C.3     1  UNL1        0.0250
      9  C         19.6990  -23.8510   -8.0820 C.3     1  UNL1        0.1330
     10  N         19.0730  -23.0190   -9.1200 N.am    1  UNL1       -0.3130
     11  C         17.7050  -22.6960   -9.0620 C.2     1  UNL1        0.2610
     12  O         17.0070  -22.3320  -10.0080 O.2     1  UNL1       -0.2670
     13  C         22.5680  -21.2360  -13.3570 C.2     1  UNL1        0.2560
     14  N         23.7810  -21.8990  -13.3790 N.am    1  UNL1       -0.3220
     15  H         23.9620  -22.5240  -12.6060 H       1  UNL1        0.1690
     16  O         22.2050  -20.3260  -14.0900 O.2     1  UNL1       -0.2670
     17  C         24.8420  -21.7380  -14.3020 C.2     1  UNL1        0.0410
     18  C         24.8000  -22.2780  -15.5930 C.2     1  UNL1        0.0300
     19  C         25.8670  -22.1080  -16.4800 C.2     1  UNL1        0.0020
     20  C         26.9950  -21.3980  -16.0870 C.2     1  UNL1        0.0010
     21  C         27.0580  -20.8590  -14.8050 C.2     1  UNL1        0.0090
     22  C         25.9920  -21.0210  -13.9000 C.2     1  UNL1       -0.0350
     23  C         26.1260  -20.4110  -12.5290 C.3     1  UNL1        0.0500
     24  C         16.9880  -22.8420   -7.7780 C.2     1  UNL1        0.0710
     25  C         17.3600  -22.0350   -6.6950 C.2     1  UNL1        0.0200
     26  C         16.7140  -22.1820   -5.4650 C.2     1  UNL1        0.0010
     27  C         15.7100  -23.1410   -5.3130 C.2     1  UNL1        0.0030
     28  C         15.3570  -23.9610   -6.3870 C.2     1  UNL1        0.0430
     29  C         16.0030  -23.8130   -7.6110 C.2     1  UNL1        0.1320
     30  F         15.6570  -24.6240   -8.6210 F       1  UNL1       -0.2050
@<TRIPOS>BOND
     1    19    20    2
     2    19    18    1
     3    20    21    1
     4    18    17    2
     5    21    22    2
     6    17    22    1
     7    17    14    1
     8    16    13    2
     9    22    23    1
    10    14    13   am
    11    14    15    1
    12    13     1    1
    13     1     2    2
    14     1     6    1
    15     2     3    1
    16     6     5    2
    17     3     4    2
    18     5     4    1
    19     5     7    1
    20     4    10    1
    21    12    11    2
    22     7     8    1
    23    10    11   am
    24    10     9    1
    25    11    24    1
    26     8     9    1
    27    30    29    1
    28    24    29    2
    29    24    25    1
    30    29    28    1
    31    25    26    2
    32    28    27    2
    33    26    27    1
