@<TRIPOS>MOLECULE
77580_out_ligand_01.pdbqt
 30 33 0 0 0
SMALL
GASTEIGER

@<TRIPOS>ATOM
      1  C         20.1840  -22.2220  -10.2020 C.2     1  UNL1        0.0330
      2  C         20.0050  -21.6570  -11.4640 C.2     1  UNL1        0.0190
      3  C         21.0980  -21.5090  -12.3300 C.2     1  UNL1        0.0310
      4  C         22.3970  -21.8960  -11.9590 C.2     1  UNL1        0.0430
      5  C         22.5690  -22.4450  -10.6690 C.2     1  UNL1       -0.0300
      6  C         21.4670  -22.6070   -9.8080 C.2     1  UNL1        0.0260
      7  C         23.9130  -22.9100  -10.1710 C.3     1  UNL1        0.0420
      8  C         25.0340  -22.2400  -10.9360 C.3     1  UNL1        0.0250
      9  C         24.7820  -22.4000  -12.4230 C.3     1  UNL1        0.1330
     10  N         23.5230  -21.7740  -12.8560 N.am    1  UNL1       -0.3130
     11  C         23.4430  -21.1010  -14.0910 C.2     1  UNL1        0.2610
     12  O         22.5840  -20.2830  -14.4190 O.2     1  UNL1       -0.2670
     13  C         19.0540  -22.4120   -9.2490 C.2     1  UNL1        0.2560
     14  O         17.9120  -22.4030   -9.6950 O.2     1  UNL1       -0.2670
     15  N         19.4240  -22.5390   -7.9220 N.am    1  UNL1       -0.3230
     16  H         20.3990  -22.3900   -7.7030 H       1  UNL1        0.1690
     17  C         18.5780  -22.7650   -6.8160 C.2     1  UNL1        0.0350
     18  C         17.7580  -23.8880   -6.6760 C.2     1  UNL1        0.0310
     19  C         16.9500  -24.0410   -5.5430 C.2     1  UNL1        0.0260
     20  C         16.9610  -23.0730   -4.5450 C.2     1  UNL1        0.0340
     21 CL         15.9680  -23.2620   -3.1530 Cl      1  UNL1       -0.0840
     22  C         17.7750  -21.9510   -4.6670 C.2     1  UNL1        0.0260
     23  C         18.5820  -21.8000   -5.8000 C.2     1  UNL1        0.0310
     24  C         24.4930  -21.3330  -15.1020 C.2     1  UNL1        0.0710
     25  C         24.4600  -22.5090  -15.8600 C.2     1  UNL1        0.0200
     26  C         25.4650  -22.7570  -16.7990 C.2     1  UNL1        0.0010
     27  C         26.5060  -21.8420  -16.9670 C.2     1  UNL1        0.0030
     28  C         26.5510  -20.6810  -16.1930 C.2     1  UNL1        0.0430
     29  C         25.5490  -20.4360  -15.2580 C.2     1  UNL1        0.1320
     30  F         25.6220  -19.3230  -14.5140 F       1  UNL1       -0.2050
@<TRIPOS>BOND
     1    27    26    2
     2    27    28    1
     3    26    25    1
     4    28    29    2
     5    25    24    2
     6    29    24    1
     7    29    30    1
     8    24    11    1
     9    12    11    2
    10    11    10   am
    11    10     9    1
    12    10     4    1
    13     9     8    1
    14     3     4    2
    15     3     2    1
    16     4     5    1
    17     2     1    2
    18     8     7    1
    19     5     7    1
    20     5     6    2
    21     1     6    1
    22     1    13    1
    23    14    13    2
    24    13    15   am
    25    15    16    1
    26    15    17    1
    27    17    18    2
    28    17    23    1
    29    18    19    1
    30    23    22    2
    31    19    20    2
    32    22    20    1
    33    20    21    1
