@<TRIPOS>MOLECULE
77599_out_ligand_01.pdbqt
 30 33 0 0 0
SMALL
GASTEIGER

@<TRIPOS>ATOM
      1  C         22.1900  -22.4230  -11.4190 C.2     1  UNL1        0.0330
      2  C         22.2260  -23.1780  -10.2480 C.2     1  UNL1        0.0190
      3  C         21.0780  -23.2960   -9.4550 C.2     1  UNL1        0.0310
      4  C         19.8690  -22.6720   -9.8040 C.2     1  UNL1        0.0430
      5  C         19.8490  -21.8920  -10.9800 C.2     1  UNL1       -0.0300
      6  C         21.0090  -21.7640  -11.7690 C.2     1  UNL1        0.0260
      7  C         18.6200  -21.1430  -11.4210 C.3     1  UNL1        0.0420
      8  C         17.3700  -21.7490  -10.8190 C.3     1  UNL1        0.0250
      9  C         17.5610  -21.8960   -9.3200 C.3     1  UNL1        0.1330
     10  N         18.6910  -22.7710   -8.9770 N.am    1  UNL1       -0.3130
     11  C         18.5910  -23.6920   -7.9190 C.2     1  UNL1        0.2580
     12  O         19.2620  -24.7120   -7.7780 O.2     1  UNL1       -0.2670
     13  C         23.3860  -22.2640  -12.2930 C.2     1  UNL1        0.2560
     14  O         24.4440  -22.7580  -11.9230 O.2     1  UNL1       -0.2670
     15  N         23.1720  -21.5200  -13.4400 N.am    1  UNL1       -0.3230
     16  H         22.2700  -21.0690  -13.5310 H       1  UNL1        0.1690
     17  C         24.1020  -21.2380  -14.4630 C.2     1  UNL1        0.0350
     18  C         24.9640  -20.1390  -14.4530 C.2     1  UNL1        0.0310
     19  C         25.8640  -19.9320  -15.5050 C.2     1  UNL1        0.0210
     20  C         25.9050  -20.8280  -16.5700 C.2     1  UNL1        0.0110
     21 BR         27.1210  -20.5490  -17.9890 Br      1  UNL1       -0.0510
     22  C         25.0560  -21.9300  -16.5920 C.2     1  UNL1        0.0210
     23  C         24.1570  -22.1340  -15.5400 C.2     1  UNL1        0.0310
     24  C         17.5770  -23.4420   -6.8640 C.2     1  UNL1        0.0320
     25  C         17.8430  -22.5490   -5.8170 C.2     1  UNL1        0.0200
     26  C         16.8850  -22.3490   -4.8220 C.2     1  UNL1        0.0430
     27  C         15.6840  -23.0510   -4.8720 C.2     1  UNL1        0.1160
     28  F         14.7680  -22.8550   -3.9150 F       1  UNL1       -0.2060
     29  C         15.4220  -23.9570   -5.8950 C.2     1  UNL1        0.0430
     30  C         16.3760  -24.1620   -6.8930 C.2     1  UNL1        0.0200
@<TRIPOS>BOND
     1    21    20    1
     2    22    20    2
     3    22    23    1
     4    20    19    1
     5    23    17    2
     6    19    18    2
     7    17    18    1
     8    17    15    1
     9    16    15    1
    10    15    13   am
    11    13    14    2
    12    13     1    1
    13     6     1    2
    14     6     5    1
    15     7     5    1
    16     7     8    1
    17     1     2    1
    18     5     4    2
    19     8     9    1
    20     2     3    2
    21     4     3    1
    22     4    10    1
    23     9    10    1
    24    10    11   am
    25    11    12    2
    26    11    24    1
    27    30    24    2
    28    30    29    1
    29    24    25    1
    30    29    27    2
    31    25    26    2
    32    27    26    1
    33    27    28    1
