@<TRIPOS>MOLECULE
775_out_ligand_01.pdbqt
 35 37 0 0 0
SMALL
GASTEIGER

@<TRIPOS>ATOM
      1  C         17.0630  -22.9220   -8.8990 C.2     1  UNL1        0.0800
      2  C         16.3510  -22.1010   -9.7760 C.2     1  UNL1        0.0260
      3  C         17.0170  -21.4680  -10.8280 C.2     1  UNL1        0.0090
      4  C         18.3970  -21.6490  -11.0160 C.2     1  UNL1       -0.0460
      5  C         19.0860  -20.9250  -12.1390 C.3     1  UNL1        0.0490
      6  C         19.0860  -22.5140  -10.1440 C.2     1  UNL1        0.0390
      7  C         18.4280  -23.1480   -9.0850 C.2     1  UNL1        0.0420
      8  C         20.5380  -22.7750  -10.2860 C.2     1  UNL1        0.2560
      9  O         20.9700  -23.8480   -9.8860 O.2     1  UNL1       -0.2670
     10  N         21.2280  -21.7470  -10.8940 N.am    1  UNL1       -0.3230
     11  H         20.6750  -20.9570  -11.2080 H       1  UNL1        0.1690
     12  C         22.6080  -21.6930  -11.1770 C.2     1  UNL1        0.0360
     13  C         23.6040  -21.6750  -10.1950 C.2     1  UNL1        0.0290
     14  C         24.9580  -21.6350  -10.5490 C.2     1  UNL1        0.0040
     15  C         25.3310  -21.6030  -11.8880 C.2     1  UNL1        0.0250
     16  C         24.3390  -21.6020  -12.8690 C.2     1  UNL1        0.0760
     17  C         22.9840  -21.6580  -12.5240 C.2     1  UNL1        0.0540
     18  S         24.8130  -21.5540  -14.5740 S.O2    1  UNL1        0.2390
     19  O         24.4950  -22.8300  -15.1750 O.2     1  UNL1       -0.2060
     20  O         26.1210  -20.9520  -14.6670 O.2     1  UNL1       -0.2060
     21  N         23.6890  -20.4710  -15.2080 N.3     1  UNL1       -0.2250
     22  H         23.3130  -19.8240  -14.5160 H       1  UNL1        0.1360
     23  H         22.9530  -20.9960  -15.6840 H       1  UNL1        0.1360
     24  S         16.2150  -23.7400   -7.5700 S.O2    1  UNL1        0.2630
     25  O         15.5760  -24.9260   -8.0930 O.2     1  UNL1       -0.2000
     26  O         15.4450  -22.7320   -6.8700 O.2     1  UNL1       -0.2000
     27  N         17.4750  -24.1660   -6.5280 N.pl3   1  UNL1       -0.2810
     28  H         18.2530  -24.5650   -7.0520 H       1  UNL1        0.1790
     29  C         17.8020  -23.2630   -5.4780 C.2     1  UNL1        0.0430
     30  C         17.3780  -23.5380   -4.1800 C.2     1  UNL1        0.0300
     31  C         17.6430  -22.6260   -3.1590 C.2     1  UNL1        0.0030
     32  C         18.3380  -21.4470   -3.4370 C.2     1  UNL1        0.0070
     33  C         18.7770  -21.1720   -4.7380 C.2     1  UNL1       -0.0600
     34  C         19.4770  -19.8810   -5.0460 C.3     1  UNL1        0.0480
     35  C         18.4910  -22.0830   -5.7620 C.2     1  UNL1        0.0370
@<TRIPOS>BOND
     1    23    21    1
     2    21    18    1
     3    21    22    1
     4    19    18    2
     5    20    18    2
     6    18    16    1
     7    16    17    1
     8    16    15    2
     9    17    12    2
    10     5     4    1
    11    15    14    1
    12    11    10    1
    13    12    10    1
    14    12    13    1
    15     4     3    2
    16     4     6    1
    17    10     8   am
    18     3     2    1
    19    14    13    2
    20     8     6    1
    21     8     9    2
    22     6     7    2
    23     2     1    2
    24     7     1    1
    25     1    24    1
    26    25    24    2
    27    24    26    2
    28    24    27    1
    29    28    27    1
    30    27    29    1
    31    35    29    2
    32    35    33    1
    33    29    30    1
    34    34    33    1
    35    33    32    2
    36    30    31    2
    37    32    31    1
