@<TRIPOS>MOLECULE
77609_out_ligand_01.pdbqt
 30 33 0 0 0
SMALL
GASTEIGER

@<TRIPOS>ATOM
      1  C         21.7220  -21.5840  -12.2140 C.2     1  UNL1        0.0330
      2  C         22.2050  -22.1480  -11.0350 C.2     1  UNL1        0.0190
      3  C         21.3360  -22.3740   -9.9590 C.2     1  UNL1        0.0310
      4  C         19.9720  -22.0460  -10.0270 C.2     1  UNL1        0.0430
      5  C         19.4820  -21.5420  -11.2510 C.2     1  UNL1       -0.0300
      6  C         20.3600  -21.2990  -12.3260 C.2     1  UNL1        0.0260
      7  C         18.0270  -21.2150  -11.4400 C.3     1  UNL1        0.0420
      8  C         17.1880  -22.1200  -10.5630 C.3     1  UNL1        0.0250
      9  C         17.6480  -21.9810   -9.1230 C.3     1  UNL1        0.1330
     10  N         19.0790  -22.2550   -8.9090 N.am    1  UNL1       -0.3130
     11  C         19.5660  -22.4030   -7.5930 C.2     1  UNL1        0.2580
     12  O         20.7260  -22.2580   -7.2130 O.2     1  UNL1       -0.2670
     13  C         22.6110  -21.3120  -13.3800 C.2     1  UNL1        0.2560
     14  N         23.7590  -22.0830  -13.4210 N.am    1  UNL1       -0.3220
     15  H         23.9350  -22.6610  -12.6120 H       1  UNL1        0.1690
     16  O         22.2800  -20.4280  -14.1610 O.2     1  UNL1       -0.2670
     17  C         24.7670  -22.0920  -14.4150 C.2     1  UNL1        0.0410
     18  C         26.0930  -21.7830  -14.0420 C.2     1  UNL1       -0.0350
     19  C         27.1060  -21.8020  -15.0150 C.2     1  UNL1        0.0090
     20  C         26.4740  -21.4310  -12.6270 C.3     1  UNL1        0.0500
     21  C         26.8200  -22.1200  -16.3420 C.2     1  UNL1        0.0070
     22  C         25.5120  -22.4170  -16.7230 C.2     1  UNL1       -0.0600
     23  C         25.1970  -22.7960  -18.1410 C.3     1  UNL1        0.0480
     24  C         24.4990  -22.4140  -15.7520 C.2     1  UNL1        0.0370
     25  C         18.5990  -22.7430   -6.5280 C.2     1  UNL1        0.0320
     26  C         18.0210  -24.0160   -6.4920 C.2     1  UNL1        0.0170
     27  C         17.1230  -24.3330   -5.4730 C.2     1  UNL1        0.0010
     28  C         16.8200  -23.3860   -4.4910 C.2     1  UNL1        0.0000
     29  C         17.4170  -22.1240   -4.5190 C.2     1  UNL1        0.0010
     30  C         18.3160  -21.8000   -5.5360 C.2     1  UNL1        0.0170
@<TRIPOS>BOND
     1    23    22    1
     2    22    21    2
     3    22    24    1
     4    21    19    1
     5    24    17    2
     6    19    18    2
     7    17    18    1
     8    17    14    1
     9    16    13    2
    10    18    20    1
    11    14    13   am
    12    14    15    1
    13    13     1    1
    14     6     1    2
    15     6     5    1
    16     1     2    1
    17     7     5    1
    18     7     8    1
    19     5     4    2
    20     2     3    2
    21     8     9    1
    22     4     3    1
    23     4    10    1
    24     9    10    1
    25    10    11   am
    26    11    12    2
    27    11    25    1
    28    25    26    2
    29    25    30    1
    30    26    27    1
    31    30    29    2
    32    27    28    2
    33    29    28    1
