@<TRIPOS>MOLECULE
77606_out_ligand_01.pdbqt
 34 37 0 0 0
SMALL
GASTEIGER

@<TRIPOS>ATOM
      1  C         20.7140  -22.8440   -9.9670 C.2     1  UNL1        0.0340
      2  C         21.3090  -23.6570   -8.9950 C.2     1  UNL1        0.0170
      3  C         22.6830  -23.8810   -9.0280 C.2     1  UNL1        0.0030
      4  C         23.4620  -23.2940  -10.0280 C.2     1  UNL1        0.0290
      5  C         22.8750  -22.4830  -11.0100 C.2     1  UNL1        0.0370
      6  C         21.5000  -22.2490  -10.9660 C.2     1  UNL1        0.0460
      7  N         23.7350  -21.9150  -11.9720 N.am    1  UNL1       -0.3090
      8  C         24.9370  -21.2760  -11.7490 C.2     1  UNL1        0.3270
      9  O         25.3510  -20.9420  -10.6400 O.2     1  UNL1       -0.2460
     10  N         25.6230  -20.9070  -12.9210 N.am    1  UNL1       -0.2960
     11  C         26.4250  -19.6870  -12.7870 C.3     1  UNL1        0.1440
     12  C         25.4410  -21.5110  -14.2140 C.2     1  UNL1        0.0800
     13  C         27.0770  -19.1390  -14.0480 C.3     1  UNL1        0.1010
     14  S         25.8300  -18.9900  -15.3450 S.3     1  UNL1       -0.1060
     15  C         25.4240  -20.7240  -15.3820 C.2     1  UNL1        0.1210
     16  N         25.1430  -21.2010  -16.6170 N.2     1  UNL1       -0.2440
     17  C         24.9080  -22.5220  -16.7460 C.2     1  UNL1        0.0320
     18  C         24.5930  -23.0370  -18.1180 C.3     1  UNL1        0.0700
     19  C         24.9900  -23.3950  -15.6700 C.2     1  UNL1        0.0350
     20  C         25.2940  -22.9030  -14.3900 C.2     1  UNL1       -0.0300
     21  C         25.5200  -23.9280  -13.3080 C.3     1  UNL1        0.0500
     22  H         23.3610  -21.8080  -12.9040 H       1  UNL1        0.1700
     23  C         19.2550  -22.5610   -9.9460 C.2     1  UNL1        0.2520
     24  N         18.6850  -22.4430   -8.6980 N.am    1  UNL1       -0.3530
     25  H         19.1960  -22.7810   -7.8930 H       1  UNL1        0.1630
     26  O         18.6240  -22.4640  -10.9910 O.2     1  UNL1       -0.2680
     27  C         17.2550  -22.3050   -8.5610 C.3     1  UNL1        0.1610
     28  C         16.8150  -22.7010   -7.1780 C.2     1  UNL1       -0.0410
     29  C         15.5110  -22.4380   -6.7400 C.2     1  UNL1        0.0090
     30  C         15.0990  -22.8340   -5.4650 C.2     1  UNL1        0.0070
     31  C         15.9820  -23.4970   -4.6060 C.2     1  UNL1       -0.0620
     32  C         15.5270  -23.9490   -3.2510 C.3     1  UNL1        0.0480
     33  C         17.2770  -23.7820   -5.0520 C.2     1  UNL1        0.0070
     34  C         17.6920  -23.3860   -6.3260 C.2     1  UNL1        0.0090
@<TRIPOS>BOND
     1    18    17    1
     2    17    16    2
     3    17    19    1
     4    16    15    1
     5    19    20    2
     6    15    14    1
     7    15    12    2
     8    14    13    1
     9    20    12    1
    10    20    21    1
    11    12    10    1
    12    13    11    1
    13    10    11    1
    14    10     8   am
    15    22     7    1
    16     7     8   am
    17     7     5    1
    18     8     9    2
    19     5     6    1
    20     5     4    2
    21    26    23    2
    22     6     1    2
    23     4     3    1
    24     1    23    1
    25     1     2    1
    26    23    24   am
    27     3     2    2
    28    24    27    1
    29    24    25    1
    30    27    28    1
    31    28    29    2
    32    28    34    1
    33    29    30    1
    34    34    33    2
    35    30    31    2
    36    33    31    1
    37    31    32    1
