@<TRIPOS>MOLECULE
77605_out_ligand_01.pdbqt
 31 34 0 0 0
SMALL
GASTEIGER

@<TRIPOS>ATOM
      1  C         22.9110  -22.2290  -11.8840 C.2     1  UNL1        0.0330
      2  C         22.9590  -22.9850  -10.7130 C.2     1  UNL1        0.0190
      3  C         21.8000  -23.1660   -9.9460 C.2     1  UNL1        0.0310
      4  C         20.5690  -22.6030  -10.3200 C.2     1  UNL1        0.0430
      5  C         20.5410  -21.7990  -11.4790 C.2     1  UNL1       -0.0300
      6  C         21.7090  -21.6140  -12.2440 C.2     1  UNL1        0.0260
      7  C         19.2900  -21.0910  -11.9280 C.3     1  UNL1        0.0420
      8  C         18.0570  -21.7810  -11.3890 C.3     1  UNL1        0.0250
      9  C         18.2060  -21.9720   -9.8900 C.3     1  UNL1        0.1330
     10  N         19.3730  -22.7950   -9.5370 N.am    1  UNL1       -0.3130
     11  C         19.2820  -23.7800   -8.5340 C.2     1  UNL1        0.2580
     12  O         20.0190  -24.7570   -8.4050 O.2     1  UNL1       -0.2670
     13  C         24.1050  -22.0340  -12.7590 C.2     1  UNL1        0.2560
     14  N         23.9400  -21.1010  -13.7670 N.am    1  UNL1       -0.3220
     15  H         23.0750  -20.5830  -13.7540 H       1  UNL1        0.1690
     16  O         25.1200  -22.6690  -12.4920 O.2     1  UNL1       -0.2670
     17  C         24.8800  -20.7000  -14.7520 C.2     1  UNL1        0.0410
     18  C         25.6200  -19.5190  -14.6290 C.2     1  UNL1        0.0300
     19  C         26.5250  -19.1320  -15.6150 C.2     1  UNL1        0.0030
     20  C         26.7010  -19.9220  -16.7450 C.2     1  UNL1        0.0070
     21  C         25.9830  -21.1160  -16.9030 C.2     1  UNL1       -0.0540
     22  C         26.2230  -21.9280  -18.1510 C.3     1  UNL1        0.0490
     23  C         25.0710  -21.5230  -15.8950 C.2     1  UNL1       -0.0290
     24  C         24.2970  -22.8110  -16.0430 C.3     1  UNL1        0.0510
     25  C         18.1870  -23.6720   -7.5380 C.2     1  UNL1        0.0320
     26  C         18.3900  -22.8960   -6.3890 C.2     1  UNL1        0.0200
     27  C         17.3670  -22.7710   -5.4500 C.2     1  UNL1        0.0430
     28  C         16.1480  -23.4040   -5.6740 C.2     1  UNL1        0.1160
     29  F         15.1680  -23.2810   -4.7700 F       1  UNL1       -0.2060
     30  C         15.9300  -24.1620   -6.8230 C.2     1  UNL1        0.0430
     31  C         16.9520  -24.2940   -7.7670 C.2     1  UNL1        0.0200
@<TRIPOS>BOND
     1    22    21    1
     2    21    20    2
     3    21    23    1
     4    20    19    1
     5    24    23    1
     6    23    17    2
     7    19    18    2
     8    17    18    1
     9    17    14    1
    10    14    15    1
    11    14    13   am
    12    13    16    2
    13    13     1    1
    14     6     1    2
    15     6     5    1
    16     7     5    1
    17     7     8    1
    18     1     2    1
    19     5     4    2
    20     8     9    1
    21     2     3    2
    22     4     3    1
    23     4    10    1
    24     9    10    1
    25    10    11   am
    26    11    12    2
    27    11    25    1
    28    31    25    2
    29    31    30    1
    30    25    26    1
    31    30    28    2
    32    26    27    2
    33    28    27    1
    34    28    29    1
