@<TRIPOS>MOLECULE
77611_out_ligand_01.pdbqt
 30 33 0 0 0
SMALL
GASTEIGER

@<TRIPOS>ATOM
      1  C         22.1410  -22.1050  -11.4130 C.2     1  UNL1        0.0330
      2  C         22.1820  -22.5110  -10.0800 C.2     1  UNL1        0.0190
      3  C         20.9940  -22.6430   -9.3500 C.2     1  UNL1        0.0310
      4  C         19.7390  -22.3770   -9.9220 C.2     1  UNL1        0.0430
      5  C         19.7170  -21.8980  -11.2490 C.2     1  UNL1       -0.0300
      6  C         20.9110  -21.7830  -11.9880 C.2     1  UNL1        0.0260
      7  C         18.4270  -21.5300  -11.9300 C.3     1  UNL1        0.0420
      8  C         17.4310  -21.0520  -10.8970 C.3     1  UNL1        0.0250
      9  C         17.2600  -22.1230   -9.8370 C.3     1  UNL1        0.1330
     10  N         18.5110  -22.5350   -9.1780 N.am    1  UNL1       -0.3130
     11  C         18.4510  -23.3360   -8.0170 C.2     1  UNL1        0.2580
     12  O         19.3350  -24.0660   -7.5760 O.2     1  UNL1       -0.2670
     13  C         23.3770  -21.9660  -12.2340 C.2     1  UNL1        0.2560
     14  N         23.1930  -21.3410  -13.4540 N.am    1  UNL1       -0.3230
     15  H         22.2790  -20.9480  -13.6330 H       1  UNL1        0.1690
     16  O         24.4330  -22.3680  -11.7620 O.2     1  UNL1       -0.2670
     17  C         24.1650  -21.1060  -14.4520 C.2     1  UNL1        0.0370
     18  C         25.0700  -20.0450  -14.4200 C.2     1  UNL1        0.0290
     19  C         26.0060  -19.8840  -15.4430 C.2     1  UNL1        0.0050
     20  C         26.0430  -20.7860  -16.5040 C.2     1  UNL1        0.0370
     21  C         25.1490  -21.8560  -16.5530 C.2     1  UNL1        0.0700
     22  C         24.2130  -22.0130  -15.5260 C.2     1  UNL1        0.0660
     23  O         25.2900  -22.6670  -17.6450 O.2     1  UNL1       -0.3560
     24  C         24.1130  -23.2810  -18.1530 C.3     1  UNL1        0.2100
     25  C         17.1930  -23.3400   -7.2410 C.2     1  UNL1        0.0320
     26  C         16.3380  -24.4420   -7.3300 C.2     1  UNL1        0.0170
     27  C         15.1580  -24.4570   -6.5850 C.2     1  UNL1        0.0010
     28  C         14.8480  -23.3840   -5.7470 C.2     1  UNL1        0.0000
     29  C         15.7180  -22.2960   -5.6430 C.2     1  UNL1        0.0010
     30  C         16.8980  -22.2730   -6.3850 C.2     1  UNL1        0.0170
@<TRIPOS>BOND
     1    24    23    1
     2    23    21    1
     3    21    20    2
     4    21    22    1
     5    20    19    1
     6    22    17    2
     7    19    18    2
     8    17    18    1
     9    17    14    1
    10    15    14    1
    11    14    13   am
    12    13    16    2
    13    13     1    1
    14     6     1    2
    15     6     5    1
    16     7     5    1
    17     7     8    1
    18     1     2    1
    19     5     4    2
    20     8     9    1
    21     2     3    2
    22     4     3    1
    23     4    10    1
    24     9    10    1
    25    10    11   am
    26    11    12    2
    27    11    25    1
    28    26    25    2
    29    26    27    1
    30    25    30    1
    31    27    28    2
    32    30    29    2
    33    28    29    1
