@<TRIPOS>MOLECULE
77618_out_ligand_01.pdbqt
 30 33 0 0 0
SMALL
GASTEIGER

@<TRIPOS>ATOM
      1  C         22.4770  -22.3390  -11.6150 C.2     1  UNL1        0.0330
      2  C         22.5330  -23.1110  -10.4570 C.2     1  UNL1        0.0190
      3  C         21.3860  -23.2800   -9.6710 C.2     1  UNL1        0.0310
      4  C         20.1590  -22.6890  -10.0160 C.2     1  UNL1        0.0430
      5  C         20.1200  -21.8890  -11.1790 C.2     1  UNL1       -0.0300
      6  C         21.2790  -21.7120  -11.9590 C.2     1  UNL1        0.0260
      7  C         18.8690  -21.1710  -11.6100 C.3     1  UNL1        0.0420
      8  C         17.6370  -21.8270  -11.0250 C.3     1  UNL1        0.0250
      9  C         17.8250  -21.9960   -9.5280 C.3     1  UNL1        0.1330
     10  N         18.9820  -22.8420   -9.1970 N.am    1  UNL1       -0.3130
     11  C         18.9060  -23.7850   -8.1540 C.2     1  UNL1        0.2580
     12  O         19.6100  -24.7860   -8.0330 O.2     1  UNL1       -0.2670
     13  C         23.6710  -22.1280  -12.4820 C.2     1  UNL1        0.2560
     14  O         24.7530  -22.5530  -12.0970 O.2     1  UNL1       -0.2670
     15  N         23.4280  -21.4170  -13.6450 N.am    1  UNL1       -0.3230
     16  H         22.5040  -21.0180  -13.7490 H       1  UNL1        0.1690
     17  C         24.3530  -21.1020  -14.6620 C.2     1  UNL1        0.0360
     18  C         25.0830  -19.9130  -14.5110 C.2     1  UNL1        0.0320
     19  C         26.0170  -19.5220  -15.4740 C.2     1  UNL1        0.0460
     20  C         26.2210  -20.3190  -16.5940 C.2     1  UNL1        0.1380
     21  F         27.1210  -19.9260  -17.5080 F       1  UNL1       -0.2040
     22  C         25.5010  -21.4990  -16.7600 C.2     1  UNL1        0.0740
     23 CL         25.7510  -22.4820  -18.1530 Cl      1  UNL1       -0.0810
     24  C         24.5660  -21.8910  -15.7980 C.2     1  UNL1        0.0560
     25  C         17.8800  -23.5840   -7.1020 C.2     1  UNL1        0.0320
     26  C         16.6500  -24.2500   -7.1700 C.2     1  UNL1        0.0170
     27  C         15.6910  -24.0330   -6.1800 C.2     1  UNL1        0.0010
     28  C         15.9550  -23.1440   -5.1360 C.2     1  UNL1        0.0000
     29  C         17.1720  -22.4610   -5.0840 C.2     1  UNL1        0.0010
     30  C         18.1340  -22.6740   -6.0700 C.2     1  UNL1        0.0170
@<TRIPOS>BOND
     1    23    22    1
     2    21    20    1
     3    22    20    2
     4    22    24    1
     5    20    19    1
     6    24    17    2
     7    19    18    2
     8    17    18    1
     9    17    15    1
    10    16    15    1
    11    15    13   am
    12    13    14    2
    13    13     1    1
    14     6     1    2
    15     6     5    1
    16     1     2    1
    17     7     5    1
    18     7     8    1
    19     5     4    2
    20     8     9    1
    21     2     3    2
    22     4     3    1
    23     4    10    1
    24     9    10    1
    25    10    11   am
    26    11    12    2
    27    11    25    1
    28    26    25    2
    29    26    27    1
    30    25    30    1
    31    27    28    2
    32    30    29    2
    33    28    29    1
