@<TRIPOS>MOLECULE
77616_out_ligand_01.pdbqt
 31 33 0 0 0
SMALL
GASTEIGER

@<TRIPOS>ATOM
      1  C         21.5670  -22.4320  -10.0850 C.2     1  UNL1        0.0800
      2  C         21.0190  -21.8660  -11.2380 C.2     1  UNL1        0.0280
      3  C         19.6330  -21.7430  -11.3430 C.2     1  UNL1        0.0450
      4  C         18.8140  -22.1850  -10.3030 C.2     1  UNL1        0.1320
      5  F         17.4880  -22.0530  -10.4560 F       1  UNL1       -0.2050
      6  C         19.3510  -22.7510   -9.1440 C.2     1  UNL1        0.0720
      7  C         20.7460  -22.8680   -9.0380 C.2     1  UNL1        0.0450
      8  S         23.3290  -22.6010   -9.9240 S.O2    1  UNL1        0.2590
      9  O         23.9020  -21.2740   -9.9230 O.2     1  UNL1       -0.2010
     10  O         23.5690  -23.5440   -8.8570 O.2     1  UNL1       -0.2010
     11  N         23.7620  -23.3440  -11.3500 N.3     1  UNL1       -0.3110
     12  H         23.0000  -23.6790  -11.9350 H       1  UNL1        0.1720
     13  C         25.0450  -23.0430  -11.9680 C.3     1  UNL1        0.1700
     14  C         24.9320  -23.0720  -13.4710 C.2     1  UNL1       -0.0400
     15  C         25.3160  -24.2150  -14.1840 C.2     1  UNL1        0.0090
     16  C         25.1920  -24.2590  -15.5750 C.2     1  UNL1        0.0070
     17  C         24.6640  -23.1680  -16.2740 C.2     1  UNL1       -0.0620
     18  C         24.5600  -23.2030  -17.7700 C.3     1  UNL1        0.0480
     19  C         24.2810  -22.0260  -15.5640 C.2     1  UNL1        0.0070
     20  C         24.4050  -21.9800  -14.1730 C.2     1  UNL1        0.0090
     21  C         18.5130  -23.2610   -8.0170 C.2     1  UNL1        0.2590
     22  O         18.6490  -24.4400   -7.7030 O.2     1  UNL1       -0.2670
     23  N         17.6510  -22.3590   -7.4240 N.am    1  UNL1       -0.3220
     24  H         17.6260  -21.4140   -7.7980 H       1  UNL1        0.1690
     25  C         16.7640  -22.5780   -6.3420 C.2     1  UNL1        0.0520
     26  C         15.5550  -23.2690   -6.4700 C.2     1  UNL1        0.0310
     27  C         14.7170  -23.4570   -5.3660 C.2     1  UNL1        0.0020
     28  C         15.0740  -22.9570   -4.1160 C.2     1  UNL1        0.0020
     29  C         16.2730  -22.2670   -3.9660 C.2     1  UNL1        0.0210
     30  C         17.1110  -22.0790   -5.0710 C.2     1  UNL1        0.0370
     31 BR         18.7360  -21.1280   -4.7840 Br      1  UNL1       -0.0490
@<TRIPOS>BOND
     1    18    17    1
     2    17    16    2
     3    17    19    1
     4    16    15    1
     5    19    20    2
     6    15    14    2
     7    20    14    1
     8    14    13    1
     9    13    11    1
    10    12    11    1
    11    11     8    1
    12     3     2    1
    13     3     4    2
    14     2     1    2
    15     5     4    1
    16     4     6    1
    17     1     8    1
    18     1     7    1
    19     8     9    2
    20     8    10    2
    21     6     7    2
    22     6    21    1
    23    21    22    2
    24    21    23   am
    25    24    23    1
    26    23    25    1
    27    26    25    2
    28    26    27    1
    29    25    30    1
    30    27    28    2
    31    30    31    1
    32    30    29    2
    33    28    29    1
