@<TRIPOS>MOLECULE
7762_out_ligand_01.pdbqt
 37 40 0 0 0
SMALL
GASTEIGER

@<TRIPOS>ATOM
      1  S         23.3820  -22.9880   -9.4750 S.O2    1  UNL1        0.2720
      2  O         24.2740  -23.9090   -8.7990 O.2     1  UNL1       -0.2030
      3  O         23.5730  -21.5560   -9.3560 O.2     1  UNL1       -0.2030
      4  C         21.7700  -23.3280   -8.8410 C.ar    1  UNL1        0.2330
      5  N         21.0740  -24.4330   -9.0190 N.ar    1  UNL1       -0.1270
      6  N         19.8590  -24.3680   -8.3620 N.ar    1  UNL1       -0.1220
      7  C         19.7050  -23.2310   -7.7170 C.ar    1  UNL1        0.1970
      8  S         21.0240  -22.1610   -7.8450 S.2     1  UNL1       -0.0150
      9  N         18.5710  -22.9550   -6.9950 N.am    1  UNL1       -0.3000
     10  C         17.6910  -23.8670   -6.4670 C.2     1  UNL1        0.2580
     11  O         17.7550  -25.0880   -6.5080 O.2     1  UNL1       -0.2670
     12  H         18.4280  -21.9690   -6.8230 H       1  UNL1        0.1710
     13  C         16.5640  -23.2470   -5.7250 C.2     1  UNL1        0.0380
     14  C         15.4990  -22.7550   -6.4940 C.2     1  UNL1        0.0170
     15  C         14.3870  -22.1940   -5.8700 C.2     1  UNL1        0.0010
     16  C         14.3390  -22.1190   -4.4800 C.2     1  UNL1        0.0010
     17  C         15.4060  -22.5880   -3.7120 C.2     1  UNL1        0.0070
     18  C         16.5430  -23.1420   -4.3210 C.2     1  UNL1       -0.0460
     19  C         17.6830  -23.5980   -3.4540 C.3     1  UNL1        0.0490
     20  N         23.4090  -23.4070  -11.1350 N.pl3   1  UNL1       -0.1790
     21  H         23.3780  -24.4400  -11.1770 H       1  UNL1        0.1460
     22  C         24.5440  -22.8980  -11.8650 C.2     1  UNL1        0.0380
     23  C         25.8200  -23.3260  -11.4930 C.2     1  UNL1        0.0250
     24  C         26.9370  -22.9200  -12.2240 C.2     1  UNL1        0.0020
     25  C         26.7850  -22.0850  -13.3310 C.2     1  UNL1        0.0010
     26  C         25.5130  -21.6550  -13.7150 C.2     1  UNL1        0.0190
     27  C         24.3840  -22.0690  -12.9930 C.2     1  UNL1        0.0540
     28  C         23.0260  -21.5960  -13.3780 C.2     1  UNL1        0.2530
     29  O         22.7850  -21.3460  -14.5560 O.2     1  UNL1       -0.2680
     30  N         22.1200  -21.4260  -12.3580 N.am    1  UNL1       -0.3540
     31  H         22.4630  -21.3680  -11.4060 H       1  UNL1        0.1620
     32  C         20.8110  -20.8250  -12.5720 C.3     1  UNL1        0.1550
     33  C         19.8330  -21.1210  -11.4300 C.3     1  UNL1        0.1390
     34  C         19.2570  -22.5290  -11.4080 C.3     1  UNL1        0.0350
     35  C         17.9390  -22.3110  -10.7120 C.3     1  UNL1        0.0290
     36  C         17.5110  -20.9680  -11.2620 C.3     1  UNL1        0.1680
     37  O         18.7110  -20.2110  -11.4920 O.3     1  UNL1       -0.3840
@<TRIPOS>BOND
     1    29    28    2
     2    26    25    2
     3    26    27    1
     4    28    27    1
     5    28    30   am
     6    25    24    1
     7    27    22    2
     8    32    30    1
     9    32    33    1
    10    30    31    1
    11    24    23    2
    12    22    23    1
    13    22    20    1
    14    37    33    1
    15    37    36    1
    16    33    34    1
    17    34    35    1
    18    36    35    1
    19    21    20    1
    20    20     1    1
    21     1     3    2
    22     1     4    1
    23     1     2    2
    24     5     4   ar
    25     5     6   ar
    26     4     8   ar
    27     6     7   ar
    28     8     7   ar
    29     7     9    1
    30     9    12    1
    31     9    10   am
    32    11    10    2
    33    14    15    1
    34    14    13    2
    35    10    13    1
    36    15    16    2
    37    13    18    1
    38    16    17    1
    39    18    17    2
    40    18    19    1
