@<TRIPOS>MOLECULE
77622_out_ligand_01.pdbqt
 31 34 0 0 0
SMALL
GASTEIGER

@<TRIPOS>ATOM
      1  C         20.3360  -22.7580   -8.2550 C.2     1  UNL1        0.2580
      2  O         21.4290  -22.9220   -7.7180 O.2     1  UNL1       -0.2670
      3  N         20.0940  -22.4280   -9.6070 N.am    1  UNL1       -0.3130
      4  C         18.8090  -21.8140   -9.9810 C.3     1  UNL1        0.1330
      5  C         18.5450  -21.7630  -11.4740 C.3     1  UNL1        0.0250
      6  C         19.6860  -21.0400  -12.1550 C.3     1  UNL1        0.0420
      7  C         20.9850  -21.7130  -11.8080 C.2     1  UNL1       -0.0300
      8  C         22.0400  -21.6320  -12.7360 C.2     1  UNL1        0.0260
      9  C         23.2710  -22.2390  -12.4770 C.2     1  UNL1        0.0330
     10  C         23.4350  -22.9600  -11.2960 C.2     1  UNL1        0.0190
     11  C         22.3910  -23.0270  -10.3630 C.2     1  UNL1        0.0310
     12  C         21.1620  -22.3810  -10.5770 C.2     1  UNL1        0.0430
     13  C         24.3580  -22.1290  -13.4920 C.2     1  UNL1        0.2560
     14  O         25.4430  -22.6420  -13.2450 O.2     1  UNL1       -0.2670
     15  N         23.9850  -21.5130  -14.6740 N.am    1  UNL1       -0.3220
     16  H         22.9930  -21.5390  -14.8600 H       1  UNL1        0.1690
     17  C         24.8180  -21.2690  -15.7960 C.2     1  UNL1        0.0460
     18  C         25.6660  -20.1330  -15.7380 C.2     1  UNL1       -0.0350
     19  C         25.6890  -19.2000  -14.5560 C.3     1  UNL1        0.0500
     20  C         26.4990  -19.8290  -16.8280 C.2     1  UNL1        0.0090
     21  C         26.5080  -20.6320  -17.9600 C.2     1  UNL1        0.0010
     22  C         25.7090  -21.7690  -18.0030 C.2     1  UNL1        0.0090
     23  C         24.8830  -22.1230  -16.9190 C.2     1  UNL1       -0.0350
     24  C         24.1580  -23.4370  -17.0350 C.3     1  UNL1        0.0500
     25  C         19.1720  -22.9020   -7.3560 C.2     1  UNL1        0.0320
     26  C         18.9240  -21.9180   -6.3970 C.2     1  UNL1        0.0170
     27  C         17.8340  -22.0580   -5.5370 C.2     1  UNL1        0.0070
     28  C         17.0070  -23.1880   -5.6150 C.2     1  UNL1       -0.0620
     29  C         15.8200  -23.3210   -4.7060 C.3     1  UNL1        0.0480
     30  C         17.2740  -24.1720   -6.5770 C.2     1  UNL1        0.0070
     31  C         18.3630  -24.0380   -7.4410 C.2     1  UNL1        0.0170
@<TRIPOS>BOND
     1    22    21    2
     2    22    23    1
     3    21    20    1
     4    24    23    1
     5    23    17    2
     6    20    18    2
     7    17    18    1
     8    17    15    1
     9    18    19    1
    10    16    15    1
    11    15    13   am
    12    13    14    2
    13    13     9    1
    14     8     9    1
    15     8     7    2
    16     9    10    2
    17     6     7    1
    18     6     5    1
    19     7    12    1
    20     5     4    1
    21    10    11    1
    22    12    11    2
    23    12     3    1
    24     4     3    1
    25     3     1   am
    26     1     2    2
    27     1    25    1
    28    31    25    2
    29    31    30    1
    30    25    26    1
    31    30    28    2
    32    26    27    2
    33    28    27    1
    34    28    29    1
