@<TRIPOS>MOLECULE
77623_out_ligand_01.pdbqt
 31 34 0 0 0
SMALL
GASTEIGER

@<TRIPOS>ATOM
      1  C         22.3620  -22.1610  -11.7130 C.2     1  UNL1        0.0330
      2  C         22.3760  -22.9360  -10.5550 C.2     1  UNL1        0.0190
      3  C         21.2170  -23.0520   -9.7750 C.2     1  UNL1        0.0310
      4  C         20.0210  -22.4050  -10.1240 C.2     1  UNL1        0.0430
      5  C         20.0010  -21.6800  -11.3350 C.2     1  UNL1       -0.0300
      6  C         21.1710  -21.5490  -12.1080 C.2     1  UNL1        0.0260
      7  C         18.7530  -20.9990  -11.8230 C.3     1  UNL1        0.0420
      8  C         17.5380  -21.7530  -11.3300 C.3     1  UNL1        0.0250
      9  C         17.6050  -21.8700   -9.8190 C.3     1  UNL1        0.1330
     10  N         18.8310  -22.5090   -9.3110 N.am    1  UNL1       -0.3130
     11  C         18.8970  -22.9020   -7.9570 C.2     1  UNL1        0.2580
     12  O         19.9110  -23.0510   -7.2780 O.2     1  UNL1       -0.2670
     13  C         23.5710  -21.9990  -12.5690 C.2     1  UNL1        0.2560
     14  N         23.3400  -21.3860  -13.7870 N.am    1  UNL1       -0.3230
     15  H         22.3760  -21.2040  -14.0330 H       1  UNL1        0.1690
     16  O         24.6360  -22.4410  -12.1540 O.2     1  UNL1       -0.2670
     17  C         24.2920  -21.0630  -14.7770 C.2     1  UNL1        0.0350
     18  C         25.1620  -19.9800  -14.6970 C.2     1  UNL1        0.0300
     19  C         26.0710  -19.7240  -15.7290 C.2     1  UNL1        0.0090
     20  C         26.1280  -20.5470  -16.8620 C.2     1  UNL1       -0.0560
     21  C         27.1210  -20.2350  -17.9490 C.3     1  UNL1        0.0490
     22  C         25.2520  -21.6420  -16.9560 C.2     1  UNL1       -0.0540
     23  C         24.3420  -21.8860  -15.9110 C.2     1  UNL1        0.0370
     24  C         25.2660  -22.5580  -18.1500 C.3     1  UNL1        0.0490
     25  C         17.6270  -23.1480   -7.2400 C.2     1  UNL1        0.0320
     26  C         16.8140  -24.2280   -7.6100 C.2     1  UNL1        0.0200
     27  C         15.6320  -24.4680   -6.9080 C.2     1  UNL1        0.0430
     28  C         15.2880  -23.6400   -5.8410 C.2     1  UNL1        0.1160
     29  F         14.1530  -23.8730   -5.1700 F       1  UNL1       -0.2060
     30  C         16.1040  -22.5800   -5.4560 C.2     1  UNL1        0.0430
     31  C         17.2870  -22.3340   -6.1540 C.2     1  UNL1        0.0200
@<TRIPOS>BOND
     1    24    22    1
     2    21    20    1
     3    22    20    2
     4    22    23    1
     5    20    19    1
     6    23    17    2
     7    19    18    2
     8    17    18    1
     9    17    14    1
    10    15    14    1
    11    14    13   am
    12    13    16    2
    13    13     1    1
    14     6     1    2
    15     6     5    1
    16     7     5    1
    17     7     8    1
    18     1     2    1
    19     5     4    2
    20     8     9    1
    21     2     3    2
    22     4     3    1
    23     4    10    1
    24     9    10    1
    25    10    11   am
    26    11    12    2
    27    11    25    1
    28    26    25    2
    29    26    27    1
    30    25    31    1
    31    27    28    2
    32    31    30    2
    33    28    30    1
    34    28    29    1
