@<TRIPOS>MOLECULE
77632_out_ligand_01.pdbqt
 38 42 0 0 0
SMALL
GASTEIGER

@<TRIPOS>ATOM
      1  C         17.7640  -22.2370   -9.4330 C.2     1  UNL1        0.0980
      2  C         17.4090  -21.6420  -10.5850 C.2     1  UNL1        0.1090
      3  N         18.2610  -21.3310  -11.6130 N.pl3   1  UNL1       -0.3640
      4  C         19.6330  -21.5810  -11.5100 C.2     1  UNL1        0.0460
      5  C         20.5070  -21.2530  -12.5510 C.2     1  UNL1        0.0320
      6  C         21.8710  -21.5380  -12.4440 C.2     1  UNL1        0.0270
      7  C         22.3610  -22.1650  -11.2940 C.2     1  UNL1        0.0810
      8  C         21.5060  -22.4980  -10.2410 C.2     1  UNL1        0.0430
      9  C         20.1440  -22.2110  -10.3600 C.2     1  UNL1        0.0430
     10  C         19.2070  -22.5760   -9.2660 C.2     1  UNL1        0.2010
     11  O         19.6250  -23.1430   -8.2570 O.2     1  UNL1       -0.2860
     12  H         17.9010  -20.8070  -12.4040 H       1  UNL1        0.1650
     13  S         24.0900  -22.5350  -11.1510 S.O2    1  UNL1        0.2630
     14  O         24.3010  -23.0710   -9.8230 O.2     1  UNL1       -0.2000
     15  O         24.8490  -21.4000  -11.6250 O.2     1  UNL1       -0.2000
     16  N         24.2730  -23.8270  -12.2240 N.pl3   1  UNL1       -0.2810
     17  H         24.5170  -24.6860  -11.7290 H       1  UNL1        0.1790
     18  C         24.9150  -23.5770  -13.4680 C.2     1  UNL1        0.0450
     19  C         26.1040  -24.2460  -13.7630 C.2     1  UNL1        0.0330
     20  C         26.7350  -24.0350  -14.9910 C.2     1  UNL1        0.0420
     21  C         26.1700  -23.1650  -15.9200 C.2     1  UNL1        0.1020
     22  C         24.9920  -22.4750  -15.6070 C.2     1  UNL1        0.1040
     23  O         26.8300  -23.0220  -17.1130 O.2     1  UNL1       -0.3460
     24  C         24.3540  -22.6940  -14.3870 C.2     1  UNL1        0.0690
     25  O         24.4030  -21.5760  -16.4600 O.2     1  UNL1       -0.3460
     26  C         25.3040  -21.1680  -17.4950 C.3     1  UNL1        0.2020
     27  C         26.0090  -22.3740  -18.0940 C.3     1  UNL1        0.2020
     28  C         16.7070  -22.5140   -8.4190 C.2     1  UNL1        0.2570
     29  O         15.5790  -22.8740   -8.7500 O.2     1  UNL1       -0.2670
     30  N         17.0940  -22.3430   -7.1130 N.am    1  UNL1       -0.3520
     31  H         18.0360  -21.9870   -6.9390 H       1  UNL1        0.1630
     32  C         16.1880  -22.4730   -5.9770 C.3     1  UNL1        0.0840
     33  C         15.8620  -23.9580   -5.7820 C.3     1  UNL1        0.0250
     34  C         15.0550  -24.2920   -4.5310 C.3     1  UNL1        0.0020
     35  C         15.7060  -23.9440   -3.1870 C.3     1  UNL1        0.0000
     36  C         17.2300  -23.8230   -3.2210 C.2     1  UNL1        0.0000
     37  C         17.7830  -22.5760   -3.9350 C.2     1  UNL1        0.0020
     38  C         16.7780  -21.7540   -4.7540 C.3     1  UNL1        0.0250
@<TRIPOS>BOND
     1    27    26    1
     2    27    23    1
     3    26    25    1
     4    23    21    1
     5    25    22    1
     6    21    22    2
     7    21    20    1
     8    22    24    1
     9    20    19    2
    10    24    18    2
    11    19    18    1
    12    18    16    1
    13     5     6    1
    14     5     4    2
    15     6     7    2
    16    12     3    1
    17    16    17    1
    18    16    13    1
    19    15    13    2
    20     3     4    1
    21     3     2    1
    22     4     9    1
    23     7    13    1
    24     7     8    1
    25    13    14    2
    26     2     1    2
    27     9     8    2
    28     9    10    1
    29     1    10    1
    30     1    28    1
    31    10    11    2
    32    29    28    2
    33    28    30   am
    34    30    31    1
    35    30    32    1
    36    32    33    1
    37    32    38    1
    38    33    34    1
    39    38    37    1
    40    34    35    1
    41    37    36    2
    42    36    35    1
