@<TRIPOS>MOLECULE
77643_out_ligand_01.pdbqt
 36 40 0 0 0
SMALL
GASTEIGER

@<TRIPOS>ATOM
      1  C         20.5540  -22.9640  -10.0140 C.2     1  UNL1        0.0320
      2  C         20.2940  -21.9650  -10.9590 C.2     1  UNL1        0.0190
      3  C         21.3050  -21.5490  -11.8330 C.2     1  UNL1        0.0300
      4  C         22.5870  -22.1120  -11.7680 C.2     1  UNL1        0.0360
      5  C         22.8420  -23.1020  -10.8190 C.2     1  UNL1        0.0300
      6  C         21.8350  -23.5200   -9.9420 C.2     1  UNL1        0.0190
      7  C         19.5170  -23.4400   -9.0580 C.2     1  UNL1        0.2510
      8  O         19.8470  -24.0120   -8.0260 O.2     1  UNL1       -0.2680
      9  N         18.2040  -23.2260   -9.4220 N.am    1  UNL1       -0.3570
     10  H         17.9930  -22.9440  -10.3690 H       1  UNL1        0.1620
     11  C         17.1060  -23.7260   -8.6110 C.3     1  UNL1        0.1270
     12  C         16.2240  -22.6040   -8.0550 C.3     1  UNL1        0.0600
     13  C         16.1050  -22.6690   -6.5640 C.2     1  UNL1       -0.0290
     14  C         15.0490  -23.2060   -5.8540 C.2     1  UNL1        0.0960
     15  N         15.3140  -23.0720   -4.5200 N.pl3   1  UNL1       -0.3650
     16  C         16.5270  -22.4500   -4.3360 C.2     1  UNL1        0.0420
     17  H         14.7090  -23.3810   -3.7710 H       1  UNL1        0.1650
     18  C         17.1940  -22.1060   -3.1540 C.2     1  UNL1        0.0300
     19  C         17.0500  -22.1890   -5.6020 C.2     1  UNL1       -0.0020
     20  C         18.4350  -21.4740   -3.2700 C.2     1  UNL1        0.0020
     21  C         18.9860  -21.2000   -4.5190 C.2     1  UNL1        0.0010
     22  C         18.3050  -21.5520   -5.6910 C.2     1  UNL1        0.0140
     23  N         23.5410  -21.6470  -12.6950 N.am    1  UNL1       -0.3090
     24  C         24.8400  -21.2480  -12.4480 C.2     1  UNL1        0.3270
     25  O         25.3150  -21.0910  -11.3260 O.2     1  UNL1       -0.2460
     26  N         25.5610  -20.9190  -13.6040 N.am    1  UNL1       -0.2960
     27  C         26.6730  -19.9760  -13.4540 C.3     1  UNL1        0.1440
     28  C         25.4260  -21.5400  -14.8930 C.2     1  UNL1        0.0740
     29  C         26.5440  -18.8120  -14.4210 C.3     1  UNL1        0.1010
     30  S         26.7430  -19.3630  -16.1340 S.3     1  UNL1       -0.1060
     31  C         25.9160  -20.9430  -16.0710 C.2     1  UNL1        0.1200
     32  N         25.8030  -21.5210  -17.2950 N.2     1  UNL1       -0.2520
     33  C         25.2200  -22.7320  -17.3740 C.2     1  UNL1        0.1180
     34  C         24.7390  -23.4160  -16.2770 C.2     1  UNL1        0.0220
     35  C         24.8530  -22.8140  -15.0260 C.2     1  UNL1        0.0340
     36  H         23.1980  -21.4150  -13.6170 H       1  UNL1        0.1700
@<TRIPOS>BOND
     1    33    32    2
     2    33    34    1
     3    32    31    1
     4    34    35    2
     5    30    31    1
     6    30    29    1
     7    31    28    2
     8    35    28    1
     9    28    26    1
    10    29    27    1
    11    36    23    1
    12    26    27    1
    13    26    24   am
    14    23    24   am
    15    23     4    1
    16    24    25    2
    17     3     4    2
    18     3     2    1
    19     4     5    1
    20     2     1    2
    21     5     6    2
    22    10     9    1
    23     1     6    1
    24     1     7    1
    25     9     7   am
    26     9    11    1
    27     7     8    2
    28    11    12    1
    29    12    13    1
    30    13    14    2
    31    13    19    1
    32    14    15    1
    33    22    19    1
    34    22    21    2
    35    19    16    2
    36    15    16    1
    37    15    17    1
    38    21    20    1
    39    16    18    1
    40    20    18    2
