@<TRIPOS>MOLECULE
77658_out_ligand_01.pdbqt
 31 34 0 0 0
SMALL
GASTEIGER

@<TRIPOS>ATOM
      1  C         23.2450  -22.1390  -12.4740 C.2     1  UNL1        0.0330
      2  C         23.4230  -22.8950  -11.3160 C.2     1  UNL1        0.0190
      3  C         22.3580  -23.0750  -10.4240 C.2     1  UNL1        0.0310
      4  C         21.0930  -22.5120  -10.6580 C.2     1  UNL1        0.0430
      5  C         20.9300  -21.7270  -11.8210 C.2     1  UNL1       -0.0300
      6  C         22.0070  -21.5380  -12.7100 C.2     1  UNL1        0.0260
      7  C         19.6340  -21.0310  -12.1410 C.3     1  UNL1        0.0420
      8  C         18.4720  -21.6900  -11.4260 C.3     1  UNL1        0.0250
      9  C         18.8120  -21.8380   -9.9550 C.3     1  UNL1        0.1330
     10  N         19.9970  -22.6800   -9.7350 N.am    1  UNL1       -0.3130
     11  C         20.0380  -23.6090   -8.6780 C.2     1  UNL1        0.2610
     12  O         20.7840  -24.5850   -8.6030 O.2     1  UNL1       -0.2670
     13  C         24.3490  -21.9180  -13.4510 C.2     1  UNL1        0.2560
     14  N         23.9320  -21.5430  -14.7160 N.am    1  UNL1       -0.3220
     15  H         22.9460  -21.3480  -14.8200 H       1  UNL1        0.1690
     16  O         25.5010  -22.0460  -13.0570 O.2     1  UNL1       -0.2670
     17  C         24.7290  -21.3090  -15.8630 C.2     1  UNL1        0.0410
     18  C         24.7950  -22.3060  -16.8600 C.2     1  UNL1       -0.0350
     19  C         25.5940  -22.0920  -17.9970 C.2     1  UNL1        0.0090
     20  C         24.0410  -23.6050  -16.7570 C.3     1  UNL1        0.0500
     21  C         26.3160  -20.9110  -18.1530 C.2     1  UNL1        0.0070
     22  C         26.2490  -19.9150  -17.1790 C.2     1  UNL1       -0.0600
     23  C         27.0500  -18.6550  -17.3180 C.3     1  UNL1        0.0480
     24  C         25.4660  -20.1300  -16.0340 C.2     1  UNL1        0.0370
     25  C         19.0830  -23.4650   -7.5600 C.2     1  UNL1        0.0710
     26  C         18.0610  -24.4100   -7.4130 C.2     1  UNL1        0.0200
     27  C         17.1680  -24.3050   -6.3440 C.2     1  UNL1        0.0010
     28  C         17.3050  -23.2710   -5.4160 C.2     1  UNL1        0.0030
     29  C         18.3410  -22.3440   -5.5490 C.2     1  UNL1        0.0430
     30  C         19.2300  -22.4500   -6.6160 C.2     1  UNL1        0.1320
     31  F         20.2250  -21.5570   -6.7130 F       1  UNL1       -0.2050
@<TRIPOS>BOND
     1    21    19    2
     2    21    22    1
     3    19    18    1
     4    23    22    1
     5    22    24    2
     6    18    20    1
     7    18    17    2
     8    24    17    1
     9    17    14    1
    10    15    14    1
    11    14    13   am
    12    13    16    2
    13    13     1    1
    14     6     1    2
    15     6     5    1
    16     1     2    1
    17     7     5    1
    18     7     8    1
    19     5     4    2
    20     8     9    1
    21     2     3    2
    22     4     3    1
    23     4    10    1
    24     9    10    1
    25    10    11   am
    26    11    12    2
    27    11    25    1
    28    25    26    2
    29    25    30    1
    30    26    27    1
    31    31    30    1
    32    30    29    2
    33    27    28    2
    34    29    28    1
