@<TRIPOS>MOLECULE
7765_out_ligand_01.pdbqt
 34 36 0 0 0
SMALL
GASTEIGER

@<TRIPOS>ATOM
      1  C         21.2720  -21.9530  -10.7980 C.2     1  UNL1        0.0390
      2  C         20.6250  -21.1070  -11.7170 C.2     1  UNL1        0.0170
      3  C         19.2370  -21.1050  -11.8120 C.2     1  UNL1        0.0030
      4  C         18.4940  -21.9520  -10.9980 C.2     1  UNL1        0.0250
      5  C         19.1270  -22.7930  -10.0750 C.2     1  UNL1        0.0290
      6  C         20.5300  -22.8090   -9.9510 C.2     1  UNL1       -0.0240
      7  C         21.2360  -23.7330   -8.9940 C.3     1  UNL1        0.0510
      8  C         22.7630  -21.9430  -10.7840 C.2     1  UNL1        0.2520
      9  N         23.3620  -22.7280  -11.7420 N.am    1  UNL1       -0.3530
     10  H         22.8080  -23.1170  -12.4920 H       1  UNL1        0.1630
     11  O         23.3830  -21.2670   -9.9750 O.2     1  UNL1       -0.2680
     12  C         24.7990  -22.7520  -11.8830 C.3     1  UNL1        0.1620
     13  C         25.2390  -21.8470  -13.0070 C.2     1  UNL1       -0.0340
     14  C         26.0280  -20.6970  -12.7920 C.2     1  UNL1       -0.0510
     15  C         26.4160  -19.9190  -13.8960 C.2     1  UNL1        0.0080
     16  C         26.0450  -20.2740  -15.1940 C.2     1  UNL1        0.0070
     17  C         25.2710  -21.4140  -15.4200 C.2     1  UNL1       -0.0580
     18  C         24.8830  -22.1960  -14.3250 C.2     1  UNL1        0.0160
     19  C         26.4510  -20.2410  -11.4130 C.3     1  UNL1        0.0340
     20  C         27.0090  -18.8260  -11.4290 C.3     1  UNL1        0.0100
     21  C         24.8810  -21.8100  -16.8210 C.3     1  UNL1        0.0340
     22  C         24.6210  -23.3030  -16.9350 C.3     1  UNL1        0.0100
     23  N         18.2700  -23.6750   -9.3320 N.pl3   1  UNL1       -0.1810
     24  H         17.9940  -24.4930   -9.8740 H       1  UNL1        0.1460
     25  S         16.8290  -22.9560   -8.7640 S.O2    1  UNL1        0.2450
     26  O         16.5520  -21.7300   -9.4790 O.2     1  UNL1       -0.2060
     27  O         15.8610  -24.0260   -8.6610 O.2     1  UNL1       -0.2060
     28  C         17.3270  -22.5070   -7.1170 C.2     1  UNL1        0.0740
     29  C         16.4960  -22.7930   -6.0320 C.2     1  UNL1        0.0250
     30  C         16.8950  -22.4220   -4.7480 C.2     1  UNL1        0.0080
     31  C         18.1100  -21.7520   -4.5450 C.2     1  UNL1       -0.0620
     32  C         18.5480  -21.3840   -3.1560 C.3     1  UNL1        0.0480
     33  C         18.9340  -21.4750   -5.6440 C.2     1  UNL1        0.0080
     34  C         18.5410  -21.8420   -6.9310 C.2     1  UNL1        0.0250
@<TRIPOS>BOND
     1    22    21    1
     2    21    17    1
     3    17    16    2
     4    17    18    1
     5    16    15    1
     6    18    13    2
     7    15    14    2
     8    13    14    1
     9    13    12    1
    10    14    19    1
    11    10     9    1
    12    12     9    1
    13     3     2    1
    14     3     4    2
    15     9     8   am
    16     2     1    2
    17    20    19    1
    18     4     5    1
    19     1     8    1
    20     1     6    1
    21     8    11    2
    22     5     6    2
    23     5    23    1
    24     6     7    1
    25    24    23    1
    26    26    25    2
    27    23    25    1
    28    25    27    2
    29    25    28    1
    30    28    34    2
    31    28    29    1
    32    34    33    1
    33    29    30    2
    34    33    31    2
    35    30    31    1
    36    31    32    1
