@<TRIPOS>MOLECULE
77674_out_ligand_01.pdbqt
 32 35 0 0 0
SMALL
GASTEIGER

@<TRIPOS>ATOM
      1  C         22.8610  -22.1410  -11.9480 C.2     1  UNL1        0.0330
      2  C         22.8990  -22.9970  -10.8480 C.2     1  UNL1        0.0190
      3  C         21.7460  -23.2070  -10.0790 C.2     1  UNL1        0.0310
      4  C         20.5220  -22.5950  -10.3930 C.2     1  UNL1        0.0430
      5  C         20.4880  -21.7490  -11.5230 C.2     1  UNL1       -0.0300
      6  C         21.6530  -21.5270  -12.2840 C.2     1  UNL1        0.0260
      7  C         19.2330  -21.0300  -11.9450 C.3     1  UNL1        0.0420
      8  C         18.0040  -21.7280  -11.4040 C.3     1  UNL1        0.0250
      9  C         18.1740  -21.9430   -9.9110 C.3     1  UNL1        0.1330
     10  N         19.3400  -22.7790   -9.5860 N.am    1  UNL1       -0.3130
     11  C         19.2680  -23.7270   -8.5470 C.2     1  UNL1        0.2580
     12  O         19.9960  -24.7080   -8.4030 O.2     1  UNL1       -0.2670
     13  C         24.0590  -21.8730  -12.7970 C.2     1  UNL1        0.2560
     14  N         23.8210  -21.1020  -13.9150 N.am    1  UNL1       -0.3210
     15  H         22.8650  -20.8510  -14.1410 H       1  UNL1        0.1690
     16  O         25.1290  -22.3700  -12.4670 O.2     1  UNL1       -0.2670
     17  C         24.7480  -20.6550  -14.8840 C.2     1  UNL1        0.0680
     18  C         25.6210  -19.5850  -14.6850 C.2     1  UNL1        0.0320
     19  C         26.5060  -19.2010  -15.6940 C.2     1  UNL1        0.0020
     20  C         26.5200  -19.8820  -16.9090 C.2     1  UNL1        0.0030
     21  C         25.6490  -20.9520  -17.1230 C.2     1  UNL1        0.0390
     22  C         24.7590  -21.3430  -16.1180 C.2     1  UNL1        0.0950
     23  O         23.8570  -22.3790  -16.2220 O.2     1  UNL1       -0.3490
     24  C         24.2430  -23.5030  -17.0090 C.3     1  UNL1        0.1710
     25  C         23.2290  -23.6550  -18.1300 C.3     1  UNL1        0.0340
     26  C         18.2150  -23.5600   -7.5160 C.2     1  UNL1        0.0320
     27  C         16.9840  -24.2110   -7.6450 C.2     1  UNL1        0.0170
     28  C         15.9990  -24.0300   -6.6730 C.2     1  UNL1        0.0070
     29  C         16.2270  -23.1770   -5.5830 C.2     1  UNL1       -0.0620
     30  C         15.1780  -23.0050   -4.5240 C.3     1  UNL1        0.0480
     31  C         17.4600  -22.5200   -5.4700 C.2     1  UNL1        0.0070
     32  C         18.4480  -22.7000   -6.4410 C.2     1  UNL1        0.0170
@<TRIPOS>BOND
     1    25    24    1
     2    21    20    2
     3    21    22    1
     4    24    23    1
     5    20    19    1
     6    23    22    1
     7    22    17    2
     8    19    18    2
     9    17    18    1
    10    17    14    1
    11    15    14    1
    12    14    13   am
    13    13    16    2
    14    13     1    1
    15     6     1    2
    16     6     5    1
    17     1     2    1
    18     7     5    1
    19     7     8    1
    20     5     4    2
    21     8     9    1
    22     2     3    2
    23     4     3    1
    24     4    10    1
    25     9    10    1
    26    10    11   am
    27    11    12    2
    28    11    26    1
    29    27    26    2
    30    27    28    1
    31    26    32    1
    32    28    29    2
    33    32    31    2
    34    29    31    1
    35    29    30    1
