@<TRIPOS>MOLECULE
77679_out_ligand_01.pdbqt
 33 35 0 0 0
SMALL
GASTEIGER

@<TRIPOS>ATOM
      1  C         18.9770  -22.3480  -10.2100 C.2     1  UNL1        0.0730
      2  C         18.5700  -21.3460  -11.1080 C.2     1  UNL1       -0.0420
      3  C         17.2060  -20.7230  -11.0410 C.3     1  UNL1        0.0490
      4  C         19.4630  -20.9570  -12.1100 C.2     1  UNL1        0.0340
      5  C         20.7130  -21.5580  -12.1750 C.2     1  UNL1        0.0320
      6  C         21.6970  -21.1190  -13.2190 C.3     1  UNL1        0.0700
      7  N         21.1010  -22.5320  -11.3180 N.2     1  UNL1       -0.2460
      8  C         20.2450  -22.9150  -10.3410 C.2     1  UNL1        0.1100
      9  S         20.8910  -24.1320   -9.2070 S.3     1  UNL1       -0.1000
     10  C         22.1460  -23.1370   -8.3600 C.3     1  UNL1        0.1840
     11  C         22.9760  -22.3040   -9.3280 C.2     1  UNL1        0.2310
     12  O         23.0280  -21.0800   -9.2330 O.2     1  UNL1       -0.2720
     13  N         23.6750  -23.0860  -10.2370 N.am    1  UNL1       -0.3270
     14  H         23.4410  -24.0640  -10.2530 H       1  UNL1        0.1690
     15  C         24.5490  -22.6580  -11.2550 C.2     1  UNL1        0.0350
     16  C         25.4540  -21.6130  -11.1240 C.2     1  UNL1        0.0300
     17  C         26.2690  -21.2480  -12.2010 C.2     1  UNL1        0.0090
     18  C         26.1930  -21.9170  -13.4310 C.2     1  UNL1       -0.0560
     19  C         27.1200  -21.5030  -14.5450 C.3     1  UNL1        0.0490
     20  C         25.2950  -22.9900  -13.5650 C.2     1  UNL1       -0.0540
     21  C         25.2090  -23.8070  -14.8210 C.3     1  UNL1        0.0490
     22  C         24.4810  -23.3420  -12.4760 C.2     1  UNL1        0.0370
     23  C         18.0250  -22.8340   -9.1910 C.2     1  UNL1        0.2590
     24  N         18.2040  -22.2960   -7.9320 N.am    1  UNL1       -0.3230
     25  H         18.9840  -21.6640   -7.8030 H       1  UNL1        0.1690
     26  O         17.1560  -23.6150   -9.5680 O.2     1  UNL1       -0.2670
     27  C         17.4350  -22.5620   -6.7800 C.2     1  UNL1        0.0350
     28  C         18.0490  -23.3020   -5.7580 C.2     1  UNL1        0.0290
     29  C         17.3560  -23.6010   -4.5820 C.2     1  UNL1        0.0030
     30  C         16.0410  -23.1710   -4.4130 C.2     1  UNL1        0.0070
     31  C         15.4100  -22.4420   -5.4220 C.2     1  UNL1       -0.0600
     32  C         14.0030  -21.9440   -5.2320 C.3     1  UNL1        0.0480
     33  C         16.1190  -22.1300   -6.5990 C.2     1  UNL1        0.0360
@<TRIPOS>BOND
     1    21    20    1
     2    19    18    1
     3    20    18    2
     4    20    22    1
     5    18    17    1
     6     6     5    1
     7    22    15    2
     8    17    16    2
     9     5     4    2
    10     5     7    1
    11     4     2    1
    12     7     8    2
    13    15    16    1
    14    15    13    1
    15     2     3    1
    16     2     1    2
    17     8     1    1
    18     8     9    1
    19    14    13    1
    20    13    11   am
    21     1    23    1
    22    26    23    2
    23    11    12    2
    24    11    10    1
    25     9    10    1
    26    23    24   am
    27    24    25    1
    28    24    27    1
    29    27    33    2
    30    27    28    1
    31    33    31    1
    32    28    29    2
    33    31    32    1
    34    31    30    2
    35    29    30    1
