@<TRIPOS>MOLECULE
77670_out_ligand_01.pdbqt
 30 33 0 0 0
SMALL
GASTEIGER

@<TRIPOS>ATOM
      1  C         22.4550  -22.1620  -11.7900 C.2     1  UNL1        0.0330
      2  C         22.4510  -22.9600  -10.6480 C.2     1  UNL1        0.0190
      3  C         21.2880  -23.0720   -9.8750 C.2     1  UNL1        0.0310
      4  C         20.1050  -22.3940  -10.2120 C.2     1  UNL1        0.0430
      5  C         20.1020  -21.6470  -11.4090 C.2     1  UNL1       -0.0300
      6  C         21.2770  -21.5210  -12.1760 C.2     1  UNL1        0.0260
      7  C         18.8680  -20.9330  -11.8870 C.3     1  UNL1        0.0420
      8  C         17.6380  -21.6730  -11.4100 C.3     1  UNL1        0.0250
      9  C         17.7000  -21.8190   -9.9010 C.3     1  UNL1        0.1330
     10  N         18.9110  -22.4900   -9.4030 N.am    1  UNL1       -0.3130
     11  C         18.9680  -22.9090   -8.0560 C.2     1  UNL1        0.2580
     12  O         19.9780  -23.0980   -7.3810 O.2     1  UNL1       -0.2670
     13  C         23.6700  -22.0010  -12.6380 C.2     1  UNL1        0.2560
     14  O         24.6990  -22.5690  -12.2900 O.2     1  UNL1       -0.2670
     15  N         23.4870  -21.2370  -13.7770 N.am    1  UNL1       -0.3230
     16  H         22.5400  -20.9510  -13.9870 H       1  UNL1        0.1690
     17  C         24.4600  -20.8870  -14.7380 C.2     1  UNL1        0.0360
     18  C         24.7460  -21.6490  -15.8720 C.2     1  UNL1        0.0290
     19  C         25.7310  -21.2370  -16.7770 C.2     1  UNL1        0.0040
     20  C         26.4410  -20.0600  -16.5540 C.2     1  UNL1        0.0190
     21  C         26.1620  -19.2990  -15.4230 C.2     1  UNL1        0.0130
     22 BR         27.1210  -17.6990  -15.1090 Br      1  UNL1       -0.0510
     23  C         25.1800  -19.7050  -14.5160 C.2     1  UNL1        0.0480
     24  C         17.6910  -23.1320   -7.3430 C.2     1  UNL1        0.0320
     25  C         16.9160  -24.2620   -7.6350 C.2     1  UNL1        0.0200
     26  C         15.7290  -24.4770   -6.9350 C.2     1  UNL1        0.0430
     27  C         15.3410  -23.5750   -5.9460 C.2     1  UNL1        0.1160
     28  F         14.2010  -23.7850   -5.2760 F       1  UNL1       -0.2060
     29  C         16.1210  -22.4630   -5.6370 C.2     1  UNL1        0.0430
     30  C         17.3100  -22.2420   -6.3330 C.2     1  UNL1        0.0200
@<TRIPOS>BOND
     1    19    20    2
     2    19    18    1
     3    20    21    1
     4    18    17    2
     5    21    22    1
     6    21    23    2
     7    17    23    1
     8    17    15    1
     9    16    15    1
    10    15    13   am
    11    13    14    2
    12    13     1    1
    13     6     1    2
    14     6     5    1
    15     7     8    1
    16     7     5    1
    17     1     2    1
    18     8     9    1
    19     5     4    2
    20     2     3    2
    21     4     3    1
    22     4    10    1
    23     9    10    1
    24    10    11   am
    25    11    12    2
    26    11    24    1
    27    25    24    2
    28    25    26    1
    29    24    30    1
    30    26    27    2
    31    30    29    2
    32    27    29    1
    33    27    28    1
