@<TRIPOS>MOLECULE
77681_out_ligand_01.pdbqt
 30 33 0 0 0
SMALL
GASTEIGER

@<TRIPOS>ATOM
      1  C         21.8580  -21.5750  -12.4090 C.2     1  UNL1        0.0330
      2  C         22.3160  -22.1830  -11.2410 C.2     1  UNL1        0.0190
      3  C         21.4360  -22.4040  -10.1730 C.2     1  UNL1        0.0310
      4  C         20.0840  -22.0280  -10.2370 C.2     1  UNL1        0.0430
      5  C         19.6170  -21.4800  -11.4510 C.2     1  UNL1       -0.0300
      6  C         20.5070  -21.2420  -12.5160 C.2     1  UNL1        0.0260
      7  C         18.1740  -21.0980  -11.6380 C.3     1  UNL1        0.0420
      8  C         17.3010  -21.9860  -10.7790 C.3     1  UNL1        0.0250
      9  C         17.7630  -21.8930   -9.3370 C.3     1  UNL1        0.1330
     10  N         19.1800  -22.2340   -9.1290 N.am    1  UNL1       -0.3130
     11  C         19.6590  -22.4320   -7.8160 C.2     1  UNL1        0.2580
     12  O         20.8180  -22.3170   -7.4260 O.2     1  UNL1       -0.2670
     13  C         22.7580  -21.3080  -13.5660 C.2     1  UNL1        0.2560
     14  O         22.4910  -20.3660  -14.3020 O.2     1  UNL1       -0.2670
     15  N         23.8500  -22.1530  -13.6600 N.am    1  UNL1       -0.3230
     16  H         23.9970  -22.7970  -12.8930 H       1  UNL1        0.1690
     17  C         24.8420  -22.1610  -14.6640 C.2     1  UNL1        0.0370
     18  C         26.1470  -21.6940  -14.4780 C.2     1  UNL1        0.0290
     19  C         27.0750  -21.7280  -15.5260 C.2     1  UNL1        0.0050
     20  C         26.7030  -22.2270  -16.7710 C.2     1  UNL1        0.0420
     21  C         25.4070  -22.6860  -16.9560 C.2     1  UNL1        0.1180
     22  F         25.0420  -23.1650  -18.1520 F       1  UNL1       -0.2060
     23  C         24.4760  -22.6560  -15.9210 C.2     1  UNL1        0.0710
     24  C         18.6840  -22.7940   -6.7650 C.2     1  UNL1        0.0320
     25  C         18.4600  -21.9250   -5.6900 C.2     1  UNL1        0.0180
     26  C         17.5160  -22.2650   -4.7180 C.2     1  UNL1        0.0250
     27  C         16.7960  -23.4540   -4.8360 C.2     1  UNL1        0.0340
     28 CL         15.6340  -23.8690   -3.6360 Cl      1  UNL1       -0.0840
     29  C         17.0020  -24.3080   -5.9210 C.2     1  UNL1        0.0250
     30  C         17.9450  -23.9740   -6.8960 C.2     1  UNL1        0.0180
@<TRIPOS>BOND
     1    22    21    1
     2    21    20    2
     3    21    23    1
     4    20    19    1
     5    23    17    2
     6    19    18    2
     7    17    18    1
     8    17    15    1
     9    14    13    2
    10    15    13   am
    11    15    16    1
    12    13     1    1
    13     6     1    2
    14     6     5    1
    15     1     2    1
    16     7     5    1
    17     7     8    1
    18     5     4    2
    19     2     3    2
    20     8     9    1
    21     4     3    1
    22     4    10    1
    23     9    10    1
    24    10    11   am
    25    11    12    2
    26    11    24    1
    27    30    24    2
    28    30    29    1
    29    24    25    1
    30    29    27    2
    31    25    26    2
    32    27    26    1
    33    27    28    1
