@<TRIPOS>MOLECULE
77687_out_ligand_01.pdbqt
 34 37 0 0 0
SMALL
GASTEIGER

@<TRIPOS>ATOM
      1  C         20.5760  -22.7680  -10.1850 C.2     1  UNL1        0.1140
      2  C         20.9070  -21.7580  -11.2220 C.2     1  UNL1        0.0440
      3  C         19.8880  -21.0470  -11.7210 C.2     1  UNL1        0.0570
      4  C         18.5840  -21.2860  -11.2370 C.ar    1  UNL1        0.1740
      5  N         17.4090  -20.7780  -11.5390 N.ar    1  UNL1       -0.1280
      6  N         16.4650  -21.4010  -10.7550 N.ar    1  UNL1       -0.1330
      7  C         17.0850  -22.2830   -9.9940 C.ar    1  UNL1        0.1530
      8  N         18.4330  -22.2490  -10.2590 N.ar    1  UNL1       -0.1970
      9  N         19.4040  -23.0320   -9.6980 N.2     1  UNL1       -0.1580
     10  C         16.4620  -23.2260   -9.0270 C.3     1  UNL1        0.1030
     11  C         15.9980  -22.5000   -7.7620 C.3     1  UNL1        0.1400
     12  N         15.6190  -23.4690   -6.7200 N.3     1  UNL1       -0.3150
     13  H         14.9190  -24.1780   -6.9540 H       1  UNL1        0.1720
     14  S         16.8350  -24.0830   -5.7360 S.O2    1  UNL1        0.2580
     15  O         17.5040  -25.1430   -6.4590 O.2     1  UNL1       -0.2010
     16  O         16.2450  -24.3060   -4.4350 O.2     1  UNL1       -0.2010
     17  C         17.9340  -22.6960   -5.6000 C.2     1  UNL1        0.0790
     18  C         17.7620  -21.7870   -4.5540 C.2     1  UNL1        0.0250
     19  C         18.6400  -20.7070   -4.4300 C.2     1  UNL1        0.0020
     20  C         19.6800  -20.5460   -5.3460 C.2     1  UNL1        0.0000
     21  C         19.8490  -21.4610   -6.3890 C.2     1  UNL1        0.0020
     22  C         18.9780  -22.5430   -6.5160 C.2     1  UNL1        0.0250
     23  S         21.9590  -23.6760   -9.6200 S.3     1  UNL1       -0.0990
     24  C         23.0630  -22.2920   -9.2200 C.3     1  UNL1        0.1840
     25  C         24.1260  -22.0620  -10.2920 C.2     1  UNL1        0.2310
     26  O         24.7780  -21.0240  -10.3620 O.2     1  UNL1       -0.2720
     27  N         24.2360  -23.1480  -11.1530 N.am    1  UNL1       -0.3270
     28  H         23.6600  -23.9560  -10.9540 H       1  UNL1        0.1690
     29  C         25.0860  -23.2730  -12.2750 C.2     1  UNL1        0.0340
     30  C         26.3120  -23.9370  -12.2580 C.2     1  UNL1        0.0290
     31  C         27.0990  -24.0100  -13.4150 C.2     1  UNL1        0.0020
     32  C         26.6620  -23.4220  -14.6000 C.2     1  UNL1        0.0000
     33  C         25.4390  -22.7550  -14.6280 C.2     1  UNL1        0.0020
     34  C         24.6580  -22.6790  -13.4700 C.2     1  UNL1        0.0290
@<TRIPOS>BOND
     1    33    32    2
     2    33    34    1
     3    32    31    1
     4    34    29    2
     5    31    30    2
     6    29    30    1
     7    29    27    1
     8     3     4    1
     9     3     2    2
    10     5     4   ar
    11     5     6   ar
    12     4     8   ar
    13     2     1    1
    14    27    28    1
    15    27    25   am
    16     6     7   ar
    17    26    25    2
    18    25    24    1
    19     8     7   ar
    20     8     9    1
    21     1     9    2
    22     1    23    1
    23     7    10    1
    24    23    24    1
    25    10    11    1
    26    11    12    1
    27    13    12    1
    28    12    14    1
    29    22    21    1
    30    22    17    2
    31    15    14    2
    32    21    20    2
    33    14    17    1
    34    14    16    2
    35    17    18    1
    36    20    19    1
    37    18    19    2
