@<TRIPOS>MOLECULE
77693_out_ligand_01.pdbqt
 29 32 0 0 0
SMALL
GASTEIGER

@<TRIPOS>ATOM
      1  C         19.5890  -23.3920   -8.5190 C.2     1  UNL1        0.0330
      2  C         20.7730  -24.1270   -8.4800 C.2     1  UNL1        0.0190
      3  C         21.7980  -23.8560   -9.3940 C.2     1  UNL1        0.0310
      4  C         21.6750  -22.8520  -10.3690 C.2     1  UNL1        0.0430
      5  C         20.4450  -22.1660  -10.4460 C.2     1  UNL1       -0.0300
      6  C         19.4220  -22.4260   -9.5140 C.2     1  UNL1        0.0260
      7  C         20.1950  -21.1190  -11.4950 C.3     1  UNL1        0.0420
      8  C         21.0010  -21.4440  -12.7340 C.3     1  UNL1        0.0250
      9  C         22.4650  -21.5690  -12.3550 C.3     1  UNL1        0.1330
     10  N         22.7430  -22.5530  -11.2960 N.am    1  UNL1       -0.3130
     11  C         24.0760  -22.9350  -11.0330 C.2     1  UNL1        0.2610
     12  O         24.5120  -23.3990   -9.9800 O.2     1  UNL1       -0.2670
     13  C         18.4760  -23.6330   -7.5580 C.2     1  UNL1        0.2560
     14  O         18.2300  -24.7880   -7.2320 O.2     1  UNL1       -0.2670
     15  N         17.7980  -22.4940   -7.1590 N.am    1  UNL1       -0.3230
     16  H         18.0420  -21.6290   -7.6230 H       1  UNL1        0.1690
     17  C         16.7350  -22.4090   -6.2360 C.2     1  UNL1        0.0350
     18  C         15.3880  -22.3440   -6.5980 C.2     1  UNL1        0.0290
     19  C         14.3930  -22.2670   -5.6180 C.2     1  UNL1        0.0020
     20  C         14.7360  -22.2580   -4.2680 C.2     1  UNL1        0.0000
     21  C         16.0760  -22.3260   -3.8950 C.2     1  UNL1        0.0020
     22  C         17.0700  -22.4020   -4.8740 C.2     1  UNL1        0.0290
     23  C         25.0950  -22.7160  -12.0740 C.2     1  UNL1        0.0710
     24  C         25.1760  -23.6040  -13.1520 C.2     1  UNL1        0.0200
     25  C         26.1130  -23.3780  -14.1620 C.2     1  UNL1        0.0010
     26  C         26.9520  -22.2610  -14.1020 C.2     1  UNL1        0.0030
     27  C         26.8510  -21.3650  -13.0370 C.2     1  UNL1        0.0430
     28  C         25.9170  -21.5910  -12.0300 C.2     1  UNL1        0.1320
     29  F         25.8330  -20.7190  -11.0160 F       1  UNL1       -0.2050
@<TRIPOS>BOND
     1    25    26    2
     2    25    24    1
     3    26    27    1
     4    24    23    2
     5    27    28    2
     6     8     9    1
     7     8     7    1
     8     9    10    1
     9    23    28    1
    10    23    11    1
    11    28    29    1
    12     7     5    1
    13    10    11   am
    14    10     4    1
    15    11    12    2
    16     5     4    2
    17     5     6    1
    18     4     3    1
    19     6     1    2
    20     3     2    2
    21     1     2    1
    22     1    13    1
    23    16    15    1
    24    13    14    2
    25    13    15   am
    26    15    17    1
    27    18    17    2
    28    18    19    1
    29    17    22    1
    30    19    20    2
    31    22    21    2
    32    20    21    1
