@<TRIPOS>MOLECULE
77703_out_ligand_01.pdbqt
 30 33 0 0 0
SMALL
GASTEIGER

@<TRIPOS>ATOM
      1  C         22.3030  -22.2060  -11.6860 C.2     1  UNL1        0.0330
      2  C         22.3010  -22.9980  -10.5400 C.2     1  UNL1        0.0190
      3  C         21.1390  -23.1050   -9.7640 C.2     1  UNL1        0.0310
      4  C         19.9550  -22.4320  -10.1050 C.2     1  UNL1        0.0430
      5  C         19.9500  -21.6900  -11.3060 C.2     1  UNL1       -0.0300
      6  C         21.1230  -21.5690  -12.0760 C.2     1  UNL1        0.0260
      7  C         18.7140  -20.9810  -11.7870 C.3     1  UNL1        0.0420
      8  C         17.4870  -21.7250  -11.3080 C.3     1  UNL1        0.0250
      9  C         17.5460  -21.8640   -9.7990 C.3     1  UNL1        0.1330
     10  N         18.7620  -22.5220   -9.2940 N.am    1  UNL1       -0.3130
     11  C         18.8180  -22.9320   -7.9440 C.2     1  UNL1        0.2580
     12  O         19.8280  -23.1300   -7.2710 O.2     1  UNL1       -0.2670
     13  C         23.5170  -22.0500  -12.5360 C.2     1  UNL1        0.2560
     14  N         23.3050  -21.3920  -13.7340 N.am    1  UNL1       -0.3230
     15  H         22.3470  -21.1730  -13.9730 H       1  UNL1        0.1690
     16  O         24.5700  -22.5320  -12.1350 O.2     1  UNL1       -0.2670
     17  C         24.2640  -21.0660  -14.7150 C.2     1  UNL1        0.0350
     18  C         25.1380  -19.9870  -14.6220 C.2     1  UNL1        0.0300
     19  C         26.0560  -19.7290  -15.6450 C.2     1  UNL1        0.0090
     20  C         26.1180  -20.5440  -16.7840 C.2     1  UNL1       -0.0560
     21  C         27.1210  -20.2310  -17.8610 C.3     1  UNL1        0.0490
     22  C         25.2400  -21.6370  -16.8900 C.2     1  UNL1       -0.0540
     23  C         24.3200  -21.8830  -15.8530 C.2     1  UNL1        0.0370
     24  C         25.2600  -22.5460  -18.0890 C.3     1  UNL1        0.0490
     25  C         17.5410  -23.1290   -7.2250 C.2     1  UNL1        0.0320
     26  C         16.7000  -24.1910   -7.5750 C.2     1  UNL1        0.0170
     27  C         15.5070  -24.3800   -6.8780 C.2     1  UNL1        0.0010
     28  C         15.1670  -23.5190   -5.8320 C.2     1  UNL1        0.0000
     29  C         16.0220  -22.4740   -5.4710 C.2     1  UNL1        0.0010
     30  C         17.2160  -22.2800   -6.1630 C.2     1  UNL1        0.0170
@<TRIPOS>BOND
     1    24    22    1
     2    21    20    1
     3    22    20    2
     4    22    23    1
     5    20    19    1
     6    23    17    2
     7    19    18    2
     8    17    18    1
     9    17    14    1
    10    15    14    1
    11    14    13   am
    12    13    16    2
    13    13     1    1
    14     6     1    2
    15     6     5    1
    16     7     8    1
    17     7     5    1
    18     1     2    1
    19     8     9    1
    20     5     4    2
    21     2     3    2
    22     4     3    1
    23     4    10    1
    24     9    10    1
    25    10    11   am
    26    11    12    2
    27    11    25    1
    28    26    25    2
    29    26    27    1
    30    25    30    1
    31    27    28    2
    32    30    29    2
    33    28    29    1
