@<TRIPOS>MOLECULE
77709_out_ligand_01.pdbqt
 35 39 0 0 0
SMALL
GASTEIGER

@<TRIPOS>ATOM
      1  N         23.3880  -22.6190   -9.2810 N.pl3   1  UNL1       -0.3400
      2  H         24.0890  -23.1770   -8.7900 H       1  UNL1        0.1670
      3  C         23.6480  -22.3770  -10.6010 C.ar    1  UNL1        0.1440
      4  N         24.8800  -22.5910  -11.1930 N.ar    1  UNL1       -0.2880
      5  C         26.0830  -23.1110  -10.7410 C.2     1  UNL1        0.1190
      6  C         24.7700  -22.1780  -12.4980 C.ar    1  UNL1        0.1530
      7  C         27.1210  -23.1620  -11.5950 C.2     1  UNL1        0.1340
      8  N         27.0690  -22.7290  -12.9090 N.2     1  UNL1       -0.2680
      9  C         25.9280  -22.2590  -13.3430 C.2     1  UNL1        0.1670
     10  N         23.5630  -21.7690  -12.8090 N.ar    1  UNL1       -0.2250
     11  C         22.8390  -21.9510  -11.6490 C.ar    1  UNL1        0.1140
     12  C         21.4220  -21.6560  -11.5660 C.2     1  UNL1       -0.0040
     13  C         20.4990  -22.7040  -11.5080 C.2     1  UNL1        0.0140
     14  C         19.1290  -22.4370  -11.4260 C.2     1  UNL1        0.0070
     15  C         18.6660  -21.1180  -11.3740 C.2     1  UNL1       -0.0620
     16  C         17.1950  -20.8270  -11.3090 C.3     1  UNL1        0.0480
     17  C         19.5910  -20.0690  -11.4260 C.2     1  UNL1        0.0070
     18  C         20.9600  -20.3350  -11.5130 C.2     1  UNL1        0.0140
     19  C         22.1180  -22.9950   -8.7650 C.2     1  UNL1        0.0330
     20  C         21.3020  -22.1340   -8.0170 C.2     1  UNL1        0.0300
     21  C         20.0660  -22.5640   -7.5210 C.2     1  UNL1        0.0190
     22  C         19.6270  -23.8690   -7.7710 C.2     1  UNL1        0.0320
     23  C         20.4180  -24.7260   -8.5410 C.2     1  UNL1        0.0190
     24  C         21.6550  -24.2920   -9.0290 C.2     1  UNL1        0.0300
     25  C         18.3230  -24.3730   -7.2600 C.2     1  UNL1        0.2510
     26  O         18.2850  -25.0460   -6.2370 O.2     1  UNL1       -0.2680
     27  N         17.2090  -24.0020   -7.9770 N.am    1  UNL1       -0.3530
     28  H         17.2880  -23.3660   -8.7570 H       1  UNL1        0.1630
     29  C         15.8780  -24.4050   -7.5810 C.3     1  UNL1        0.1610
     30  C         15.4040  -23.5720   -6.4190 C.2     1  UNL1       -0.0410
     31  C         15.6540  -23.9680   -5.0980 C.2     1  UNL1        0.0090
     32  C         15.1900  -23.1950   -4.0320 C.2     1  UNL1        0.0010
     33  C         14.4690  -22.0280   -4.2750 C.2     1  UNL1        0.0000
     34  C         14.2040  -21.6320   -5.5830 C.2     1  UNL1        0.0010
     35  C         14.6680  -22.4010   -6.6510 C.2     1  UNL1        0.0090
@<TRIPOS>BOND
     1     9     8    2
     2     9     6    1
     3     8     7    1
     4    10     6   ar
     5    10    11   ar
     6     6     4   ar
     7    11    12    1
     8    11     3   ar
     9     7     5    2
    10    12    18    2
    11    12    13    1
    12    18    17    1
    13    13    14    2
    14    17    15    2
    15    14    15    1
    16    15    16    1
    17     4     5    1
    18     4     3   ar
    19     3     1    1
    20     1     2    1
    21     1    19    1
    22    24    19    2
    23    24    23    1
    24    19    20    1
    25    28    27    1
    26    23    22    2
    27    20    21    2
    28    27    29    1
    29    27    25   am
    30    22    21    1
    31    22    25    1
    32    29    30    1
    33    25    26    2
    34    35    30    2
    35    35    34    1
    36    30    31    1
    37    34    33    2
    38    31    32    2
    39    33    32    1
