@<TRIPOS>MOLECULE
77719_out_ligand_01.pdbqt
 31 34 0 0 0
SMALL
GASTEIGER

@<TRIPOS>ATOM
      1  C         23.2500  -22.1430  -12.4770 C.2     1  UNL1        0.0330
      2  C         23.4230  -22.9060  -11.3240 C.2     1  UNL1        0.0190
      3  C         22.3540  -23.0840  -10.4360 C.2     1  UNL1        0.0310
      4  C         21.0930  -22.5150  -10.6710 C.2     1  UNL1        0.0430
      5  C         20.9350  -21.7260  -11.8320 C.2     1  UNL1       -0.0300
      6  C         22.0150  -21.5370  -12.7160 C.2     1  UNL1        0.0260
      7  C         19.6390  -21.0300  -12.1530 C.3     1  UNL1        0.0420
      8  C         18.4750  -21.7000  -11.4520 C.3     1  UNL1        0.0250
      9  C         18.8030  -21.8490   -9.9770 C.3     1  UNL1        0.1330
     10  N         19.9980  -22.6760   -9.7450 N.am    1  UNL1       -0.3130
     11  C         20.0320  -23.6100   -8.6940 C.2     1  UNL1        0.2580
     12  O         20.7580  -24.6000   -8.6260 O.2     1  UNL1       -0.2670
     13  C         24.3580  -21.9210  -13.4500 C.2     1  UNL1        0.2560
     14  N         23.9450  -21.5480  -14.7160 N.am    1  UNL1       -0.3220
     15  H         22.9600  -21.3550  -14.8250 H       1  UNL1        0.1690
     16  O         25.5080  -22.0480  -13.0500 O.2     1  UNL1       -0.2670
     17  C         24.7460  -21.3120  -15.8600 C.2     1  UNL1        0.0410
     18  C         24.8470  -22.3250  -16.8400 C.2     1  UNL1       -0.0350
     19  C         25.6370  -22.1040  -17.9800 C.2     1  UNL1        0.0090
     20  C         24.1310  -23.6430  -16.7180 C.3     1  UNL1        0.0500
     21  C         26.3280  -20.9050  -18.1530 C.2     1  UNL1        0.0070
     22  C         26.2510  -19.9080  -17.1820 C.2     1  UNL1       -0.0600
     23  C         26.9650  -18.6010  -17.3710 C.3     1  UNL1        0.0480
     24  C         25.4510  -20.1160  -16.0480 C.2     1  UNL1        0.0370
     25  C         19.1050  -23.4170   -7.5520 C.2     1  UNL1        0.0320
     26  C         18.1490  -24.4040   -7.2780 C.2     1  UNL1        0.0200
     27  C         17.2870  -24.2480   -6.1930 C.2     1  UNL1        0.0430
     28  C         17.3960  -23.1200   -5.3860 C.2     1  UNL1        0.1160
     29  F         16.5660  -22.9730   -4.3440 F       1  UNL1       -0.2060
     30  C         18.3580  -22.1460   -5.6350 C.2     1  UNL1        0.0430
     31  C         19.2250  -22.2950   -6.7190 C.2     1  UNL1        0.0200
@<TRIPOS>BOND
     1    21    19    2
     2    21    22    1
     3    19    18    1
     4    23    22    1
     5    22    24    2
     6    18    20    1
     7    18    17    2
     8    24    17    1
     9    17    14    1
    10    15    14    1
    11    14    13   am
    12    13    16    2
    13    13     1    1
    14     6     1    2
    15     6     5    1
    16     1     2    1
    17     7     5    1
    18     7     8    1
    19     5     4    2
    20     8     9    1
    21     2     3    2
    22     4     3    1
    23     4    10    1
    24     9    10    1
    25    10    11   am
    26    11    12    2
    27    11    25    1
    28    25    26    2
    29    25    31    1
    30    26    27    1
    31    31    30    2
    32    27    28    2
    33    30    28    1
    34    28    29    1
