@<TRIPOS>MOLECULE
7772_out_ligand_01.pdbqt
 28 30 0 0 0
SMALL
GASTEIGER

@<TRIPOS>ATOM
      1  C         17.9420  -22.6970   -9.6060 C.2     1  UNL1        0.2510
      2  O         17.8770  -22.2670  -10.7540 O.2     1  UNL1       -0.2700
      3  N         19.0950  -22.9330   -8.8750 N.am    1  UNL1       -0.3250
      4  H         18.9440  -23.3870   -7.9790 H       1  UNL1        0.1690
      5  C         16.6630  -22.9900   -8.8000 C.3     1  UNL1        0.2170
      6  C         15.4640  -22.8060   -9.7250 C.3     1  UNL1        0.0500
      7  O         16.4760  -22.0910   -7.7050 O.2     1  UNL1       -0.3360
      8  C         16.1560  -22.6040   -6.4760 C.2     1  UNL1        0.0760
      9  C         14.9730  -23.2850   -6.1730 C.2     1  UNL1        0.0370
     10  C         14.7600  -23.8060   -4.8940 C.2     1  UNL1        0.0030
     11  C         15.7260  -23.6560   -3.9030 C.2     1  UNL1        0.0080
     12  C         16.9070  -22.9690   -4.1850 C.2     1  UNL1       -0.0490
     13  C         17.1260  -22.4390   -5.4740 C.2     1  UNL1       -0.0180
     14  C         17.9960  -22.8250   -3.1540 C.3     1  UNL1        0.0390
     15  C         18.4500  -21.7520   -5.7160 C.3     1  UNL1        0.0420
     16  C         18.8090  -20.8200   -4.5580 C.3     1  UNL1        0.0050
     17  C         18.5820  -21.4130   -3.1610 C.3     1  UNL1        0.0050
     18  C         20.4290  -22.7320   -9.2710 C.2     1  UNL1        0.0340
     19  C         20.8640  -22.7810  -10.5970 C.2     1  UNL1        0.0300
     20  C         22.2110  -22.5640  -10.9090 C.2     1  UNL1        0.0190
     21  C         23.1410  -22.3050   -9.8990 C.2     1  UNL1        0.0320
     22  C         22.7090  -22.2390   -8.5710 C.2     1  UNL1        0.0190
     23  C         21.3600  -22.4530   -8.2630 C.2     1  UNL1        0.0300
     24  C         24.5610  -22.0840  -10.2800 C.2     1  UNL1        0.2490
     25  N         25.3720  -23.1830  -10.3540 N.am    1  UNL1       -0.3660
     26  H         24.9950  -24.1160  -10.4410 H       1  UNL1        0.1590
     27  H         26.2900  -23.0190  -10.7490 H       1  UNL1        0.1590
     28  O         24.9890  -20.9700  -10.5530 O.2     1  UNL1       -0.2680
@<TRIPOS>BOND
     1    20    19    1
     2    20    21    2
     3     2     1    2
     4    27    25    1
     5    19    18    2
     6    28    24    2
     7    26    25    1
     8    25    24   am
     9    24    21    1
    10    21    22    1
    11     6     5    1
    12     1     3   am
    13     1     5    1
    14    18     3    1
    15    18    23    1
    16     3     4    1
    17     5     7    1
    18    22    23    2
    19     7     8    1
    20     8     9    2
    21     8    13    1
    22     9    10    1
    23    15    13    1
    24    15    16    1
    25    13    12    2
    26    10    11    2
    27    16    17    1
    28    12    11    1
    29    12    14    1
    30    17    14    1
