@<TRIPOS>MOLECULE
77723_out_ligand_01.pdbqt
 31 34 0 0 0
SMALL
GASTEIGER

@<TRIPOS>ATOM
      1  C         22.7040  -22.1860   -9.6930 C.2     1  UNL1        0.0320
      2  C         22.6000  -21.9120   -8.3300 C.2     1  UNL1        0.0190
      3  C         21.3530  -21.9770   -7.6940 C.2     1  UNL1        0.0310
      4  C         20.1780  -22.2960   -8.3970 C.2     1  UNL1        0.0430
      5  C         20.2910  -22.5480   -9.7820 C.2     1  UNL1       -0.0300
      6  C         21.5480  -22.4940  -10.4160 C.2     1  UNL1        0.0260
      7  C         19.0990  -22.9170  -10.6300 C.3     1  UNL1        0.0420
      8  C         17.8090  -22.4590   -9.9800 C.3     1  UNL1        0.0250
      9  C         17.7840  -22.9400   -8.5390 C.3     1  UNL1        0.1330
     10  N         18.8960  -22.4010   -7.7400 N.am    1  UNL1       -0.3130
     11  C         18.6880  -21.9930   -6.4100 C.2     1  UNL1        0.2580
     12  O         19.3980  -21.2300   -5.7620 O.2     1  UNL1       -0.2670
     13  C         24.0040  -22.1490  -10.4160 C.2     1  UNL1        0.2510
     14  N         24.3170  -23.2610  -11.1680 N.am    1  UNL1       -0.3530
     15  H         23.6540  -24.0200  -11.2710 H       1  UNL1        0.1630
     16  O         24.7160  -21.1530  -10.3580 O.2     1  UNL1       -0.2680
     17  C         25.5470  -23.3340  -11.9200 C.3     1  UNL1        0.1610
     18  C         25.2600  -23.3150  -13.3980 C.2     1  UNL1       -0.0410
     19  C         25.4820  -24.4560  -14.1810 C.2     1  UNL1        0.0090
     20  C         25.1590  -24.4570  -15.5440 C.2     1  UNL1        0.0070
     21  C         24.6120  -23.3140  -16.1450 C.2     1  UNL1       -0.0620
     22  C         24.2560  -23.3300  -17.6060 C.3     1  UNL1        0.0480
     23  C         24.3790  -22.1750  -15.3600 C.2     1  UNL1        0.0070
     24  C         24.6990  -22.1760  -13.9980 C.2     1  UNL1        0.0090
     25  C         17.4940  -22.5110   -5.6990 C.2     1  UNL1        0.0330
     26  C         17.6250  -23.5130   -4.7290 C.2     1  UNL1        0.0170
     27  C         16.4910  -23.9710   -4.0580 C.2     1  UNL1        0.0020
     28  C         15.2350  -23.4240   -4.3500 C.2     1  UNL1        0.0070
     29  C         15.0990  -22.4120   -5.3120 C.2     1  UNL1       -0.0610
     30  C         13.7600  -21.7950   -5.5960 C.3     1  UNL1        0.0480
     31  C         16.2420  -21.9440   -5.9720 C.2     1  UNL1        0.0230
@<TRIPOS>BOND
     1    22    21    1
     2    21    20    2
     3    21    23    1
     4    20    19    1
     5    23    24    2
     6    19    18    2
     7    24    18    1
     8    18    17    1
     9    17    14    1
    10    15    14    1
    11    14    13   am
    12     7     8    1
    13     7     5    1
    14     6     5    1
    15     6     1    2
    16    13    16    2
    17    13     1    1
    18     8     9    1
    19     5     4    2
    20     1     2    1
    21     9    10    1
    22     4    10    1
    23     4     3    1
    24     2     3    2
    25    10    11   am
    26    11    12    2
    27    11    25    1
    28    31    25    2
    29    31    29    1
    30    25    26    1
    31    30    29    1
    32    29    28    2
    33    26    27    2
    34    28    27    1
