@<TRIPOS>MOLECULE
77739_out_ligand_01.pdbqt
 30 33 0 0 0
SMALL
GASTEIGER

@<TRIPOS>ATOM
      1  C         19.1250  -23.7600   -8.3630 C.2     1  UNL1        0.2580
      2  O         19.8330  -24.7590   -8.2480 O.2     1  UNL1       -0.2670
      3  N         19.1960  -22.8100   -9.3990 N.am    1  UNL1       -0.3130
      4  C         18.0370  -21.9640   -9.7190 C.3     1  UNL1        0.1330
      5  C         17.8410  -21.7840  -11.2140 C.3     1  UNL1        0.0250
      6  C         19.0700  -21.1190  -11.7980 C.3     1  UNL1        0.0420
      7  C         20.3230  -21.8420  -11.3790 C.2     1  UNL1       -0.0300
      8  C         21.4780  -21.6570  -12.1650 C.2     1  UNL1        0.0260
      9  C         22.6800  -22.2860  -11.8310 C.2     1  UNL1        0.0330
     10  C         22.7420  -23.0650  -10.6760 C.2     1  UNL1        0.0190
     11  C         21.5980  -23.2400   -9.8860 C.2     1  UNL1        0.0310
     12  C         20.3690  -22.6500  -10.2220 C.2     1  UNL1        0.0430
     13  C         23.8680  -22.0670  -12.7040 C.2     1  UNL1        0.2560
     14  O         24.8990  -22.6760  -12.4420 O.2     1  UNL1       -0.2670
     15  N         23.6820  -21.1490  -13.7220 N.am    1  UNL1       -0.3230
     16  H         22.8000  -20.6510  -13.7330 H       1  UNL1        0.1690
     17  C         24.6130  -20.7630  -14.7100 C.2     1  UNL1        0.0360
     18  C         24.8550  -21.4870  -15.8810 C.2     1  UNL1        0.0290
     19  C         25.7920  -21.0380  -16.8160 C.2     1  UNL1        0.0040
     20  C         26.4980  -19.8570  -16.5890 C.2     1  UNL1        0.0240
     21  C         26.2580  -19.1310  -15.4280 C.2     1  UNL1        0.0360
     22 CL         27.1210  -17.6690  -15.1420 Cl      1  UNL1       -0.0840
     23  C         25.3220  -19.5750  -14.4910 C.2     1  UNL1        0.0530
     24  C         18.1010  -23.5710   -7.3060 C.2     1  UNL1        0.0320
     25  C         16.8650  -24.2190   -7.3900 C.2     1  UNL1        0.0170
     26  C         15.9080  -24.0160   -6.3950 C.2     1  UNL1        0.0070
     27  C         16.1750  -23.1620   -5.3170 C.2     1  UNL1       -0.0620
     28  C         15.1300  -22.9150   -4.2670 C.3     1  UNL1        0.0480
     29  C         17.4030  -22.4880   -5.2620 C.2     1  UNL1        0.0070
     30  C         18.3640  -22.6880   -6.2550 C.2     1  UNL1        0.0170
@<TRIPOS>BOND
     1    19    20    2
     2    19    18    1
     3    20    21    1
     4    18    17    2
     5    21    22    1
     6    21    23    2
     7    17    23    1
     8    17    15    1
     9    16    15    1
    10    15    13   am
    11    13    14    2
    12    13     9    1
    13     8     9    1
    14     8     7    2
    15     9    10    2
    16     6     7    1
    17     6     5    1
    18     7    12    1
    19     5     4    1
    20    10    11    1
    21    12    11    2
    22    12     3    1
    23     4     3    1
    24     3     1   am
    25     1     2    2
    26     1    24    1
    27    25    24    2
    28    25    26    1
    29    24    30    1
    30    26    27    2
    31    30    29    2
    32    27    29    1
    33    27    28    1
