@<TRIPOS>MOLECULE
77732_out_ligand_01.pdbqt
 30 33 0 0 0
SMALL
GASTEIGER

@<TRIPOS>ATOM
      1  C         24.0630  -22.9110  -10.9400 C.2     1  UNL1        0.2580
      2  O         24.5020  -23.3830   -9.8940 O.2     1  UNL1       -0.2670
      3  N         22.7250  -22.5500  -11.2140 N.am    1  UNL1       -0.3130
      4  C         22.4460  -21.5740  -12.2810 C.3     1  UNL1        0.1330
      5  C         20.9830  -21.4730  -12.6740 C.3     1  UNL1        0.0250
      6  C         20.1620  -21.1490  -11.4460 C.3     1  UNL1        0.0420
      7  C         20.4170  -22.1820  -10.3830 C.2     1  UNL1       -0.0300
      8  C         19.3910  -22.4450   -9.4550 C.2     1  UNL1        0.0260
      9  C         19.5650  -23.3930   -8.4460 C.2     1  UNL1        0.0330
     10  C         20.7590  -24.1100   -8.3850 C.2     1  UNL1        0.0190
     11  C         21.7870  -23.8370   -9.2980 C.2     1  UNL1        0.0310
     12  C         21.6570  -22.8500  -10.2890 C.2     1  UNL1        0.0430
     13  C         18.4470  -23.6380   -7.4900 C.2     1  UNL1        0.2560
     14  O         18.1290  -24.7980   -7.2570 O.2     1  UNL1       -0.2670
     15  N         17.8510  -22.4950   -6.9900 N.am    1  UNL1       -0.3230
     16  H         18.1470  -21.6120   -7.3870 H       1  UNL1        0.1690
     17  C         16.8030  -22.4190   -6.0470 C.2     1  UNL1        0.0370
     18  C         16.9780  -22.5810   -4.6690 C.2     1  UNL1        0.0290
     19  C         15.8900  -22.4860   -3.7940 C.2     1  UNL1        0.0050
     20  C         14.6160  -22.2250   -4.2900 C.2     1  UNL1        0.0420
     21  C         14.4440  -22.0610   -5.6580 C.2     1  UNL1        0.1180
     22  F         13.2210  -21.8060   -6.1430 F       1  UNL1       -0.2060
     23  C         15.5200  -22.1520   -6.5360 C.2     1  UNL1        0.0710
     24  C         25.0720  -22.6870  -11.9960 C.2     1  UNL1        0.0330
     25  C         25.9110  -21.5740  -11.9120 C.2     1  UNL1        0.0170
     26  C         26.8700  -21.3640  -12.9020 C.2     1  UNL1        0.0020
     27  C         26.9970  -22.2720  -13.9560 C.2     1  UNL1        0.0070
     28  C         26.1830  -23.4120  -14.0230 C.2     1  UNL1       -0.0610
     29  C         26.3170  -24.3760  -15.1650 C.3     1  UNL1        0.0480
     30  C         25.2110  -23.6140  -13.0370 C.2     1  UNL1        0.0230
@<TRIPOS>BOND
     1    29    28    1
     2    28    27    2
     3    28    30    1
     4    27    26    1
     5    30    24    2
     6    26    25    2
     7     5     4    1
     8     5     6    1
     9     4     3    1
    10    24    25    1
    11    24     1    1
    12     6     7    1
    13     3     1   am
    14     3    12    1
    15     1     2    2
    16     7    12    2
    17     7     8    1
    18    12    11    1
    19     8     9    2
    20    11    10    2
    21     9    10    1
    22     9    13    1
    23    13    14    2
    24    13    15   am
    25    16    15    1
    26    15    17    1
    27    23    17    2
    28    23    21    1
    29    22    21    1
    30    17    18    1
    31    21    20    2
    32    18    19    2
    33    20    19    1
