@<TRIPOS>MOLECULE
77749_out_ligand_01.pdbqt
 29 32 0 0 0
SMALL
GASTEIGER

@<TRIPOS>ATOM
      1  C         21.6030  -21.6540  -12.2180 C.2     1  UNL1        0.0330
      2  C         20.2640  -21.2690  -12.1920 C.2     1  UNL1        0.0190
      3  C         19.4100  -21.7600  -11.1940 C.2     1  UNL1        0.0310
      4  C         19.8540  -22.6640  -10.2150 C.2     1  UNL1        0.0430
      5  C         21.2060  -23.0680  -10.2670 C.2     1  UNL1       -0.0300
      6  C         22.0660  -22.5580  -11.2600 C.2     1  UNL1        0.0260
      7  C         21.7940  -24.0240   -9.2630 C.3     1  UNL1        0.0420
      8  C         20.7110  -24.8650   -8.6230 C.3     1  UNL1        0.0250
      9  C         19.6170  -23.9510   -8.1030 C.3     1  UNL1        0.1330
     10  N         18.9900  -23.1500   -9.1650 N.am    1  UNL1       -0.3130
     11  C         17.6030  -22.9040   -9.1470 C.2     1  UNL1        0.2580
     12  O         16.9080  -22.5740  -10.1060 O.2     1  UNL1       -0.2670
     13  C         22.5570  -21.1520  -13.2500 C.2     1  UNL1        0.2560
     14  O         22.1640  -20.3000  -14.0360 O.2     1  UNL1       -0.2670
     15  N         23.8050  -21.7500  -13.2340 N.am    1  UNL1       -0.3230
     16  H         23.9320  -22.5320  -12.6070 H       1  UNL1        0.1690
     17  C         24.9050  -21.4490  -14.0650 C.2     1  UNL1        0.0370
     18  C         25.6540  -20.3060  -13.7420 C.2     1  UNL1        0.0290
     19  C         26.7590  -19.9290  -14.5140 C.2     1  UNL1        0.0050
     20  C         27.1210  -20.6930  -15.6180 C.2     1  UNL1        0.0420
     21  C         26.3770  -21.8210  -15.9400 C.2     1  UNL1        0.1180
     22  F         26.7260  -22.5510  -17.0070 F       1  UNL1       -0.2060
     23  C         25.2750  -22.2040  -15.1770 C.2     1  UNL1        0.0710
     24  C         16.8780  -23.0630   -7.8630 C.2     1  UNL1        0.0320
     25  C         17.0820  -22.1230   -6.8480 C.2     1  UNL1        0.0170
     26  C         16.4220  -22.2700   -5.6280 C.2     1  UNL1        0.0010
     27  C         15.5740  -23.3590   -5.4200 C.2     1  UNL1        0.0000
     28  C         15.3910  -24.3110   -6.4240 C.2     1  UNL1        0.0010
     29  C         16.0490  -24.1700   -7.6460 C.2     1  UNL1        0.0170
@<TRIPOS>BOND
     1    22    21    1
     2    21    20    2
     3    21    23    1
     4    20    19    1
     5    23    17    2
     6    19    18    2
     7    17    18    1
     8    17    15    1
     9    14    13    2
    10    13    15   am
    11    13     1    1
    12    15    16    1
    13     1     2    2
    14     1     6    1
    15     2     3    1
    16     6     5    2
    17     3     4    2
    18     5     4    1
    19     5     7    1
    20     4    10    1
    21    12    11    2
    22     7     8    1
    23    10    11   am
    24    10     9    1
    25    11    24    1
    26     8     9    1
    27    24    29    2
    28    24    25    1
    29    29    28    1
    30    25    26    2
    31    28    27    2
    32    26    27    1
