@<TRIPOS>MOLECULE
77751_out_ligand_01.pdbqt
 30 33 0 0 0
SMALL
GASTEIGER

@<TRIPOS>ATOM
      1  C         17.7820  -22.8680   -9.2710 C.2     1  UNL1        0.2580
      2  O         17.0790  -22.6020  -10.2440 O.2     1  UNL1       -0.2670
      3  N         19.1730  -23.0830   -9.2890 N.am    1  UNL1       -0.3130
      4  C         19.8230  -23.8550   -8.2190 C.3     1  UNL1        0.1330
      5  C         20.9070  -24.7790   -8.7430 C.3     1  UNL1        0.0250
      6  C         21.9740  -23.9540   -9.4290 C.3     1  UNL1        0.0420
      7  C         21.3660  -23.0150  -10.4350 C.2     1  UNL1       -0.0300
      8  C         22.2020  -22.5170  -11.4540 C.2     1  UNL1        0.0260
      9  C         21.7120  -21.6340  -12.4190 C.2     1  UNL1        0.0330
     10  C         20.3860  -21.2110  -12.3380 C.2     1  UNL1        0.0190
     11  C         19.5550  -21.6910  -11.3170 C.2     1  UNL1        0.0310
     12  C         20.0160  -22.6050  -10.3560 C.2     1  UNL1        0.0430
     13  C         22.6390  -21.1460  -13.4790 C.2     1  UNL1        0.2560
     14  O         22.2590  -20.2410  -14.2130 O.2     1  UNL1       -0.2670
     15  N         23.8760  -21.7590  -13.5010 N.am    1  UNL1       -0.3200
     16  H         24.1000  -22.4080  -12.7540 H       1  UNL1        0.1690
     17  C         24.9360  -21.5250  -14.4050 C.2     1  UNL1        0.0730
     18  C         25.1190  -22.2150  -15.6030 C.2     1  UNL1        0.0330
     19  C         26.2070  -21.9130  -16.4320 C.2     1  UNL1        0.0020
     20  C         27.1210  -20.9230  -16.0700 C.2     1  UNL1        0.0030
     21  C         26.9500  -20.2300  -14.8740 C.2     1  UNL1        0.0440
     22  C         25.8650  -20.5360  -14.0570 C.2     1  UNL1        0.1430
     23  F         25.7120  -19.8630  -12.9050 F       1  UNL1       -0.2040
     24  C         17.0700  -22.9840   -7.9750 C.2     1  UNL1        0.0320
     25  C         17.3700  -22.0810   -6.9520 C.2     1  UNL1        0.0170
     26  C         16.7210  -22.1890   -5.7200 C.2     1  UNL1        0.0070
     27  C         15.7740  -23.1990   -5.5030 C.2     1  UNL1       -0.0620
     28  C         15.1070  -23.3350   -4.1650 C.3     1  UNL1        0.0480
     29  C         15.5100  -24.1230   -6.5220 C.2     1  UNL1        0.0070
     30  C         16.1560  -24.0200   -7.7550 C.2     1  UNL1        0.0170
@<TRIPOS>BOND
     1    19    20    2
     2    19    18    1
     3    20    21    1
     4    18    17    2
     5    21    22    2
     6    17    22    1
     7    17    15    1
     8    14    13    2
     9    22    23    1
    10    15    13   am
    11    15    16    1
    12    13     9    1
    13     9    10    2
    14     9     8    1
    15    10    11    1
    16     8     7    2
    17    11    12    2
    18     7    12    1
    19     7     6    1
    20    12     3    1
    21     2     1    2
    22     6     5    1
    23     3     1   am
    24     3     4    1
    25     1    24    1
    26     5     4    1
    27    24    30    2
    28    24    25    1
    29    30    29    1
    30    25    26    2
    31    29    27    2
    32    26    27    1
    33    27    28    1
