@<TRIPOS>MOLECULE
77757_out_ligand_01.pdbqt
 31 34 0 0 0
SMALL
GASTEIGER

@<TRIPOS>ATOM
      1  C         20.3620  -20.6990  -12.4590 C.3     1  UNL1        0.0500
      2  C         19.9480  -21.5420  -11.2810 C.2     1  UNL1       -0.0350
      3  C         18.6150  -21.4620  -10.8420 C.2     1  UNL1        0.0100
      4  C         18.1730  -22.2170   -9.7570 C.2     1  UNL1        0.0170
      5  C         19.0660  -23.0620   -9.0960 C.2     1  UNL1        0.0340
      6  C         20.3930  -23.1650   -9.5340 C.2     1  UNL1        0.0470
      7  C         20.8510  -22.4060  -10.6170 C.2     1  UNL1        0.0420
      8  N         22.1810  -22.4710  -11.0820 N.am    1  UNL1       -0.3210
      9  C         23.3220  -21.8880  -10.5550 C.2     1  UNL1        0.2760
     10  O         23.3720  -21.1670   -9.5660 O.2     1  UNL1       -0.2660
     11  H         22.3660  -23.0060  -11.9240 H       1  UNL1        0.1690
     12  C         24.5330  -22.2220  -11.3440 C.ar    1  UNL1        0.1440
     13  N         25.5680  -22.8070  -10.7200 N.ar    1  UNL1       -0.2050
     14  S         26.7800  -23.0740  -11.8050 S.2     1  UNL1        0.0120
     15  C         25.9750  -22.4170  -13.1700 C.ar    1  UNL1        0.0360
     16  C         26.4270  -22.3050  -14.4960 C.2     1  UNL1        0.0210
     17  C         24.7140  -21.9730  -12.7650 C.ar    1  UNL1        0.0170
     18  C         25.5780  -21.7260  -15.4400 C.2     1  UNL1        0.0010
     19  C         24.3180  -21.2720  -15.0750 C.2     1  UNL1        0.0010
     20  C         23.8790  -21.3890  -13.7510 C.2     1  UNL1        0.0150
     21  C         18.6290  -23.8930   -7.9450 C.2     1  UNL1        0.2520
     22  O         19.2590  -24.8950   -7.6310 O.2     1  UNL1       -0.2680
     23  N         17.5070  -23.4470   -7.2730 N.am    1  UNL1       -0.3520
     24  H         17.0660  -22.5860   -7.5630 H       1  UNL1        0.1630
     25  C         16.9150  -24.1970   -6.1700 C.3     1  UNL1        0.0840
     26  C         17.6150  -23.8550   -4.8490 C.3     1  UNL1        0.0250
     27  C         17.2850  -22.4910   -4.2390 C.3     1  UNL1        0.0020
     28  C         15.8830  -22.4390   -3.6390 C.3     1  UNL1        0.0000
     29  C         14.7740  -22.0650   -4.6150 C.3     1  UNL1        0.0000
     30  C         14.8810  -22.6110   -6.0350 C.3     1  UNL1        0.0020
     31  C         15.3840  -24.0500   -6.1430 C.3     1  UNL1        0.0250
@<TRIPOS>BOND
     1    18    19    2
     2    18    16    1
     3    19    20    1
     4    16    15    2
     5    20    17    2
     6    15    17   ar
     7    15    14   ar
     8    17    12   ar
     9     1     2    1
    10    11     8    1
    11    14    13   ar
    12    12    13   ar
    13    12     9    1
    14     2     3    2
    15     2     7    1
    16     8     7    1
    17     8     9   am
    18     3     4    1
    19     7     6    2
    20     9    10    2
    21     4     5    2
    22     6     5    1
    23     5    21    1
    24    21    22    2
    25    21    23   am
    26    24    23    1
    27    23    25    1
    28    25    31    1
    29    25    26    1
    30    31    30    1
    31    30    29    1
    32    26    27    1
    33    29    28    1
    34    27    28    1
