@<TRIPOS>MOLECULE
77756_out_ligand_01.pdbqt
 31 34 0 0 0
SMALL
GASTEIGER

@<TRIPOS>ATOM
      1  C         21.6320  -21.6250  -12.2860 C.2     1  UNL1        0.0330
      2  C         20.3110  -21.1870  -12.2090 C.2     1  UNL1        0.0190
      3  C         19.4720  -21.6560  -11.1890 C.2     1  UNL1        0.0310
      4  C         19.9120  -22.5910  -10.2370 C.2     1  UNL1        0.0430
      5  C         21.2440  -23.0500  -10.3410 C.2     1  UNL1       -0.0300
      6  C         22.0890  -22.5620  -11.3570 C.2     1  UNL1        0.0260
      7  C         21.8250  -24.0430   -9.3710 C.3     1  UNL1        0.0420
      8  C         20.7300  -24.8480   -8.7030 C.3     1  UNL1        0.0250
      9  C         19.6940  -23.8960   -8.1350 C.3     1  UNL1        0.1330
     10  N         19.0650  -23.0560   -9.1650 N.am    1  UNL1       -0.3130
     11  C         17.6900  -22.7530   -9.0950 C.2     1  UNL1        0.2580
     12  O         16.9770  -22.3810  -10.0250 O.2     1  UNL1       -0.2670
     13  C         22.5690  -21.1470  -13.3440 C.2     1  UNL1        0.2560
     14  N         23.7750  -21.8250  -13.4010 N.am    1  UNL1       -0.3220
     15  H         23.8560  -22.6350  -12.8050 H       1  UNL1        0.1690
     16  O         22.1900  -20.2460  -14.0820 O.2     1  UNL1       -0.2670
     17  C         24.8780  -21.5700  -14.2500 C.2     1  UNL1        0.0410
     18  C         24.8570  -21.8970  -15.6120 C.2     1  UNL1        0.0300
     19  C         25.9500  -21.6220  -16.4390 C.2     1  UNL1        0.0020
     20  C         27.0810  -21.0080  -15.9180 C.2     1  UNL1        0.0010
     21  C         27.1200  -20.6720  -14.5670 C.2     1  UNL1        0.0090
     22  C         26.0320  -20.9500  -13.7160 C.2     1  UNL1       -0.0320
     23  C         26.1640  -20.5390  -12.2640 C.3     1  UNL1        0.0360
     24  C         26.7950  -19.1620  -12.1120 C.3     1  UNL1        0.0100
     25  C         17.0060  -22.8990   -7.7880 C.2     1  UNL1        0.0320
     26  C         17.3700  -22.0600   -6.7320 C.2     1  UNL1        0.0170
     27  C         16.7460  -22.1970   -5.4910 C.2     1  UNL1        0.0070
     28  C         15.7600  -23.1730   -5.2960 C.2     1  UNL1       -0.0620
     29  C         15.1200  -23.3440   -3.9500 C.3     1  UNL1        0.0480
     30  C         15.4310  -24.0370   -6.3500 C.2     1  UNL1        0.0070
     31  C         16.0520  -23.9040   -7.5940 C.2     1  UNL1        0.0170
@<TRIPOS>BOND
     1    19    20    2
     2    19    18    1
     3    20    21    1
     4    18    17    2
     5    21    22    2
     6    17    22    1
     7    17    14    1
     8    16    13    2
     9    22    23    1
    10    14    13   am
    11    14    15    1
    12    13     1    1
    13     1     2    2
    14     1     6    1
    15    23    24    1
    16     2     3    1
    17     6     5    2
    18     3     4    2
    19     5     4    1
    20     5     7    1
    21     4    10    1
    22    12    11    2
    23     7     8    1
    24    10    11   am
    25    10     9    1
    26    11    25    1
    27     8     9    1
    28    25    31    2
    29    25    26    1
    30    31    30    1
    31    26    27    2
    32    30    28    2
    33    27    28    1
    34    28    29    1
