@<TRIPOS>MOLECULE
77774_out_ligand_01.pdbqt
 30 33 0 0 0
SMALL
GASTEIGER

@<TRIPOS>ATOM
      1  C         17.8020  -22.8060   -9.2240 C.2     1  UNL1        0.2580
      2  O         17.1020  -22.5270  -10.1950 O.2     1  UNL1       -0.2670
      3  N         19.1880  -23.0530   -9.2470 N.am    1  UNL1       -0.3130
      4  C         19.8240  -23.8440   -8.1830 C.3     1  UNL1        0.1330
      5  C         20.8760  -24.8000   -8.7160 C.3     1  UNL1        0.0250
      6  C         21.9630  -24.0050   -9.4110 C.3     1  UNL1        0.0420
      7  C         21.3720  -23.0460  -10.4100 C.2     1  UNL1       -0.0300
      8  C         22.2130  -22.5710  -11.4350 C.2     1  UNL1        0.0260
      9  C         21.7390  -21.6710  -12.3930 C.2     1  UNL1        0.0330
     10  C         20.4290  -21.2060  -12.2970 C.2     1  UNL1        0.0190
     11  C         19.5930  -21.6640  -11.2710 C.2     1  UNL1        0.0310
     12  C         20.0370  -22.5960  -10.3180 C.2     1  UNL1        0.0430
     13  C         22.6670  -21.2100  -13.4640 C.2     1  UNL1        0.2560
     14  O         22.3020  -20.2960  -14.1930 O.2     1  UNL1       -0.2670
     15  N         23.8890  -21.8580  -13.4940 N.am    1  UNL1       -0.3230
     16  H         24.0840  -22.5010  -12.7370 H       1  UNL1        0.1690
     17  C         24.9390  -21.6580  -14.4140 C.2     1  UNL1        0.0370
     18  C         26.0020  -20.8410  -14.0010 C.2     1  UNL1        0.0290
     19  C         27.0880  -20.5930  -14.8480 C.2     1  UNL1        0.0050
     20  C         27.1200  -21.1630  -16.1160 C.2     1  UNL1        0.0420
     21  C         26.0670  -21.9740  -16.5220 C.2     1  UNL1        0.1180
     22  F         26.1020  -22.5260  -17.7430 F       1  UNL1       -0.2060
     23  C         24.9820  -22.2290  -15.6860 C.2     1  UNL1        0.0710
     24  C         17.0940  -22.9020   -7.9240 C.2     1  UNL1        0.0320
     25  C         16.1270  -23.8900   -7.7090 C.2     1  UNL1        0.0170
     26  C         15.4860  -23.9740   -6.4720 C.2     1  UNL1        0.0070
     27  C         15.8230  -23.0920   -5.4360 C.2     1  UNL1       -0.0620
     28  C         15.1120  -23.1650   -4.1160 C.3     1  UNL1        0.0480
     29  C         16.8010  -22.1130   -5.6590 C.2     1  UNL1        0.0070
     30  C         17.4470  -22.0260   -6.8930 C.2     1  UNL1        0.0170
@<TRIPOS>BOND
     1    22    21    1
     2    21    20    2
     3    21    23    1
     4    20    19    1
     5    23    17    2
     6    19    18    2
     7    17    18    1
     8    17    15    1
     9    14    13    2
    10    15    13   am
    11    15    16    1
    12    13     9    1
    13     9    10    2
    14     9     8    1
    15    10    11    1
    16     8     7    2
    17    11    12    2
    18     7    12    1
    19     7     6    1
    20    12     3    1
    21     2     1    2
    22     6     5    1
    23     3     1   am
    24     3     4    1
    25     1    24    1
    26     5     4    1
    27    24    25    2
    28    24    30    1
    29    25    26    1
    30    30    29    2
    31    26    27    2
    32    29    27    1
    33    27    28    1
