@<TRIPOS>MOLECULE
77770_out_ligand_01.pdbqt
 39 43 0 0 0
SMALL
GASTEIGER

@<TRIPOS>ATOM
      1  C         19.2440  -22.0440  -10.5800 C.2     1  UNL1        0.0980
      2  C         19.0860  -21.1890  -11.6050 C.2     1  UNL1        0.1090
      3  N         20.0670  -20.8220  -12.4920 N.pl3   1  UNL1       -0.3640
      4  C         21.3370  -21.4100  -12.4400 C.2     1  UNL1        0.0460
      5  C         22.3270  -21.0700  -13.3650 C.2     1  UNL1        0.0320
      6  C         23.6030  -21.6360  -13.2750 C.2     1  UNL1        0.0270
      7  C         23.8920  -22.5330  -12.2420 C.2     1  UNL1        0.0810
      8  C         22.9170  -22.8860  -11.3070 C.2     1  UNL1        0.0430
      9  C         21.6470  -22.3120  -11.4050 C.2     1  UNL1        0.0430
     10  C         20.5950  -22.6500  -10.4090 C.2     1  UNL1        0.2010
     11  O         20.8500  -23.4130   -9.4790 O.2     1  UNL1       -0.2860
     12  H         19.7980  -20.2960  -13.3160 H       1  UNL1        0.1650
     13  S         25.5120  -23.2620  -12.1260 S.O2    1  UNL1        0.2630
     14  O         25.6960  -23.6790  -10.7520 O.2     1  UNL1       -0.2000
     15  O         25.6620  -24.1940  -13.2220 O.2     1  UNL1       -0.2000
     16  N         26.5360  -21.9400  -12.3650 N.pl3   1  UNL1       -0.2810
     17  H         26.5780  -21.3360  -11.5460 H       1  UNL1        0.1790
     18  C         26.6040  -21.3340  -13.6500 C.2     1  UNL1        0.0450
     19  C         26.6480  -22.1140  -14.8060 C.2     1  UNL1        0.0330
     20  C         26.6880  -21.5050  -16.0610 C.2     1  UNL1        0.0420
     21  C         26.6860  -20.1150  -16.1560 C.2     1  UNL1        0.1020
     22  C         26.6160  -19.3340  -14.9970 C.2     1  UNL1        0.1040
     23  O         26.7500  -19.5830  -17.4170 O.2     1  UNL1       -0.3460
     24  C         26.5910  -19.9410  -13.7430 C.2     1  UNL1        0.0690
     25  O         26.5760  -17.9630  -15.0170 O.2     1  UNL1       -0.3460
     26  C         26.2800  -17.4650  -16.3280 C.3     1  UNL1        0.2020
     27  C         27.1010  -18.1950  -17.3790 C.3     1  UNL1        0.2020
     28  C         18.0690  -22.3280   -9.7060 C.2     1  UNL1        0.2570
     29  O         17.0090  -21.7200   -9.8310 O.2     1  UNL1       -0.2670
     30  N         18.2590  -23.3140   -8.7730 N.am    1  UNL1       -0.3560
     31  H         19.1490  -23.8130   -8.7700 H       1  UNL1        0.1620
     32  C         17.1970  -23.7900   -7.9090 C.3     1  UNL1        0.1270
     33  C         17.7400  -24.3090   -6.5740 C.3     1  UNL1        0.0530
     34  C         17.9030  -23.2200   -5.5370 C.2     1  UNL1       -0.0820
     35  C         18.4630  -22.0360   -5.8440 C.2     1  UNL1       -0.0240
     36  C         18.7090  -20.9450   -4.8430 C.3     1  UNL1        0.0270
     37  C         18.5880  -21.4190   -3.3970 C.3     1  UNL1        0.0040
     38  C         17.3720  -22.3200   -3.2160 C.3     1  UNL1        0.0050
     39  C         17.4420  -23.5430   -4.1340 C.3     1  UNL1        0.0340
@<TRIPOS>BOND
     1    23    27    1
     2    23    21    1
     3    27    26    1
     4    26    25    1
     5    21    20    2
     6    21    22    1
     7    20    19    1
     8    25    22    1
     9    22    24    2
    10    19    18    2
    11    24    18    1
    12    18    16    1
    13     5     6    1
    14     5     4    2
    15    12     3    1
    16     6     7    2
    17    15    13    2
    18     3     4    1
    19     3     2    1
    20     4     9    1
    21    16    13    1
    22    16    17    1
    23     7    13    1
    24     7     8    1
    25    13    14    2
    26     2     1    2
    27     9     8    2
    28     9    10    1
    29     1    10    1
    30     1    28    1
    31    10    11    2
    32    29    28    2
    33    28    30   am
    34    30    31    1
    35    30    32    1
    36    32    33    1
    37    33    34    1
    38    35    34    2
    39    35    36    1
    40    34    39    1
    41    36    37    1
    42    39    38    1
    43    37    38    1
