@<TRIPOS>MOLECULE
77795_out_ligand_01.pdbqt
 30 33 0 0 0
SMALL
GASTEIGER

@<TRIPOS>ATOM
      1  C         22.7330  -23.1810   -8.9240 C.2     1  UNL1       -0.0330
      2  C         21.8350  -24.2430   -9.0880 C.2     1  UNL1        0.0120
      3  C         20.5720  -24.2030   -8.4920 C.2     1  UNL1        0.0180
      4  C         20.1890  -23.1000   -7.7210 C.2     1  UNL1        0.0320
      5  C         21.0950  -22.0510   -7.5240 C.2     1  UNL1        0.0180
      6  C         22.3600  -22.0950   -8.1220 C.2     1  UNL1        0.0120
      7  C         24.0800  -23.2020   -9.5090 C.2     1  UNL1        0.0540
      8  C         24.4050  -22.7510  -10.7350 C.2     1  UNL1        0.1440
      9  O         23.4520  -22.1950  -11.5790 O.2     1  UNL1       -0.3030
     10  C         25.8460  -22.8520  -11.1460 C.2     1  UNL1        0.2800
     11  C         23.8530  -21.7620  -12.8150 C.2     1  UNL1        0.1030
     12  C         22.8780  -21.2210  -13.6530 C.2     1  UNL1        0.0390
     13  C         25.1750  -21.8460  -13.2450 C.2     1  UNL1        0.0690
     14  C         23.2320  -20.7640  -14.9220 C.2     1  UNL1        0.0030
     15  C         24.5580  -20.8480  -15.3530 C.2     1  UNL1        0.0020
     16  C         25.5340  -21.3920  -14.5140 C.2     1  UNL1        0.0320
     17  N         26.1380  -22.3890  -12.3990 N.am    1  UNL1       -0.3190
     18  H         27.1040  -22.4550  -12.6860 H       1  UNL1        0.1690
     19  O         26.7240  -23.3170  -10.4250 O.2     1  UNL1       -0.2650
     20  C         18.8330  -23.0980   -7.1070 C.2     1  UNL1        0.2520
     21  O         18.3820  -22.0700   -6.6160 O.2     1  UNL1       -0.2680
     22  N         18.1660  -24.3080   -7.1000 N.am    1  UNL1       -0.3520
     23  H         18.7050  -25.1440   -7.2790 H       1  UNL1        0.1630
     24  C         16.8860  -24.4730   -6.4110 C.3     1  UNL1        0.0840
     25  C         15.7350  -23.9330   -7.2720 C.3     1  UNL1        0.0250
     26  C         15.4840  -22.4300   -7.1510 C.3     1  UNL1        0.0020
     27  C         14.5290  -22.0820   -6.0120 C.3     1  UNL1        0.0000
     28  C         15.1030  -22.2430   -4.6070 C.3     1  UNL1        0.0000
     29  C         15.6770  -23.6220   -4.2900 C.3     1  UNL1        0.0020
     30  C         17.0040  -23.8830   -4.9990 C.3     1  UNL1        0.0250
@<TRIPOS>BOND
     1    15    14    2
     2    15    16    1
     3    14    12    1
     4    16    13    2
     5    12    11    2
     6    13    11    1
     7    13    17    1
     8    11     9    1
     9    18    17    1
    10    17    10   am
    11     9     8    1
    12    10     8    1
    13    10    19    2
    14     8     7    2
    15     7     1    1
    16     2     1    2
    17     2     3    1
    18     1     6    1
    19     3     4    2
    20     6     5    2
    21     4     5    1
    22     4    20    1
    23    23    22    1
    24    25    26    1
    25    25    24    1
    26    26    27    1
    27    20    22   am
    28    20    21    2
    29    22    24    1
    30    24    30    1
    31    27    28    1
    32    30    29    1
    33    28    29    1
