@<TRIPOS>MOLECULE
777_out_ligand_01.pdbqt
 38 43 0 0 0
SMALL
GASTEIGER

@<TRIPOS>ATOM
      1  O         23.0630  -21.2200   -9.1530 O.2     1  UNL1       -0.2060
      2  S         22.5040  -22.5510   -9.2820 S.O2    1  UNL1        0.2450
      3  O         23.2740  -23.7300   -8.9580 O.2     1  UNL1       -0.2060
      4  N         21.9230  -22.6180  -10.8730 N.pl3   1  UNL1       -0.1810
      5  H         21.0620  -22.0710  -10.9150 H       1  UNL1        0.1460
      6  C         22.8300  -22.4220  -11.9600 C.2     1  UNL1        0.0220
      7  C         22.4480  -21.5530  -12.9890 C.2     1  UNL1        0.0260
      8  C         23.2820  -21.3510  -14.0920 C.2     1  UNL1        0.0270
      9  C         24.4990  -22.0330  -14.1660 C.2     1  UNL1        0.0800
     10  C         24.8660  -22.9400  -13.1700 C.2     1  UNL1        0.0270
     11  C         24.0270  -23.1340  -12.0690 C.2     1  UNL1        0.0260
     12  S         25.5570  -21.7730  -15.5710 S.O2    1  UNL1        0.2760
     13  O         25.2530  -22.8380  -16.5080 O.2     1  UNL1       -0.2000
     14  O         26.9170  -21.5750  -15.1180 O.2     1  UNL1       -0.2000
     15  N         24.9720  -20.3810  -16.2590 N.pl3   1  UNL1       -0.1090
     16  H         24.4740  -20.5270  -17.1280 H       1  UNL1        0.1980
     17  C         25.8120  -19.2750  -16.2900 C.cat   1  UNL1        0.7350
     18  N         26.1190  -18.6600  -15.1480 N.2     1  UNL1       -0.0740
     19  C         26.7750  -17.4920  -15.2730 C.2     1  UNL1        0.1380
     20  C         27.0830  -16.9230  -16.4860 C.2     1  UNL1        0.0400
     21  C         26.6690  -17.6280  -17.5930 C.2     1  UNL1        0.1380
     22  N         26.0120  -18.8010  -17.5250 N.2     1  UNL1       -0.0740
     23  C         21.0420  -22.5780   -8.2750 C.2     1  UNL1        0.0740
     24  C         20.1130  -23.5930   -8.5050 C.2     1  UNL1        0.0250
     25  C         18.9640  -23.6740   -7.7150 C.2     1  UNL1        0.0090
     26  C         18.7160  -22.7510   -6.6780 C.2     1  UNL1       -0.0490
     27  C         19.6720  -21.7420   -6.4690 C.2     1  UNL1        0.0090
     28  C         20.8290  -21.6540   -7.2550 C.2     1  UNL1        0.0250
     29  C         17.4450  -22.8850   -5.8200 C.3     1  UNL1       -0.0120
     30  C         17.3070  -24.3470   -5.3030 C.3     1  UNL1        0.0190
     31  C         16.0150  -24.5310   -4.4880 C.3     1  UNL1       -0.0130
     32  C         14.8050  -24.1880   -5.3710 C.3     1  UNL1        0.0090
     33  C         16.0420  -23.5920   -3.2740 C.3     1  UNL1        0.0090
     34  C         14.8930  -22.7290   -5.8460 C.3     1  UNL1       -0.0130
     35  C         14.9250  -21.7990   -4.6250 C.3     1  UNL1        0.0090
     36  C         16.1830  -22.5380   -6.6660 C.3     1  UNL1        0.0190
     37  C         16.1380  -22.1340   -3.7470 C.3     1  UNL1       -0.0130
     38  C         17.4260  -21.9530   -4.5690 C.3     1  UNL1        0.0190
@<TRIPOS>BOND
     1    21    22    2
     2    21    20    1
     3    22    17    1
     4    16    15    1
     5    13    12    2
     6    20    19    2
     7    17    15    1
     8    17    18    2
     9    15    12    1
    10    12    14    2
    11    12     9    1
    12    19    18    1
    13     9     8    2
    14     9    10    1
    15     8     7    1
    16    10    11    2
    17     7     6    2
    18    11     6    1
    19     6     4    1
    20     5     4    1
    21     4     2    1
    22     2     1    2
    23     2     3    2
    24     2    23    1
    25    24    23    2
    26    24    25    1
    27    23    28    1
    28    25    26    2
    29    28    27    2
    30    26    27    1
    31    26    29    1
    32    36    34    1
    33    36    29    1
    34    34    32    1
    35    34    35    1
    36    29    30    1
    37    29    38    1
    38    32    31    1
    39    30    31    1
    40    35    37    1
    41    38    37    1
    42    31    33    1
    43    37    33    1
