@<TRIPOS>MOLECULE
77801_out_ligand_01.pdbqt
 32 35 0 0 0
SMALL
GASTEIGER

@<TRIPOS>ATOM
      1  C         22.9360  -22.1740  -12.0000 C.2     1  UNL1        0.0330
      2  C         23.0060  -23.0020  -10.8820 C.2     1  UNL1        0.0190
      3  C         21.8700  -23.2090  -10.0850 C.2     1  UNL1        0.0310
      4  C         20.6330  -22.6200  -10.3890 C.2     1  UNL1        0.0430
      5  C         20.5660  -21.8020  -11.5390 C.2     1  UNL1       -0.0300
      6  C         21.7120  -21.5830  -12.3270 C.2     1  UNL1        0.0260
      7  C         19.2950  -21.1090  -11.9530 C.3     1  UNL1        0.0420
      8  C         18.0850  -21.8090  -11.3720 C.3     1  UNL1        0.0250
      9  C         18.2860  -21.9870   -9.8790 C.3     1  UNL1        0.1330
     10  N         19.4690  -22.8010   -9.5560 N.am    1  UNL1       -0.3130
     11  C         19.4310  -23.7270   -8.4970 C.2     1  UNL1        0.2580
     12  O         20.1720  -24.6950   -8.3430 O.2     1  UNL1       -0.2670
     13  C         24.1140  -21.9100  -12.8790 C.2     1  UNL1        0.2560
     14  N         23.8740  -21.0620  -13.9390 N.am    1  UNL1       -0.3210
     15  H         22.9240  -20.7550  -14.1130 H       1  UNL1        0.1690
     16  O         25.1700  -22.4760  -12.6190 O.2     1  UNL1       -0.2670
     17  C         24.7860  -20.6020  -14.9160 C.2     1  UNL1        0.0680
     18  C         25.6520  -19.5260  -14.7200 C.2     1  UNL1        0.0320
     19  C         26.5220  -19.1280  -15.7380 C.2     1  UNL1        0.0020
     20  C         26.5290  -19.8040  -16.9550 C.2     1  UNL1        0.0030
     21  C         25.6650  -20.8800  -17.1650 C.2     1  UNL1        0.0390
     22  C         24.7900  -21.2850  -16.1530 C.2     1  UNL1        0.0950
     23  O         23.8960  -22.3270  -16.2510 O.2     1  UNL1       -0.3490
     24  C         24.2900  -23.4520  -17.0350 C.3     1  UNL1        0.1710
     25  C         23.2770  -23.6180  -18.1530 C.3     1  UNL1        0.0340
     26  C         18.3950  -23.5520   -7.4480 C.2     1  UNL1        0.0320
     27  C         18.5810  -22.6280   -6.4100 C.2     1  UNL1        0.0200
     28  C         17.6070  -22.4980   -5.4200 C.2     1  UNL1        0.0430
     29  C         16.4680  -23.2990   -5.4670 C.2     1  UNL1        0.1160
     30  F         15.5360  -23.1710   -4.5160 F       1  UNL1       -0.2060
     31  C         16.2870  -24.2360   -6.4810 C.2     1  UNL1        0.0430
     32  C         17.2590  -24.3700   -7.4740 C.2     1  UNL1        0.0200
@<TRIPOS>BOND
     1    25    24    1
     2    21    20    2
     3    21    22    1
     4    24    23    1
     5    20    19    1
     6    23    22    1
     7    22    17    2
     8    19    18    2
     9    17    18    1
    10    17    14    1
    11    15    14    1
    12    14    13   am
    13    13    16    2
    14    13     1    1
    15     6     1    2
    16     6     5    1
    17     1     2    1
    18     7     5    1
    19     7     8    1
    20     5     4    2
    21     8     9    1
    22     2     3    2
    23     4     3    1
    24     4    10    1
    25     9    10    1
    26    10    11   am
    27    11    12    2
    28    11    26    1
    29    32    26    2
    30    32    31    1
    31    26    27    1
    32    31    29    2
    33    27    28    2
    34    29    28    1
    35    29    30    1
