@<TRIPOS>MOLECULE
77817_out_ligand_01.pdbqt
 35 38 0 0 0
SMALL
GASTEIGER

@<TRIPOS>ATOM
      1  C         23.3030  -22.3810  -10.5250 C.ar    1  UNL1        0.1710
      2  N         22.4270  -21.6340  -11.1070 N.ar    1  UNL1       -0.2060
      3  C         21.1230  -21.9880  -10.9320 C.ar    1  UNL1        0.1450
      4  C         20.6890  -23.0150  -10.1930 C.ar    1  UNL1        0.0700
      5  C         21.7130  -23.8610   -9.5550 C.ar    1  UNL1        0.2580
      6  O         21.4270  -24.8480   -8.8950 O.2     1  UNL1       -0.2670
      7  N         22.9980  -23.4630   -9.7650 N.ar    1  UNL1       -0.3020
      8  C         19.2370  -23.3070   -9.9890 C.3     1  UNL1        0.1290
      9  C         18.3370  -22.6720  -11.0530 C.3     1  UNL1        0.1220
     10  C         18.8680  -21.3650  -11.6000 C.2     1  UNL1        0.2240
     11  O         18.1360  -20.5290  -12.1200 O.2     1  UNL1       -0.2730
     12  N         20.2200  -21.1710  -11.5390 N.am    1  UNL1       -0.3110
     13  H         23.7390  -24.0080   -9.3480 H       1  UNL1        0.1710
     14  H         20.5820  -20.3550  -12.0190 H       1  UNL1        0.1700
     15  C         18.7930  -22.8770   -8.5830 C.2     1  UNL1        0.2310
     16  O         19.5000  -22.1190   -7.9230 O.2     1  UNL1       -0.2720
     17  N         17.6020  -23.4430   -8.1500 N.am    1  UNL1       -0.3270
     18  H         17.1350  -24.0890   -8.7750 H       1  UNL1        0.1690
     19  C         16.9530  -23.2350   -6.9130 C.2     1  UNL1        0.0360
     20  C         17.5770  -23.7720   -5.7760 C.2     1  UNL1        0.0320
     21  C         17.0070  -23.6170   -4.5090 C.2     1  UNL1        0.0460
     22  C         15.8080  -22.9270   -4.3770 C.2     1  UNL1        0.1380
     23  F         15.2760  -22.7920   -3.1530 F       1  UNL1       -0.2040
     24  C         15.1770  -22.3910   -5.4950 C.2     1  UNL1        0.0740
     25 CL         13.6890  -21.5390   -5.3300 Cl      1  UNL1       -0.0810
     26  C         15.7470  -22.5440   -6.7630 C.2     1  UNL1        0.0560
     27  S         25.0110  -22.1130  -10.6250 S.3     1  UNL1       -0.0870
     28  C         25.4290  -23.1710  -12.0380 C.3     1  UNL1        0.1210
     29  C         25.1870  -22.4610  -13.3470 C.2     1  UNL1       -0.0480
     30  C         25.2030  -21.0600  -13.4110 C.2     1  UNL1        0.0080
     31  C         24.9770  -20.4060  -14.6220 C.2     1  UNL1        0.0010
     32  C         24.7240  -21.1420  -15.7790 C.2     1  UNL1        0.0070
     33  C         24.6800  -22.5410  -15.7340 C.2     1  UNL1       -0.0610
     34  C         24.4320  -23.3340  -16.9820 C.3     1  UNL1        0.0480
     35  C         24.9220  -23.1910  -14.5170 C.2     1  UNL1        0.0140
@<TRIPOS>BOND
     1    34    33    1
     2    32    33    2
     3    32    31    1
     4    33    35    1
     5    31    30    2
     6    35    29    2
     7    30    29    1
     8    29    28    1
     9    11    10    2
    10    28    27    1
    11    14    12    1
    12    10    12   am
    13    10     9    1
    14    12     3    1
    15     2     3   ar
    16     2     1   ar
    17     9     8    1
    18     3     4   ar
    19    27     1    1
    20     1     7   ar
    21     4     8    1
    22     4     5   ar
    23     8    15    1
    24     7     5   ar
    25     7    13    1
    26     5     6    2
    27    18    17    1
    28    15    17   am
    29    15    16    2
    30    17    19    1
    31    19    26    2
    32    19    20    1
    33    26    24    1
    34    20    21    2
    35    24    25    1
    36    24    22    2
    37    21    22    1
    38    22    23    1
