@<TRIPOS>MOLECULE
77819_out_ligand_01.pdbqt
 33 37 0 0 0
SMALL
GASTEIGER

@<TRIPOS>ATOM
      1  C         19.4620  -20.6590  -11.7530 C.3     1  UNL1        0.0520
      2  C         20.2020  -21.8010  -11.1520 C.ar    1  UNL1       -0.0090
      3  C         21.4650  -22.2350  -11.5380 C.ar    1  UNL1        0.1500
      4  O         21.8580  -23.2780  -10.7450 O.2     1  UNL1       -0.3040
      5  C         20.8570  -23.5240   -9.8660 C.ar    1  UNL1        0.0880
      6  C         20.9120  -24.5060   -8.8830 C.2     1  UNL1        0.0410
      7  C         19.8070  -24.5980   -8.0430 C.2     1  UNL1        0.0400
      8  C         18.6980  -23.7660   -8.2140 C.2     1  UNL1        0.0790
      9  C         18.6210  -22.8190   -9.2630 C.2     1  UNL1        0.0180
     10  C         19.7800  -22.6680  -10.0800 C.ar    1  UNL1        0.0180
     11  C         17.3600  -22.0090   -9.4190 C.3     1  UNL1        0.1570
     12  C         16.2070  -22.5950   -8.6180 C.3     1  UNL1        0.0750
     13  C         16.6560  -22.9880   -7.2090 C.3     1  UNL1        0.0700
     14  C         15.4730  -23.6840   -6.4960 C.3     1  UNL1        0.0380
     15  C         15.7910  -24.0590   -5.0480 C.3     1  UNL1        0.0030
     16  C         16.2560  -22.8490   -4.2450 C.3     1  UNL1        0.0000
     17  C         17.4310  -22.1490   -4.9170 C.3     1  UNL1        0.0030
     18  C         17.1140  -21.7750   -6.3660 C.3     1  UNL1        0.0380
     19  O         17.7090  -23.9650   -7.2830 O.2     1  UNL1       -0.3390
     20  C         22.3770  -21.7780  -12.5730 C.2     1  UNL1        0.2760
     21  O         22.0870  -20.9450  -13.4280 O.2     1  UNL1       -0.2650
     22  N         23.6200  -22.3690  -12.5150 N.am    1  UNL1       -0.3510
     23  H         23.7410  -23.1170  -11.8430 H       1  UNL1        0.1630
     24  C         24.6480  -22.1260  -13.4930 C.3     1  UNL1        0.1610
     25  C         25.5070  -20.9530  -13.0970 C.2     1  UNL1       -0.0390
     26  C         25.9880  -20.8270  -11.7860 C.2     1  UNL1        0.0090
     27  C         26.7870  -19.7410  -11.4250 C.2     1  UNL1        0.0020
     28  C         27.1210  -18.7760  -12.3720 C.2     1  UNL1        0.0190
     29  C         26.6540  -18.9020  -13.6800 C.2     1  UNL1        0.0110
     30 BR         27.1210  -17.6010  -14.9650 Br      1  UNL1       -0.0510
     31  C         25.8530  -19.9810  -14.0470 C.2     1  UNL1        0.0270
     32  O         16.9560  -21.9820  -10.7870 O.3     1  UNL1       -0.3910
     33  H         16.1690  -22.5460  -10.8710 H       1  UNL1        0.2100
@<TRIPOS>BOND
     1    30    29    1
     2    31    29    1
     3    31    25    2
     4    29    28    2
     5    24    25    1
     6    24    22    1
     7    21    20    2
     8    25    26    1
     9    20    22   am
    10    20     3    1
    11    22    23    1
    12    28    27    1
    13    26    27    2
    14     1     2    1
    15     3     2   ar
    16     3     4   ar
    17     2    10   ar
    18    33    32    1
    19    32    11    1
    20     4     5   ar
    21    10     5   ar
    22    10     9    1
    23     5     6    1
    24    11     9    1
    25    11    12    1
    26     9     8    2
    27     6     7    2
    28    12    13    1
    29     8     7    1
    30     8    19    1
    31    19    13    1
    32    13    14    1
    33    13    18    1
    34    14    15    1
    35    18    17    1
    36    15    16    1
    37    17    16    1
