@<TRIPOS>MOLECULE
77823_out_ligand_01.pdbqt
 32 35 0 0 0
SMALL
GASTEIGER

@<TRIPOS>ATOM
      1  C         22.6590  -22.9290   -9.9740 C.2     1  UNL1        0.1210
      2  N         23.9860  -23.0750   -9.7340 N.2     1  UNL1       -0.2290
      3  C         24.8760  -22.6400  -10.6480 C.2     1  UNL1        0.2370
      4  N         24.6230  -22.0650  -11.8270 N.2     1  UNL1       -0.2150
      5  C         23.3070  -21.9270  -12.0230 C.ar    1  UNL1        0.2110
      6  O         22.7650  -21.3910  -13.1510 O.2     1  UNL1       -0.1920
      7  N         21.3840  -21.3830  -13.0510 N.ar    1  UNL1       -0.1250
      8  C         21.0980  -21.8910  -11.8410 C.ar    1  UNL1        0.1120
      9  C         22.2850  -22.2970  -11.1670 C.ar    1  UNL1        0.0910
     10  N         21.7270  -23.4190   -9.0510 N.pl3   1  UNL1       -0.2760
     11  H         21.9040  -24.3990   -8.8420 H       1  UNL1        0.1290
     12  C         21.5780  -22.6010   -7.8450 C.3     1  UNL1        0.0980
     13  C         20.2630  -21.8010   -7.8860 C.3     1  UNL1        0.0530
     14  C         19.2240  -22.2970   -6.8990 C.2     1  UNL1       -0.0570
     15  C         18.5690  -23.5210   -7.1040 C.2     1  UNL1        0.0090
     16  C         17.5560  -23.9380   -6.2370 C.2     1  UNL1        0.0250
     17  C         17.2130  -23.1390   -5.1470 C.2     1  UNL1        0.0740
     18  C         17.8700  -21.9300   -4.9150 C.2     1  UNL1        0.0250
     19  C         18.8730  -21.5120   -5.7910 C.2     1  UNL1        0.0090
     20  S         15.8900  -23.6250   -4.0700 S.O2    1  UNL1        0.2390
     21  O         16.3920  -24.6240   -3.1530 O.2     1  UNL1       -0.2060
     22  O         14.7080  -23.8330   -4.8710 O.2     1  UNL1       -0.2060
     23  N         15.6650  -22.2320   -3.1530 N.3     1  UNL1       -0.2250
     24  H         14.8360  -22.3520   -2.5660 H       1  UNL1        0.1360
     25  H         16.4860  -21.9750   -2.6070 H       1  UNL1        0.1360
     26  C         19.7180  -21.9560  -11.3730 C.2     1  UNL1       -0.0040
     27  C         18.9010  -20.8170  -11.4100 C.2     1  UNL1        0.0150
     28  C         17.5810  -20.8830  -10.9520 C.2     1  UNL1        0.0240
     29  C         17.0780  -22.0830  -10.4510 C.2     1  UNL1        0.0340
     30 CL         15.4530  -22.1680   -9.8940 Cl      1  UNL1       -0.0840
     31  C         17.8840  -23.2200  -10.4040 C.2     1  UNL1        0.0240
     32  C         19.2010  -23.1570  -10.8640 C.2     1  UNL1        0.0150
@<TRIPOS>BOND
     1     6     7   ar
     2     6     5   ar
     3     7     8   ar
     4     5     4    2
     5     5     9   ar
     6     8    26    1
     7     8     9   ar
     8     4     3    1
     9    27    26    2
    10    27    28    1
    11    26    32    1
    12     9     1    2
    13    28    29    2
    14    32    31    2
    15     3     2    2
    16    29    31    1
    17    29    30    1
    18     1     2    1
    19     1    10    1
    20    10    11    1
    21    10    12    1
    22    13    12    1
    23    13    14    1
    24    15    14    2
    25    15    16    1
    26    14    19    1
    27    16    17    2
    28    19    18    2
    29    17    18    1
    30    17    20    1
    31    22    20    2
    32    20    23    1
    33    20    21    2
    34    23    25    1
    35    23    24    1
