@<TRIPOS>MOLECULE
77825_out_ligand_01.pdbqt
 31 34 0 0 0
SMALL
GASTEIGER

@<TRIPOS>ATOM
      1  C         21.6780  -21.6300  -12.3300 C.2     1  UNL1        0.0330
      2  C         20.3680  -21.1670  -12.2220 C.2     1  UNL1        0.0190
      3  C         19.5340  -21.6450  -11.2030 C.2     1  UNL1        0.0310
      4  C         19.9780  -22.5950  -10.2680 C.2     1  UNL1        0.0430
      5  C         21.3120  -23.0440  -10.3730 C.2     1  UNL1       -0.0300
      6  C         22.1520  -22.5500  -11.3910 C.2     1  UNL1        0.0260
      7  C         21.9020  -24.0260   -9.3970 C.3     1  UNL1        0.0420
      8  C         20.8170  -24.8320   -8.7150 C.3     1  UNL1        0.0250
      9  C         19.7710  -23.8850   -8.1570 C.3     1  UNL1        0.1330
     10  N         19.1320  -23.0690   -9.2000 N.am    1  UNL1       -0.3130
     11  C         17.7490  -22.8110   -9.1610 C.2     1  UNL1        0.2580
     12  O         17.0420  -22.5020  -10.1170 O.2     1  UNL1       -0.2670
     13  C         22.6090  -21.1460  -13.3900 C.2     1  UNL1        0.2560
     14  N         23.8370  -21.7710  -13.4120 N.am    1  UNL1       -0.3210
     15  H         24.0630  -22.4270  -12.6720 H       1  UNL1        0.1690
     16  O         22.2350  -20.2350  -14.1190 O.2     1  UNL1       -0.2670
     17  C         24.9100  -21.5600  -14.3070 C.2     1  UNL1        0.0680
     18  C         24.9280  -22.0340  -15.6200 C.2     1  UNL1        0.0320
     19  C         26.0280  -21.7870  -16.4430 C.2     1  UNL1        0.0020
     20  C         27.1180  -21.0690  -15.9580 C.2     1  UNL1        0.0030
     21  C         27.1150  -20.5910  -14.6460 C.2     1  UNL1        0.0390
     22  C         26.0170  -20.8330  -13.8140 C.2     1  UNL1        0.0950
     23  O         25.9110  -20.4130  -12.5070 O.2     1  UNL1       -0.3540
     24  C         26.6380  -19.2460  -12.1420 C.3     1  UNL1        0.2100
     25  C         17.0510  -22.9310   -7.8570 C.2     1  UNL1        0.0320
     26  C         16.1300  -23.9610   -7.6360 C.2     1  UNL1        0.0170
     27  C         15.4970  -24.0690   -6.3960 C.2     1  UNL1        0.0070
     28  C         15.7820  -23.1550   -5.3720 C.2     1  UNL1       -0.0620
     29  C         15.1280  -23.2970   -4.0280 C.3     1  UNL1        0.0480
     30  C         16.7340  -22.1510   -5.5930 C.2     1  UNL1        0.0070
     31  C         17.3700  -22.0390   -6.8300 C.2     1  UNL1        0.0170
@<TRIPOS>BOND
     1    19    20    2
     2    19    18    1
     3    20    21    1
     4    18    17    2
     5    21    22    2
     6    17    22    1
     7    17    14    1
     8    16    13    2
     9    22    23    1
    10    14    13   am
    11    14    15    1
    12    13     1    1
    13    23    24    1
    14     1     2    2
    15     1     6    1
    16     2     3    1
    17     6     5    2
    18     3     4    2
    19     5     4    1
    20     5     7    1
    21     4    10    1
    22    12    11    2
    23     7     8    1
    24    10    11   am
    25    10     9    1
    26    11    25    1
    27     8     9    1
    28    25    26    2
    29    25    31    1
    30    26    27    1
    31    31    30    2
    32    27    28    2
    33    30    28    1
    34    28    29    1
