@<TRIPOS>MOLECULE
77837_out_ligand_01.pdbqt
 33 36 0 0 0
SMALL
GASTEIGER

@<TRIPOS>ATOM
      1  C         20.1100  -22.1540  -10.5840 C.2     1  UNL1        0.0330
      2  C         20.0570  -21.5770  -11.8510 C.2     1  UNL1        0.0190
      3  C         21.2270  -21.4370  -12.6110 C.2     1  UNL1        0.0310
      4  C         22.4800  -21.8430  -12.1280 C.2     1  UNL1        0.0430
      5  C         22.5270  -22.4070  -10.8330 C.2     1  UNL1       -0.0300
      6  C         21.3470  -22.5610  -10.0780 C.2     1  UNL1        0.0260
      7  C         23.8110  -22.8960  -10.2180 C.3     1  UNL1        0.0420
      8  C         25.0080  -22.2370  -10.8700 C.3     1  UNL1        0.0250
      9  C         24.8910  -22.3800  -12.3760 C.3     1  UNL1        0.1330
     10  N         23.6860  -21.7300  -12.9150 N.am    1  UNL1       -0.3130
     11  C         23.7300  -21.0420  -14.1430 C.2     1  UNL1        0.2610
     12  O         22.9180  -20.2070  -14.5390 O.2     1  UNL1       -0.2670
     13  C         18.8960  -22.3360   -9.7370 C.2     1  UNL1        0.2560
     14  N         19.1190  -22.9330   -8.5140 N.am    1  UNL1       -0.3210
     15  H         20.0750  -23.1170   -8.2300 H       1  UNL1        0.1690
     16  O         17.8220  -21.9240  -10.1640 O.2     1  UNL1       -0.2670
     17  C         18.1740  -23.2640   -7.5170 C.2     1  UNL1        0.0680
     18  C         17.1640  -24.2070   -7.6910 C.2     1  UNL1        0.0350
     19  C         16.2730  -24.4780   -6.6500 C.2     1  UNL1        0.0390
     20  C         16.3800  -23.8170   -5.4260 C.2     1  UNL1        0.0700
     21  C         17.3920  -22.8720   -5.2420 C.2     1  UNL1        0.0750
     22  C         18.2910  -22.5930   -6.2800 C.2     1  UNL1        0.0970
     23  O         15.4400  -24.1830   -4.5010 O.2     1  UNL1       -0.3560
     24  C         15.6670  -23.7920   -3.1530 C.3     1  UNL1        0.2100
     25  O         19.3240  -21.6850   -6.2030 O.2     1  UNL1       -0.3540
     26  C         19.2540  -20.7010   -5.1780 C.3     1  UNL1        0.2100
     27  C         24.8660  -21.2790  -15.0560 C.2     1  UNL1        0.0710
     28  C         24.8230  -22.3750  -15.9260 C.2     1  UNL1        0.0200
     29  C         25.9010  -22.6310  -16.7750 C.2     1  UNL1        0.0010
     30  C         27.0270  -21.8050  -16.7440 C.2     1  UNL1        0.0030
     31  C         27.0800  -20.7260  -15.8590 C.2     1  UNL1        0.0430
     32  C         26.0020  -20.4730  -15.0130 C.2     1  UNL1        0.1320
     33  F         26.0820  -19.4410  -14.1620 F       1  UNL1       -0.2050
@<TRIPOS>BOND
     1    29    30    2
     2    29    28    1
     3    30    31    1
     4    28    27    2
     5    31    32    2
     6    27    32    1
     7    27    11    1
     8    32    33    1
     9    12    11    2
    10    11    10   am
    11    10     9    1
    12    10     4    1
    13     3     4    2
    14     3     2    1
    15     9     8    1
    16     4     5    1
    17     2     1    2
    18     8     7    1
    19     5     7    1
    20     5     6    2
    21     1     6    1
    22     1    13    1
    23    16    13    2
    24    13    14   am
    25    14    15    1
    26    14    17    1
    27    18    17    2
    28    18    19    1
    29    17    22    1
    30    19    20    2
    31    22    25    1
    32    22    21    2
    33    25    26    1
    34    20    21    1
    35    20    23    1
    36    23    24    1
