@<TRIPOS>MOLECULE
77842_out_ligand_01.pdbqt
 29 32 0 0 0
SMALL
GASTEIGER

@<TRIPOS>ATOM
      1  C         17.3570  -21.0240  -11.2310 C.3     1  UNL1        0.0500
      2  C         18.8090  -21.4170  -11.1380 C.2     1  UNL1       -0.0350
      3  C         19.6590  -21.0600  -12.2000 C.2     1  UNL1        0.0100
      4  C         21.0110  -21.3950  -12.1740 C.2     1  UNL1        0.0170
      5  C         21.5280  -22.0920  -11.0810 C.2     1  UNL1        0.0340
      6  C         20.6960  -22.4400  -10.0100 C.2     1  UNL1        0.0470
      7  C         19.3320  -22.1220  -10.0290 C.2     1  UNL1        0.0420
      8  N         18.4580  -22.4620   -8.9710 N.am    1  UNL1       -0.3210
      9  C         18.5460  -23.5410   -8.1010 C.2     1  UNL1        0.2760
     10  O         19.3690  -24.4460   -8.1640 O.2     1  UNL1       -0.2660
     11  H         17.6190  -21.9050   -8.8790 H       1  UNL1        0.1690
     12  C         17.4890  -23.5240   -7.0700 C.ar    1  UNL1        0.1440
     13  N         16.3410  -24.1660   -7.3130 N.ar    1  UNL1       -0.2050
     14  S         15.3210  -23.9750   -6.0340 S.2     1  UNL1        0.0120
     15  C         16.3730  -23.0090   -5.0840 C.ar    1  UNL1        0.0360
     16  C         16.1600  -22.4480   -3.8130 C.2     1  UNL1        0.0210
     17  C         17.5690  -22.8410   -5.7870 C.ar    1  UNL1        0.0170
     18  C         17.1880  -21.7020   -3.2340 C.2     1  UNL1        0.0010
     19  C         18.3970  -21.5280   -3.8960 C.2     1  UNL1        0.0010
     20  C         18.6000  -22.0900   -5.1630 C.2     1  UNL1        0.0150
     21  C         22.9690  -22.4440  -11.0130 C.2     1  UNL1        0.2520
     22  O         23.3590  -23.3180  -10.2480 O.2     1  UNL1       -0.2680
     23  N         23.7960  -21.7430  -11.8670 N.am    1  UNL1       -0.3520
     24  H         23.3820  -21.1500  -12.5740 H       1  UNL1        0.1630
     25  C         25.2250  -22.0120  -11.9270 C.3     1  UNL1        0.0840
     26  C         26.0040  -21.1310  -10.9450 C.3     1  UNL1        0.0250
     27  C         26.4080  -19.8760  -11.7270 C.3     1  UNL1        0.0020
     28  C         25.9850  -20.1140  -13.1720 C.3     1  UNL1        0.0020
     29  C         25.8110  -21.6210  -13.2820 C.3     1  UNL1        0.0250
@<TRIPOS>BOND
     1    29    28    1
     2    29    25    1
     3    28    27    1
     4    24    23    1
     5     3     4    1
     6     3     2    2
     7     4     5    2
     8    25    23    1
     9    25    26    1
    10    23    21   am
    11    27    26    1
    12     1     2    1
    13     2     7    1
    14     5    21    1
    15     5     6    1
    16    21    22    2
    17     7     6    2
    18     7     8    1
    19     8    11    1
    20     8     9   am
    21    10     9    2
    22     9    12    1
    23    13    12   ar
    24    13    14   ar
    25    12    17   ar
    26    14    15   ar
    27    17    20    1
    28    17    15   ar
    29    20    19    2
    30    15    16    1
    31    19    18    1
    32    16    18    2
