@<TRIPOS>MOLECULE
77876_out_ligand_01.pdbqt
 36 40 0 0 0
SMALL
GASTEIGER

@<TRIPOS>ATOM
      1  C         21.9470  -23.0110   -8.7310 C.2     1  UNL1        0.0330
      2  C         22.2650  -21.8320   -8.0430 C.2     1  UNL1        0.0300
      3  C         21.3990  -21.3050   -7.0770 C.2     1  UNL1        0.0190
      4  C         20.1930  -21.9500   -6.7870 C.2     1  UNL1        0.0320
      5  C         19.8520  -23.1110   -7.4880 C.2     1  UNL1        0.0190
      6  C         20.7220  -23.6340   -8.4500 C.2     1  UNL1        0.0300
      7  N         22.7610  -23.5690   -9.7520 N.pl3   1  UNL1       -0.3400
      8  H         23.5410  -24.0660   -9.3180 H       1  UNL1        0.1670
      9  C         23.0290  -22.9730  -10.9500 C.ar    1  UNL1        0.1440
     10  N         24.2890  -22.9620  -11.5180 N.ar    1  UNL1       -0.2880
     11  C         25.5110  -23.5000  -11.1430 C.2     1  UNL1        0.1190
     12  C         24.2020  -22.2140  -12.6640 C.ar    1  UNL1        0.1530
     13  C         26.5720  -23.2960  -11.9420 C.2     1  UNL1        0.1340
     14  N         26.5290  -22.5750  -13.1250 N.2     1  UNL1       -0.2680
     15  C         25.3830  -22.0480  -13.4660 C.2     1  UNL1        0.1670
     16  N         23.0070  -21.7130  -12.8640 N.ar    1  UNL1       -0.2250
     17  C         22.2620  -22.1750  -11.7960 C.ar    1  UNL1        0.1140
     18  C         20.8600  -21.8300  -11.6260 C.2     1  UNL1       -0.0040
     19  C         19.8780  -22.8060  -11.4180 C.2     1  UNL1        0.0140
     20  C         18.5370  -22.4450  -11.2580 C.2     1  UNL1        0.0070
     21  C         18.1540  -21.1000  -11.3050 C.2     1  UNL1       -0.0620
     22  C         16.7130  -20.7080  -11.1690 C.3     1  UNL1        0.0480
     23  C         19.1300  -20.1250  -11.5440 C.2     1  UNL1        0.0070
     24  C         20.4700  -20.4880  -11.7040 C.2     1  UNL1        0.0140
     25  C         19.2350  -21.4220   -5.7770 C.2     1  UNL1        0.2510
     26  O         19.2350  -20.2300   -5.4960 O.2     1  UNL1       -0.2680
     27  N         18.3540  -22.3370   -5.2320 N.am    1  UNL1       -0.3570
     28  H         18.2080  -23.1990   -5.7390 H       1  UNL1        0.1620
     29  C         17.2850  -21.8870   -4.3560 C.3     1  UNL1        0.1270
     30  C         15.9420  -22.5040   -4.7440 C.3     1  UNL1        0.0580
     31  C         15.9340  -22.9940   -6.1690 C.2     1  UNL1       -0.0570
     32  C         15.9300  -22.0820   -7.2330 C.2     1  UNL1        0.0070
     33  C         15.9430  -22.5350   -8.5530 C.2     1  UNL1        0.0010
     34  C         15.9630  -23.9020   -8.8210 C.2     1  UNL1        0.0000
     35  C         15.9730  -24.8180   -7.7700 C.2     1  UNL1        0.0010
     36  C         15.9600  -24.3670   -6.4490 C.2     1  UNL1        0.0070
@<TRIPOS>BOND
     1    15    14    2
     2    15    12    1
     3    14    13    1
     4    16    12   ar
     5    16    17   ar
     6    12    10   ar
     7    13    11    2
     8    17    18    1
     9    17     9   ar
    10    24    18    2
    11    24    23    1
    12    18    19    1
    13    23    21    2
    14    10    11    1
    15    10     9   ar
    16    19    20    2
    17    21    20    1
    18    21    22    1
    19     9     7    1
    20     7     8    1
    21     7     1    1
    22    34    33    2
    23    34    35    1
    24     1     6    2
    25     1     2    1
    26    33    32    1
    27     6     5    1
    28     2     3    2
    29    35    36    2
    30     5     4    2
    31    32    31    2
    32     3     4    1
    33     4    25    1
    34    36    31    1
    35    31    30    1
    36    25    26    2
    37    25    27   am
    38    28    27    1
    39    27    29    1
    40    30    29    1
