@<TRIPOS>MOLECULE
77871_out_ligand_01.pdbqt
 36 39 0 0 0
SMALL
GASTEIGER

@<TRIPOS>ATOM
      1  C         18.5330  -22.3920  -10.1010 C.2     1  UNL1        0.0320
      2  C         19.4330  -23.3580   -9.6400 C.2     1  UNL1        0.0190
      3  C         20.7540  -23.3850  -10.1070 C.2     1  UNL1        0.0300
      4  C         21.1920  -22.4430  -11.0370 C.2     1  UNL1        0.0360
      5  C         20.2960  -21.4590  -11.4780 C.2     1  UNL1        0.0300
      6  C         18.9750  -21.4300  -11.0150 C.2     1  UNL1        0.0190
      7  N         22.5030  -22.3910  -11.5500 N.am    1  UNL1       -0.3090
      8  C         23.6070  -21.7680  -11.0050 C.2     1  UNL1        0.3270
      9  O         23.6330  -21.2570   -9.8880 O.2     1  UNL1       -0.2460
     10  N         24.7670  -21.8370  -11.7950 N.am    1  UNL1       -0.2960
     11  C         26.0530  -21.8220  -11.1000 C.3     1  UNL1        0.1440
     12  C         24.8140  -22.2410  -13.1650 C.2     1  UNL1        0.0800
     13  C         26.5620  -23.2390  -10.9160 C.3     1  UNL1        0.1010
     14  S         26.9190  -24.0280  -12.5210 S.3     1  UNL1       -0.1060
     15  C         25.7300  -23.2240  -13.5890 C.2     1  UNL1        0.1210
     16  N         25.7770  -23.6830  -14.8640 N.2     1  UNL1       -0.2440
     17  C         24.9290  -23.1570  -15.7720 C.2     1  UNL1        0.0320
     18  C         25.0030  -23.6910  -17.1710 C.3     1  UNL1        0.0700
     19  C         24.0340  -22.1440  -15.4530 C.2     1  UNL1        0.0350
     20  C         23.9840  -21.6500  -14.1420 C.2     1  UNL1       -0.0300
     21  C         23.0750  -20.4770  -13.8800 C.3     1  UNL1        0.0500
     22  H         22.6860  -22.9860  -12.3450 H       1  UNL1        0.1700
     23  C         17.1400  -22.4110   -9.5700 C.2     1  UNL1        0.2510
     24  N         16.9670  -22.9450   -8.3110 N.am    1  UNL1       -0.3530
     25  H         17.7700  -23.1350   -7.7270 H       1  UNL1        0.1630
     26  O         16.2230  -21.9380  -10.2380 O.2     1  UNL1       -0.2680
     27  C         15.6850  -22.9090   -7.6340 C.3     1  UNL1        0.1640
     28  C         15.8650  -23.0560   -6.1410 C.2     1  UNL1       -0.0070
     29  C         15.0090  -23.9260   -5.4410 C.2     1  UNL1        0.0110
     30  C         15.1270  -24.0870   -4.0620 C.2     1  UNL1        0.0010
     31  C         16.1020  -23.3790   -3.3640 C.2     1  UNL1        0.0030
     32  C         16.9620  -22.5220   -4.0470 C.2     1  UNL1        0.0370
     33  C         16.8590  -22.3590   -5.4330 C.2     1  UNL1        0.0760
     34  O         17.6590  -21.5170   -6.1630 O.2     1  UNL1       -0.3510
     35  C         18.9610  -21.2590   -5.6380 C.3     1  UNL1        0.1710
     36  C         19.9830  -21.6930   -6.6770 C.3     1  UNL1        0.0340
@<TRIPOS>BOND
     1    18    17    1
     2    17    19    2
     3    17    16    1
     4    19    20    1
     5    16    15    2
     6    20    21    1
     7    20    12    2
     8    15    12    1
     9    15    14    1
    10    12    10    1
    11    14    13    1
    12    22     7    1
    13    10    11    1
    14    10     8   am
    15     7     4    1
    16     7     8   am
    17     5     4    2
    18     5     6    1
    19    11    13    1
    20     4     3    1
    21     6     1    2
    22     8     9    2
    23    26    23    2
    24     3     2    2
    25     1     2    1
    26     1    23    1
    27    23    24   am
    28    24    25    1
    29    24    27    1
    30    27    28    1
    31    36    35    1
    32    34    35    1
    33    34    33    1
    34    28    29    2
    35    28    33    1
    36    29    30    1
    37    33    32    2
    38    30    31    2
    39    32    31    1
