@<TRIPOS>MOLECULE
77882_out_ligand_01.pdbqt
 35 39 0 0 0
SMALL
GASTEIGER

@<TRIPOS>ATOM
      1  N         23.8690  -22.4030  -12.8660 N.pl3   1  UNL1       -0.3750
      2  C         24.9040  -23.4500  -12.8370 C.3     1  UNL1        0.1340
      3  C         25.9020  -23.1710  -11.7230 C.3     1  UNL1        0.0990
      4  S         25.1290  -23.3940  -10.0990 S.3     1  UNL1       -0.1260
      5  C         23.4690  -22.7990  -10.4570 C.2     1  UNL1        0.0270
      6  C         22.6130  -22.7510   -9.3420 C.2     1  UNL1        0.0220
      7  C         21.2980  -22.3100   -9.4660 C.2     1  UNL1        0.0180
      8  C         20.8220  -21.9250  -10.7160 C.2     1  UNL1        0.0340
      9  C         21.6810  -21.9580  -11.8300 C.2     1  UNL1        0.0470
     10  C         23.0180  -22.3970  -11.7440 C.2     1  UNL1        0.0480
     11  C         19.4270  -21.4370  -10.9150 C.2     1  UNL1        0.2510
     12  O         19.2240  -20.3710  -11.4860 O.2     1  UNL1       -0.2680
     13  N         18.4160  -22.2530  -10.4550 N.am    1  UNL1       -0.3570
     14  H         18.6240  -23.2020  -10.1750 H       1  UNL1        0.1620
     15  C         17.0170  -21.9020  -10.6230 C.3     1  UNL1        0.1240
     16  C         16.2080  -22.1900   -9.3630 C.3     1  UNL1        0.0390
     17  C         16.0660  -23.6820   -9.0180 C.3     1  UNL1        0.1180
     18  N         16.5390  -24.1530   -7.7150 N.3     1  UNL1       -0.4080
     19  C         15.6440  -23.8540   -6.5890 C.3     1  UNL1        0.1210
     20  C         16.3340  -23.6720   -5.2250 C.3     1  UNL1        0.0580
     21  C         17.4910  -22.7180   -5.3700 C.2     1  UNL1       -0.0490
     22  C         17.7850  -21.7360   -4.4230 C.2     1  UNL1        0.0080
     23  C         18.2970  -22.8640   -6.5130 C.2     1  UNL1       -0.0340
     24  C         18.8750  -20.8880   -4.6250 C.2     1  UNL1        0.0010
     25  C         19.6750  -21.0270   -5.7610 C.2     1  UNL1        0.0010
     26  C         19.3930  -22.0190   -6.7020 C.2     1  UNL1        0.0090
     27  C         17.9730  -23.9940   -7.4610 C.3     1  UNL1        0.1560
     28  C         23.3870  -21.9670  -14.1850 C.3     1  UNL1        0.1610
     29  C         24.3630  -21.0370  -14.8810 C.2     1  UNL1       -0.0400
     30  C         25.0000  -20.0110  -14.1670 C.2     1  UNL1        0.0090
     31  C         25.8900  -19.1450  -14.8060 C.2     1  UNL1        0.0070
     32  C         26.1450  -19.2760  -16.1750 C.2     1  UNL1       -0.0620
     33  C         27.1190  -18.3620  -16.8560 C.3     1  UNL1        0.0480
     34  C         25.5180  -20.3040  -16.8890 C.2     1  UNL1        0.0070
     35  C         24.6290  -21.1720  -16.2500 C.2     1  UNL1        0.0090
@<TRIPOS>BOND
     1    34    35    1
     2    34    32    2
     3    33    32    1
     4    35    29    2
     5    32    31    1
     6    29    28    1
     7    29    30    1
     8    31    30    2
     9    28     1    1
    10     1     2    1
    11     1    10    1
    12     2     3    1
    13     9    10    1
    14     9     8    2
    15    10     5    2
    16     3     4    1
    17    12    11    2
    18    11     8    1
    19    11    13   am
    20     8     7    1
    21    15    13    1
    22    15    16    1
    23     5     4    1
    24     5     6    1
    25    13    14    1
    26     7     6    2
    27    16    17    1
    28    17    18    1
    29    18    27    1
    30    18    19    1
    31    27    23    1
    32    26    23    1
    33    26    25    2
    34    19    20    1
    35    23    21    2
    36    25    24    1
    37    21    20    1
    38    21    22    1
    39    24    22    2
