@<TRIPOS>MOLECULE
77885_out_ligand_01.pdbqt
 34 37 0 0 0
SMALL
GASTEIGER

@<TRIPOS>ATOM
      1  C         22.1350  -22.1870   -9.6370 C.2     1  UNL1        0.0330
      2  C         21.4700  -21.9100  -10.8290 C.2     1  UNL1        0.0190
      3  C         22.1730  -21.9220  -12.0420 C.2     1  UNL1        0.0310
      4  C         23.5470  -22.2070  -12.1000 C.2     1  UNL1        0.0430
      5  C         24.1900  -22.5590  -10.8940 C.2     1  UNL1       -0.0300
      6  C         23.4880  -22.5290   -9.6750 C.2     1  UNL1        0.0260
      7  C         25.6440  -22.9420  -10.8660 C.3     1  UNL1        0.0420
      8  C         26.0240  -23.5780  -12.1840 C.3     1  UNL1        0.0250
      9  C         25.6840  -22.6240  -13.3130 C.3     1  UNL1        0.1330
     10  N         24.2780  -22.1920  -13.3460 N.am    1  UNL1       -0.3130
     11  C         23.7860  -21.5070  -14.4800 C.2     1  UNL1        0.2610
     12  O         22.8170  -20.7510  -14.5170 O.2     1  UNL1       -0.2670
     13  C         21.4360  -22.1720   -8.3190 C.2     1  UNL1        0.2560
     14  N         20.1480  -22.6750   -8.3390 N.am    1  UNL1       -0.3230
     15  H         19.7620  -22.9100   -9.2460 H       1  UNL1        0.1690
     16  O         22.0240  -21.6950   -7.3560 O.2     1  UNL1       -0.2670
     17  C         19.2660  -22.8120   -7.2480 C.2     1  UNL1        0.0350
     18  C         19.0310  -21.8110   -6.3030 C.2     1  UNL1        0.0300
     19  C         18.1410  -22.0240   -5.2410 C.2     1  UNL1        0.0200
     20  C         17.4740  -23.2470   -5.1120 C.2     1  UNL1        0.0390
     21  C         17.7110  -24.2530   -6.0530 C.2     1  UNL1        0.0200
     22  C         18.6010  -24.0370   -7.1110 C.2     1  UNL1        0.0300
     23  C         16.5170  -23.5260   -4.0070 C.2     1  UNL1        0.2930
     24  O         16.6720  -24.4250   -3.1960 O.2     1  UNL1       -0.2590
     25  O         15.4760  -22.6570   -4.0450 O.3     1  UNL1       -0.3180
     26  C         14.4230  -22.9820   -4.9630 C.3     1  UNL1        0.1740
     27  C         14.0440  -21.7600   -5.7770 C.3     1  UNL1        0.0340
     28  C         24.5120  -21.6370  -15.7560 C.2     1  UNL1        0.0710
     29  C         24.3410  -22.7920  -16.5270 C.2     1  UNL1        0.0200
     30  C         25.0560  -22.9370  -17.7170 C.2     1  UNL1        0.0010
     31  C         25.9460  -21.9400  -18.1270 C.2     1  UNL1        0.0030
     32  C         26.1310  -20.8000  -17.3420 C.2     1  UNL1        0.0430
     33  C         25.4180  -20.6570  -16.1550 C.2     1  UNL1        0.1320
     34  F         25.6080  -19.5560  -15.4140 F       1  UNL1       -0.2050
@<TRIPOS>BOND
     1    31    30    2
     2    31    32    1
     3    30    29    1
     4    32    33    2
     5    29    28    2
     6    33    28    1
     7    33    34    1
     8    28    11    1
     9    12    11    2
    10    11    10   am
    11    10     9    1
    12    10     4    1
    13     9     8    1
    14     8     7    1
    15     4     3    2
    16     4     5    1
    17     3     2    1
    18     5     7    1
    19     5     6    2
    20     2     1    2
    21     6     1    1
    22     1    13    1
    23    15    14    1
    24    14    13   am
    25    14    17    1
    26    13    16    2
    27    17    22    2
    28    17    18    1
    29    22    21    1
    30    18    19    2
    31    21    20    2
    32    27    26    1
    33    19    20    1
    34    20    23    1
    35    26    25    1
    36    25    23    1
    37    23    24    2
