@<TRIPOS>MOLECULE
77897_out_ligand_01.pdbqt
 35 39 0 0 0
SMALL
GASTEIGER

@<TRIPOS>ATOM
      1  S         16.1860  -23.2720   -9.5570 S.3     1  UNL1       -0.0870
      2  C         16.7080  -21.5820   -9.9750 C.3     1  UNL1        0.1210
      3  C         18.0540  -21.5740  -10.6590 C.2     1  UNL1       -0.0480
      4  C         18.7760  -22.7650  -10.8250 C.2     1  UNL1        0.0090
      5  C         20.0200  -22.7540  -11.4620 C.2     1  UNL1        0.0170
      6  C         20.5650  -21.5520  -11.9250 C.2     1  UNL1        0.0320
      7  C         19.8490  -20.3610  -11.7670 C.2     1  UNL1        0.0170
      8  C         18.6020  -20.3730  -11.1340 C.2     1  UNL1        0.0090
      9  C         21.8890  -21.5900  -12.6060 C.2     1  UNL1        0.2510
     10  O         22.0690  -20.9570  -13.6410 O.2     1  UNL1       -0.2680
     11  N         22.8520  -22.3850  -12.0210 N.am    1  UNL1       -0.3520
     12  H         22.5670  -23.0650  -11.3290 H       1  UNL1        0.1630
     13  C         24.1310  -22.6070  -12.6550 C.3     1  UNL1        0.1690
     14  C         25.0480  -21.4830  -12.2860 C.2     1  UNL1        0.0000
     15  C         25.5130  -21.1430  -11.0290 C.2     1  UNL1        0.0170
     16  C         26.3800  -20.0130  -11.0610 C.2     1  UNL1        0.0080
     17  C         26.5270  -19.5100  -12.3350 C.2     1  UNL1        0.0500
     18  S         25.6690  -20.4360  -13.4910 S.3     1  UNL1       -0.1050
     19  C         16.2260  -23.1750   -7.8290 C.ar    1  UNL1        0.1710
     20  N         15.3690  -22.4890   -7.1040 N.ar    1  UNL1       -0.2210
     21  C         15.7600  -22.7000   -5.8080 C.ar    1  UNL1        0.1050
     22  C         15.2290  -22.2370   -4.6010 C.2     1  UNL1        0.0370
     23  C         16.8830  -23.5190   -5.7540 C.ar    1  UNL1        0.1610
     24  C         15.8750  -22.6340   -3.4270 C.2     1  UNL1        0.0220
     25  C         16.9960  -23.4550   -3.5120 C.2     1  UNL1        0.1190
     26  N         17.5490  -23.9290   -4.6560 N.2     1  UNL1       -0.2410
     27  N         17.1750  -23.8080   -7.0630 N.ar    1  UNL1       -0.3040
     28  C         18.2920  -24.6310   -7.5000 C.3     1  UNL1        0.1740
     29  C         19.5350  -23.8130   -7.7470 C.2     1  UNL1       -0.0010
     30  C         19.6640  -22.5060   -7.2500 C.2     1  UNL1        0.0120
     31  C         20.8260  -21.7670   -7.4920 C.2     1  UNL1        0.0010
     32  C         21.8760  -22.3260   -8.2220 C.2     1  UNL1        0.0030
     33  C         21.7650  -23.6280   -8.7050 C.2     1  UNL1        0.0430
     34  C         20.6050  -24.3590   -8.4610 C.2     1  UNL1        0.1240
     35  F         20.5290  -25.6150   -8.9220 F       1  UNL1       -0.2050
@<TRIPOS>BOND
     1    10     9    2
     2    18    17    1
     3    18    14    1
     4    13    14    1
     5    13    11    1
     6     9    11   am
     7     9     6    1
     8    17    16    2
     9    14    15    2
    10    11    12    1
    11     6     7    2
    12     6     5    1
    13     7     8    1
    14     5     4    2
    15     8     3    2
    16    16    15    1
    17     4     3    1
    18     3     2    1
    19     2     1    1
    20     1    19    1
    21    35    34    1
    22    33    34    1
    23    33    32    2
    24    34    29    2
    25    32    31    1
    26    19    20   ar
    27    19    27   ar
    28    29    28    1
    29    29    30    1
    30    28    27    1
    31    31    30    2
    32    20    21   ar
    33    27    23   ar
    34    21    23   ar
    35    21    22    1
    36    23    26    1
    37    26    25    2
    38    22    24    2
    39    25    24    1
