@<TRIPOS>MOLECULE
778_out_ligand_01.pdbqt
 35 37 0 0 0
SMALL
GASTEIGER

@<TRIPOS>ATOM
      1  C         19.0500  -21.2550  -11.4560 C.3     1  UNL1        0.0500
      2  C         20.4520  -21.7910  -11.5130 C.2     1  UNL1       -0.0390
      3  C         21.3090  -21.3030  -12.5150 C.2     1  UNL1        0.0100
      4  C         22.6260  -21.7520  -12.6200 C.2     1  UNL1        0.0250
      5  C         23.1000  -22.7230  -11.7450 C.2     1  UNL1        0.0240
      6  C         22.2750  -23.2310  -10.7480 C.2     1  UNL1        0.0500
      7  C         20.9570  -22.7630  -10.6250 C.2     1  UNL1        0.0870
      8  S         19.9830  -23.4420   -9.2840 S.O2    1  UNL1        0.2630
      9  O         20.6310  -24.6570   -8.8360 O.2     1  UNL1       -0.2000
     10  O         18.5930  -23.4600   -9.6890 O.2     1  UNL1       -0.2000
     11  N         20.1250  -22.2610   -8.0790 N.pl3   1  UNL1       -0.2810
     12  H         21.0860  -21.9470   -7.9660 H       1  UNL1        0.1790
     13  C         19.3250  -22.3840   -6.9080 C.2     1  UNL1        0.0420
     14  C         19.2580  -21.3470   -5.9820 C.2     1  UNL1        0.0310
     15  C         18.4110  -21.4530   -4.8740 C.2     1  UNL1        0.0210
     16  C         17.6340  -22.6000   -4.6840 C.2     1  UNL1        0.0050
     17  C         17.6980  -23.6290   -5.6270 C.2     1  UNL1        0.0210
     18  C         18.5460  -23.5270   -6.7330 C.2     1  UNL1        0.0310
     19  S         16.5400  -22.6880   -3.2810 S.3     1  UNL1       -0.0610
     20  C         14.9470  -22.5990   -4.1190 C.3     1  UNL1        0.4200
     21  F         14.5240  -23.8350   -4.4930 F       1  UNL1       -0.2020
     22  F         15.0230  -21.8480   -5.2470 F       1  UNL1       -0.2020
     23  N         24.4780  -23.1110  -11.8100 N.pl3   1  UNL1       -0.1810
     24  H         24.6400  -23.9530  -11.2490 H       1  UNL1        0.1460
     25  S         25.5510  -21.9270  -11.1990 S.O2    1  UNL1        0.2480
     26  O         26.7120  -22.6730  -10.7530 O.2     1  UNL1       -0.2050
     27  O         24.8680  -20.9890  -10.3390 O.2     1  UNL1       -0.2050
     28  C         26.0080  -21.0660  -12.6690 C.2     1  UNL1        0.1130
     29  C         25.9590  -21.7070  -13.9130 C.2     1  UNL1        0.0310
     30  C         26.3370  -21.0040  -15.0570 C.2     1  UNL1        0.0440
     31  C         26.7590  -19.6810  -14.9460 C.2     1  UNL1        0.1190
     32  F         27.1200  -19.0130  -16.0480 F       1  UNL1       -0.2060
     33  C         26.8130  -19.0450  -13.7130 C.2     1  UNL1        0.0860
     34  C         26.4360  -19.7470  -12.5710 C.2     1  UNL1        0.1420
     35  F         26.4880  -19.1160  -11.3900 F       1  UNL1       -0.2040
@<TRIPOS>BOND
     1    32    31    1
     2    30    31    2
     3    30    29    1
     4    31    33    1
     5    29    28    2
     6    33    34    2
     7    28    34    1
     8    28    25    1
     9     4     3    1
    10     4     5    2
    11    34    35    1
    12     3     2    2
    13    23     5    1
    14    23    24    1
    15    23    25    1
    16     5     6    1
    17     2     1    1
    18     2     7    1
    19    25    26    2
    20    25    27    2
    21     6     7    2
    22     7     8    1
    23    10     8    2
    24     8     9    2
    25     8    11    1
    26    11    12    1
    27    11    13    1
    28    13    18    2
    29    13    14    1
    30    18    17    1
    31    14    15    2
    32    17    16    2
    33    22    20    1
    34    15    16    1
    35    16    19    1
    36    21    20    1
    37    20    19    1
