@<TRIPOS>MOLECULE
7790_out_ligand_01.pdbqt
 35 38 0 0 0
SMALL
GASTEIGER

@<TRIPOS>ATOM
      1  C         18.7250  -23.2010   -9.4820 C.2     1  UNL1        0.0560
      2  C         18.2570  -23.8770   -8.3410 C.2     1  UNL1        0.0490
      3  C         16.9150  -23.8030   -7.9770 C.2     1  UNL1        0.0430
      4  C         16.0210  -23.0680   -8.7510 C.2     1  UNL1        0.0320
      5  C         16.4690  -22.4270   -9.9070 C.2     1  UNL1        0.0270
      6  C         17.8170  -22.4890  -10.2770 C.2     1  UNL1        0.0500
      7 CL         18.2660  -21.6820  -11.7360 Cl      1  UNL1       -0.0830
      8  C         20.1910  -23.2840   -9.7260 C.2     1  UNL1        0.2590
      9  O         20.7600  -24.3150   -9.3830 O.2     1  UNL1       -0.2670
     10  N         20.7720  -22.1480  -10.2310 N.am    1  UNL1       -0.3000
     11  H         20.2000  -21.3490  -10.4740 H       1  UNL1        0.1710
     12  C         22.1130  -21.9190  -10.4150 C.ar    1  UNL1        0.1970
     13  N         22.8210  -21.2150   -9.5610 N.ar    1  UNL1       -0.1220
     14  N         24.1560  -21.1650   -9.9110 N.ar    1  UNL1       -0.1330
     15  C         24.3960  -21.8380  -11.0170 C.ar    1  UNL1        0.1600
     16  S         22.9990  -22.5170  -11.7380 S.2     1  UNL1       -0.0220
     17  S         26.0090  -21.9460  -11.6760 S.3     1  UNL1       -0.0970
     18  C         25.8230  -21.0850  -13.2630 C.3     1  UNL1        0.1200
     19  C         25.4580  -21.9830  -14.4210 C.2     1  UNL1       -0.0490
     20  C         25.6500  -23.3720  -14.3460 C.2     1  UNL1        0.0080
     21  C         25.3070  -24.1960  -15.4190 C.2     1  UNL1        0.0010
     22  C         24.7750  -23.6420  -16.5810 C.2     1  UNL1        0.0000
     23  C         24.5880  -22.2660  -16.6740 C.2     1  UNL1        0.0010
     24  C         24.9280  -21.4390  -15.6010 C.2     1  UNL1        0.0080
     25  N         16.4900  -24.3970   -6.7570 N.pl3   1  UNL1       -0.2810
     26  H         17.1080  -25.0800   -6.3190 H       1  UNL1        0.1790
     27  S         15.7480  -23.4070   -5.5990 S.O2    1  UNL1        0.2630
     28  O         14.8160  -22.5230   -6.2660 O.2     1  UNL1       -0.2000
     29  O         15.3270  -24.2830   -4.5270 O.2     1  UNL1       -0.2000
     30  C         17.1050  -22.4280   -4.9940 C.2     1  UNL1        0.0790
     31  C         17.3600  -22.3610   -3.6190 C.2     1  UNL1        0.0250
     32  C         18.4030  -21.5630   -3.1540 C.2     1  UNL1        0.0020
     33  C         19.1900  -20.8440   -4.0570 C.2     1  UNL1        0.0000
     34  C         18.9460  -20.9330   -5.4300 C.2     1  UNL1        0.0020
     35  C         17.9060  -21.7330   -5.9040 C.2     1  UNL1        0.0250
@<TRIPOS>BOND
     1    23    22    2
     2    23    24    1
     3    22    21    1
     4    24    19    2
     5    21    20    2
     6    19    20    1
     7    19    18    1
     8    18    17    1
     9    16    15   ar
    10    16    12   ar
    11     7     6    1
    12    17    15    1
    13    15    14   ar
    14    11    10    1
    15    12    10    1
    16    12    13   ar
    17     6     5    1
    18     6     1    2
    19    10     8   am
    20    14    13   ar
    21     5     4    2
    22     8     1    1
    23     8     9    2
    24     1     2    1
    25     4     3    1
    26     2     3    2
    27     3    25    1
    28    25    26    1
    29    25    27    1
    30    28    27    2
    31    35    34    1
    32    35    30    2
    33    27    30    1
    34    27    29    2
    35    34    33    2
    36    30    31    1
    37    33    32    1
    38    31    32    2
