@<TRIPOS>MOLECULE
77910_out_ligand_01.pdbqt
 37 41 0 0 0
SMALL
GASTEIGER

@<TRIPOS>ATOM
      1  C         16.2780  -21.8030   -9.9940 C.3     1  UNL1        0.1210
      2  C         17.6530  -21.7070  -10.6150 C.2     1  UNL1       -0.0480
      3  C         18.1610  -20.4690  -11.0340 C.2     1  UNL1        0.0090
      4  C         19.4510  -20.3750  -11.5610 C.2     1  UNL1        0.0170
      5  C         20.2500  -21.5180  -11.6820 C.2     1  UNL1        0.0320
      6  C         19.7540  -22.7550  -11.2560 C.2     1  UNL1        0.0170
      7  C         18.4620  -22.8480  -10.7310 C.2     1  UNL1        0.0090
      8  C         21.6260  -21.3650  -12.2310 C.2     1  UNL1        0.2510
      9  O         21.7880  -21.0650  -13.4080 O.2     1  UNL1       -0.2680
     10  N         22.6660  -21.6070  -11.3530 N.am    1  UNL1       -0.3570
     11  H         22.4560  -22.1300  -10.5140 H       1  UNL1        0.1620
     12  C         24.0410  -21.6270  -11.8250 C.3     1  UNL1        0.1270
     13  C         24.5160  -23.0520  -12.1040 C.3     1  UNL1        0.0580
     14  C         24.7910  -23.2820  -13.5680 C.2     1  UNL1       -0.0570
     15  C         24.6200  -22.2430  -14.4920 C.2     1  UNL1        0.0070
     16  C         24.8550  -22.4590  -15.8500 C.2     1  UNL1        0.0010
     17  C         25.2620  -23.7140  -16.2970 C.2     1  UNL1        0.0000
     18  C         25.4310  -24.7550  -15.3870 C.2     1  UNL1        0.0010
     19  C         25.1930  -24.5410  -14.0280 C.2     1  UNL1        0.0070
     20  S         15.9010  -23.4900   -9.4340 S.3     1  UNL1       -0.0870
     21  C         16.0680  -23.2760   -7.7230 C.ar    1  UNL1        0.1710
     22  N         15.1810  -22.6530   -6.9760 N.ar    1  UNL1       -0.2210
     23  C         15.6590  -22.7730   -5.6980 C.ar    1  UNL1        0.1050
     24  C         15.1470  -22.3130   -4.4800 C.2     1  UNL1        0.0370
     25  C         16.8410  -23.5030   -5.6740 C.ar    1  UNL1        0.1610
     26  C         15.8670  -22.6290   -3.3260 C.2     1  UNL1        0.0220
     27  C         17.0320  -23.3810   -3.4380 C.2     1  UNL1        0.1190
     28  N         17.5620  -23.8560   -4.5910 N.2     1  UNL1       -0.2410
     29  N         17.1080  -23.7900   -6.9890 N.ar    1  UNL1       -0.3040
     30  C         18.2200  -24.6100   -7.4420 C.3     1  UNL1        0.1740
     31  C         19.4830  -23.8240   -7.6760 C.2     1  UNL1       -0.0010
     32  C         19.6070  -22.5080   -7.2040 C.2     1  UNL1        0.0120
     33  C         20.7740  -21.7750   -7.4340 C.2     1  UNL1        0.0010
     34  C         21.8300  -22.3450   -8.1440 C.2     1  UNL1        0.0030
     35  C         21.7170  -23.6450   -8.6280 C.2     1  UNL1        0.0430
     36  C         20.5510  -24.3700   -8.3950 C.2     1  UNL1        0.1240
     37  F         20.4620  -25.6120   -8.8880 F       1  UNL1       -0.2050
@<TRIPOS>BOND
     1    17    16    2
     2    17    18    1
     3    16    15    1
     4    18    19    2
     5    15    14    2
     6    19    14    1
     7    14    13    1
     8     9     8    2
     9     8     5    1
    10     8    10   am
    11    13    12    1
    12    12    10    1
    13     5     4    2
    14     5     6    1
    15     4     3    1
    16    10    11    1
    17     6     7    2
    18     3     2    2
    19     7     2    1
    20     2     1    1
    21     1    20    1
    22    20    21    1
    23    37    36    1
    24    35    36    1
    25    35    34    2
    26    36    31    2
    27    34    33    1
    28    21    29   ar
    29    21    22   ar
    30    31    30    1
    31    31    32    1
    32    30    29    1
    33    33    32    2
    34    29    25   ar
    35    22    23   ar
    36    23    25   ar
    37    23    24    1
    38    25    28    1
    39    28    27    2
    40    24    26    2
    41    27    26    1
