@<TRIPOS>MOLECULE
77929_out_ligand_01.pdbqt
 30 33 0 0 0
SMALL
GASTEIGER

@<TRIPOS>ATOM
      1  C         21.7180  -22.4200   -9.7580 C.2     1  UNL1        0.0120
      2  C         22.1930  -21.8990   -8.5520 C.2     1  UNL1        0.0160
      3  C         21.3620  -21.8360   -7.4340 C.2     1  UNL1        0.0100
      4  C         20.0360  -22.2970   -7.4930 C.2     1  UNL1       -0.0350
      5  C         19.1940  -22.1980   -6.2500 C.3     1  UNL1        0.0500
      6  C         19.5410  -22.8270   -8.7050 C.2     1  UNL1        0.0410
      7  C         20.3900  -22.8740   -9.8200 C.2     1  UNL1        0.0450
      8  N         18.1990  -23.2770   -8.7480 N.am    1  UNL1       -0.3270
      9  C         17.1180  -22.6830   -9.3810 C.2     1  UNL1        0.2220
     10  O         17.1500  -21.6970  -10.1080 O.2     1  UNL1       -0.2730
     11  H         18.0030  -24.1390   -8.2610 H       1  UNL1        0.1690
     12  C         15.8260  -23.4550   -9.1510 C.3     1  UNL1        0.1080
     13  C         15.9100  -24.3950   -7.9500 C.3     1  UNL1        0.0470
     14  C         15.6460  -23.6750   -6.6480 C.2     1  UNL1       -0.0580
     15  C         14.7640  -22.5860   -6.6040 C.2     1  UNL1        0.0070
     16  C         14.5000  -21.9380   -5.3960 C.2     1  UNL1        0.0010
     17  C         15.1110  -22.3740   -4.2220 C.2     1  UNL1        0.0000
     18  C         15.9860  -23.4580   -4.2540 C.2     1  UNL1        0.0010
     19  C         16.2520  -24.1050   -5.4610 C.2     1  UNL1        0.0070
     20  C         22.5620  -22.4870  -10.9560 C.ar    1  UNL1        0.1390
     21  N         22.4590  -21.7210  -12.0270 N.ar    1  UNL1       -0.2280
     22  C         23.4360  -22.1390  -12.8950 C.ar    1  UNL1        0.0860
     23  C         23.7630  -21.6680  -14.1730 C.2     1  UNL1        0.0340
     24  C         24.1580  -23.1940  -12.3560 C.ar    1  UNL1        0.0630
     25  C         24.8180  -22.2800  -14.8650 C.2     1  UNL1        0.0090
     26  C         25.5460  -23.3370  -14.2970 C.2     1  UNL1       -0.0600
     27  C         26.6480  -23.9920  -15.0820 C.3     1  UNL1        0.0480
     28  C         25.2120  -23.8250  -13.0210 C.2     1  UNL1        0.0380
     29  N         23.5800  -23.4000  -11.1310 N.ar    1  UNL1       -0.3380
     30  H         23.8390  -24.1190  -10.4740 H       1  UNL1        0.1670
@<TRIPOS>BOND
     1    27    26    1
     2    25    26    2
     3    25    23    1
     4    26    28    1
     5    23    22    2
     6    28    24    2
     7    22    24   ar
     8    22    21   ar
     9    24    29   ar
    10    21    20   ar
    11    29    20   ar
    12    29    30    1
    13    20     1    1
    14    10     9    2
    15     7     1    2
    16     7     6    1
    17     1     2    1
    18     9    12    1
    19     9     8   am
    20    12    13    1
    21     8     6    1
    22     8    11    1
    23     6     4    2
    24     2     3    2
    25    13    14    1
    26     4     3    1
    27     4     5    1
    28    14    15    2
    29    14    19    1
    30    15    16    1
    31    19    18    2
    32    16    17    2
    33    18    17    1
