@<TRIPOS>MOLECULE
7794_out_ligand_01.pdbqt
 36 38 0 0 0
SMALL
GASTEIGER

@<TRIPOS>ATOM
      1  C         21.4050  -21.7530  -11.0000 C.2     1  UNL1        0.0330
      2  C         20.7080  -21.0490  -11.9850 C.2     1  UNL1        0.0170
      3  C         19.3140  -20.9600  -11.9280 C.2     1  UNL1        0.0090
      4  C         18.5820  -21.5720  -10.8940 C.2     1  UNL1       -0.0390
      5  C         17.0880  -21.4160  -10.8990 C.3     1  UNL1        0.0500
      6  C         19.2910  -22.2940   -9.9170 C.2     1  UNL1        0.0860
      7  C         20.6940  -22.3930   -9.9820 C.2     1  UNL1        0.0420
      8  C         22.8920  -21.8470  -10.9950 C.2     1  UNL1        0.2520
      9  N         23.4590  -22.5370  -12.0480 N.am    1  UNL1       -0.3480
     10  H         22.8860  -22.6630  -12.8700 H       1  UNL1        0.1630
     11  O         23.5350  -21.2860  -10.1180 O.2     1  UNL1       -0.2680
     12  C         24.8980  -22.5040  -12.2910 C.3     1  UNL1        0.1160
     13  C         25.4550  -23.8800  -12.6730 C.3     1  UNL1        0.0370
     14  C         25.1950  -21.4680  -13.3710 C.2     1  UNL1        0.0000
     15  C         25.9430  -20.3090  -13.0910 C.2     1  UNL1        0.0760
     16  C         26.1730  -19.3750  -14.1060 C.2     1  UNL1        0.0400
     17  C         25.6650  -19.5850  -15.3910 C.2     1  UNL1        0.0390
     18  C         24.9210  -20.7240  -15.6860 C.2     1  UNL1        0.0690
     19  C         24.6820  -21.6540  -14.6760 C.2     1  UNL1        0.0480
     20  O         26.3990  -20.1790  -11.8070 O.2     1  UNL1       -0.3550
     21  C         26.9930  -18.9410  -11.4370 C.3     1  UNL1        0.2100
     22  O         24.4850  -20.8040  -16.9790 O.2     1  UNL1       -0.3560
     23  C         25.2530  -21.6080  -17.8670 C.3     1  UNL1        0.2100
     24  S         18.5160  -23.1220   -8.5360 S.O2    1  UNL1        0.2630
     25  O         19.5830  -23.7100   -7.7530 O.2     1  UNL1       -0.2000
     26  O         17.4000  -23.9250   -8.9780 O.2     1  UNL1       -0.2000
     27  N         17.9270  -21.8250   -7.6200 N.pl3   1  UNL1       -0.2800
     28  H         18.4390  -20.9700   -7.8350 H       1  UNL1        0.1790
     29  C         17.5820  -22.0670   -6.2590 C.2     1  UNL1        0.0490
     30  C         16.4650  -22.8630   -5.9810 C.2     1  UNL1        0.0370
     31  C         16.1100  -23.1640   -4.6610 C.2     1  UNL1       -0.0600
     32  C         14.9300  -24.0430   -4.3750 C.3     1  UNL1        0.0480
     33  C         16.9090  -22.6830   -3.6210 C.2     1  UNL1        0.0070
     34  C         18.0270  -21.8920   -3.8940 C.2     1  UNL1        0.0090
     35  C         18.3750  -21.5700   -5.2150 C.2     1  UNL1       -0.0350
     36  C         19.5980  -20.7350   -5.4710 C.3     1  UNL1        0.0500
@<TRIPOS>BOND
     1    23    22    1
     2    22    18    1
     3    18    17    2
     4    18    19    1
     5    17    16    1
     6    19    14    2
     7    16    15    2
     8    14    15    1
     9    14    12    1
    10    15    20    1
    11    10     9    1
    12    13    12    1
    13    12     9    1
    14     9     8   am
    15     2     3    1
    16     2     1    2
    17     3     4    2
    18    20    21    1
    19     1     8    1
    20     1     7    1
    21     8    11    2
    22     5     4    1
    23     4     6    1
    24     7     6    2
    25     6    24    1
    26    26    24    2
    27    24    25    2
    28    24    27    1
    29    28    27    1
    30    27    29    1
    31    29    30    2
    32    29    35    1
    33    30    31    1
    34    36    35    1
    35    35    34    2
    36    31    32    1
    37    31    33    2
    38    34    33    1
