@<TRIPOS>MOLECULE
77979_out_ligand_01.pdbqt
 33 35 0 0 0
SMALL
GASTEIGER

@<TRIPOS>ATOM
      1  N         17.7580  -22.3260  -10.8580 N.am    1  UNL1       -0.3540
      2  C         18.4070  -21.2940  -11.5240 C.2     1  UNL1        0.2960
      3  O         17.8010  -20.2720  -11.8430 O.2     1  UNL1       -0.2640
      4  H         18.3080  -23.1020  -10.5090 H       1  UNL1        0.1620
      5  C         19.8200  -21.5180  -11.7750 C.2     1  UNL1        0.2640
      6  N         20.6150  -22.3850  -11.1800 N.2     1  UNL1       -0.1990
      7  C         21.8220  -22.1410  -11.7880 C.2     1  UNL1        0.1700
      8  N         21.7790  -21.2310  -12.7700 N.4     1  UNL1       -0.1100
      9  O         20.4560  -20.7920  -12.7440 O.2     1  UNL1       -0.1860
     10  C         23.0360  -22.9100  -11.4620 C.3     1  UNL1        0.2280
     11  S         23.4930  -22.6900   -9.7550 S.O2    1  UNL1        0.1820
     12  O         24.4720  -23.6920   -9.3780 O.2     1  UNL1       -0.2220
     13  O         23.7310  -21.2830   -9.4890 O.2     1  UNL1       -0.2220
     14  C         21.9810  -23.1160   -8.9110 C.2     1  UNL1        0.0590
     15  C         21.4260  -24.3860   -9.0910 C.2     1  UNL1        0.0230
     16  C         20.2430  -24.7150   -8.4290 C.2     1  UNL1        0.0020
     17  C         19.6300  -23.7840   -7.5880 C.2     1  UNL1        0.0000
     18  C         20.2010  -22.5240   -7.3990 C.2     1  UNL1        0.0020
     19  C         21.3820  -22.1850   -8.0560 C.2     1  UNL1        0.0230
     20  C         16.3710  -22.2250  -10.4450 C.3     1  UNL1        0.1270
     21  C         15.8780  -23.4590   -9.6780 C.3     1  UNL1        0.0580
     22  C         16.1120  -23.3600   -8.1880 C.2     1  UNL1       -0.0570
     23  C         16.0440  -24.5050   -7.3800 C.2     1  UNL1        0.0090
     24  C         16.2830  -24.4160   -6.0080 C.2     1  UNL1        0.0250
     25  C         16.5840  -23.1750   -5.4410 C.2     1  UNL1        0.0740
     26  C         16.6690  -22.0280   -6.2320 C.2     1  UNL1        0.0250
     27  C         16.4290  -22.1230   -7.6040 C.2     1  UNL1        0.0090
     28  S         16.8930  -23.0710   -3.6980 S.O2    1  UNL1        0.2390
     29  O         17.9820  -22.1470   -3.4780 O.2     1  UNL1       -0.2060
     30  O         16.8840  -24.4070   -3.1530 O.2     1  UNL1       -0.2060
     31  N         15.5090  -22.2780   -3.1590 N.3     1  UNL1       -0.2250
     32  H         14.9140  -21.9460   -3.9170 H       1  UNL1        0.1360
     33  H         15.7860  -21.5200   -2.5330 H       1  UNL1        0.1360
@<TRIPOS>BOND
     1     8     9    1
     2     8     7    1
     3     9     5    1
     4     3     2    2
     5     7    10    1
     6     7     6    2
     7     5     2    1
     8     5     6    2
     9     2     1   am
    10    10    11    1
    11     1     4    1
    12     1    20    1
    13    20    21    1
    14    11    13    2
    15    11    12    2
    16    11    14    1
    17    21    22    1
    18    15    14    2
    19    15    16    1
    20    14    19    1
    21    16    17    2
    22    22    27    2
    23    22    23    1
    24    19    18    2
    25    27    26    1
    26    17    18    1
    27    23    24    2
    28    26    25    2
    29    24    25    1
    30    25    28    1
    31    32    31    1
    32    28    29    2
    33    28    31    1
    34    28    30    2
    35    31    33    1
