@<TRIPOS>MOLECULE
78005_out_ligand_01.pdbqt
 33 36 0 0 0
SMALL
GASTEIGER

@<TRIPOS>ATOM
      1  C         21.1680  -22.5790  -10.5840 C.ar    1  UNL1        0.1530
      2  N         21.7200  -21.9070  -11.5780 N.ar    1  UNL1       -0.1330
      3  N         20.7310  -21.2010  -12.2220 N.ar    1  UNL1       -0.1280
      4  C         19.5950  -21.4560  -11.6100 C.ar    1  UNL1        0.1740
      5  C         18.2730  -21.0120  -11.8230 C.2     1  UNL1        0.0570
      6  C         17.3020  -21.4540  -11.0140 C.2     1  UNL1        0.0440
      7  C         17.7040  -22.3910   -9.9330 C.2     1  UNL1        0.1140
      8  N         18.8930  -22.8420   -9.6980 N.2     1  UNL1       -0.1580
      9  N         19.8160  -22.3330  -10.5660 N.ar    1  UNL1       -0.1970
     10  C         21.8350  -23.4810   -9.6060 C.3     1  UNL1        0.1030
     11  C         23.2720  -23.0640   -9.2890 C.3     1  UNL1        0.1400
     12  N         24.1820  -23.5290  -10.3470 N.3     1  UNL1       -0.3150
     13  H         23.7560  -24.0970  -11.0870 H       1  UNL1        0.1720
     14  S         25.3310  -22.4620  -10.9440 S.O2    1  UNL1        0.2580
     15  O         26.6380  -22.9410  -10.5490 O.2     1  UNL1       -0.2010
     16  O         24.8720  -21.1310  -10.6190 O.2     1  UNL1       -0.2010
     17  C         25.1420  -22.6780  -12.6930 C.2     1  UNL1        0.0790
     18  C         25.4360  -23.9200  -13.2610 C.2     1  UNL1        0.0260
     19  C         25.2900  -24.0970  -14.6370 C.2     1  UNL1        0.0080
     20  C         24.8570  -23.0390  -15.4490 C.2     1  UNL1       -0.0620
     21  C         24.6670  -23.2480  -16.9220 C.3     1  UNL1        0.0480
     22  C         24.5440  -21.8050  -14.8600 C.2     1  UNL1        0.0080
     23  C         24.6870  -21.6200  -13.4850 C.2     1  UNL1        0.0260
     24  S         16.3760  -22.9030   -8.9240 S.3     1  UNL1       -0.1040
     25  C         17.2960  -23.8260   -7.6540 C.3     1  UNL1        0.1240
     26  C         17.1600  -23.2350   -6.2740 C.2     1  UNL1        0.0120
     27  C         16.0300  -23.5420   -5.5050 C.2     1  UNL1        0.1250
     28  F         15.0750  -24.3370   -6.0090 F       1  UNL1       -0.2050
     29  C         15.8550  -23.0430   -4.2180 C.2     1  UNL1        0.0430
     30  C         16.8190  -22.2080   -3.6650 C.2     1  UNL1        0.0050
     31  C         17.9510  -21.8790   -4.4090 C.2     1  UNL1        0.0240
     32  C         18.1220  -22.3870   -5.7030 C.2     1  UNL1        0.0440
     33 CL         19.5460  -21.9100   -6.5570 Cl      1  UNL1       -0.0840
@<TRIPOS>BOND
     1    21    20    1
     2    20    22    2
     3    20    19    1
     4    22    23    1
     5    19    18    2
     6    23    17    2
     7    18    17    1
     8    17    14    1
     9     3     4   ar
    10     3     2   ar
    11     5     4    1
    12     5     6    2
    13     4     9   ar
    14     2     1   ar
    15    13    12    1
    16     6     7    1
    17    14    16    2
    18    14    15    2
    19    14    12    1
    20     1     9   ar
    21     1    10    1
    22     9     8    1
    23    12    11    1
    24     7     8    2
    25     7    24    1
    26    10    11    1
    27    24    25    1
    28    25    26    1
    29    33    32    1
    30    26    32    2
    31    26    27    1
    32    28    27    1
    33    32    31    1
    34    27    29    2
    35    31    30    2
    36    29    30    1
