@<TRIPOS>MOLECULE
7801_out_ligand_01.pdbqt
 36 39 0 0 0
SMALL
GASTEIGER

@<TRIPOS>ATOM
      1  C         22.8420  -22.5730  -11.6890 C.2     1  UNL1        0.0290
      2  C         22.2780  -22.9160  -10.4560 C.2     1  UNL1        0.0420
      3  C         20.9970  -22.4660  -10.1000 C.2     1  UNL1        0.0330
      4  C         20.2970  -21.6490  -10.9940 C.2     1  UNL1        0.0170
      5  C         20.8630  -21.3080  -12.2290 C.2     1  UNL1        0.0090
      6  C         22.1370  -21.7730  -12.5960 C.2     1  UNL1       -0.0400
      7  C         22.7070  -21.3650  -13.9220 C.3     1  UNL1        0.0500
      8  C         20.4670  -22.8870   -8.7660 C.2     1  UNL1        0.2510
      9  O         21.0730  -22.5790   -7.7450 O.2     1  UNL1       -0.2680
     10  N         19.3110  -23.6410   -8.7380 N.am    1  UNL1       -0.3560
     11  H         18.9160  -24.0100   -9.5960 H       1  UNL1        0.1620
     12  C         18.7600  -24.1160   -7.4840 C.3     1  UNL1        0.1370
     13  C         17.4620  -23.3930   -6.9920 C.3     1  UNL1        0.0070
     14  C         17.0140  -22.3260   -8.0300 C.3     1  UNL1        0.0420
     15  C         16.4340  -22.8970   -9.3260 C.3     1  UNL1        0.1680
     16  O         15.9830  -24.2480   -9.1900 O.3     1  UNL1       -0.3910
     17  C         15.3000  -24.4440   -7.9600 C.3     1  UNL1        0.1680
     18  C         16.2860  -24.4030   -6.7950 C.3     1  UNL1        0.0420
     19  C         17.8280  -22.7610   -5.6210 C.2     1  UNL1       -0.0480
     20  C         17.4540  -23.3410   -4.3950 C.2     1  UNL1        0.0080
     21  C         17.7810  -22.7360   -3.1760 C.2     1  UNL1        0.0010
     22  C         18.4800  -21.5330   -3.1540 C.2     1  UNL1        0.0000
     23  C         18.8460  -20.9290   -4.3510 C.2     1  UNL1        0.0010
     24  C         18.5190  -21.5310   -5.5700 C.2     1  UNL1        0.0080
     25  N         24.1710  -23.0180  -11.9830 N.pl3   1  UNL1       -0.1810
     26  H         24.3700  -23.9550  -11.6260 H       1  UNL1        0.1460
     27  S         25.4380  -22.0070  -11.4580 S.O2    1  UNL1        0.2450
     28  O         24.9360  -20.9750  -10.5790 O.2     1  UNL1       -0.2060
     29  O         26.5070  -22.8960  -11.0560 O.2     1  UNL1       -0.2060
     30  C         25.9380  -21.2450  -12.9820 C.2     1  UNL1        0.0740
     31  C         25.9560  -19.8500  -13.0700 C.2     1  UNL1        0.0250
     32  C         26.3350  -19.2400  -14.2670 C.2     1  UNL1        0.0080
     33  C         26.6790  -20.0170  -15.3830 C.2     1  UNL1       -0.0620
     34  C         27.1210  -19.3570  -16.6570 C.3     1  UNL1        0.0480
     35  C         26.6560  -21.4160  -15.2810 C.2     1  UNL1        0.0080
     36  C         26.2740  -22.0320  -14.0860 C.2     1  UNL1        0.0250
@<TRIPOS>BOND
     1    34    33    1
     2    33    35    2
     3    33    32    1
     4    35    36    1
     5    32    31    2
     6    36    30    2
     7     7     6    1
     8    31    30    1
     9    30    27    1
    10     6     5    1
    11     6     1    2
    12     5     4    2
    13    25     1    1
    14    25    26    1
    15    25    27    1
    16     1     2    1
    17    27    29    2
    18    27    28    2
    19     4     3    1
    20     2     3    2
    21     3     8    1
    22    11    10    1
    23    15    16    1
    24    15    14    1
    25    16    17    1
    26     8    10   am
    27     8     9    2
    28    10    12    1
    29    14    13    1
    30    17    18    1
    31    12    13    1
    32    13    18    1
    33    13    19    1
    34    19    24    2
    35    19    20    1
    36    24    23    1
    37    20    21    2
    38    23    22    2
    39    21    22    1
