@<TRIPOS>MOLECULE
78025_out_ligand_01.pdbqt
 35 39 0 0 0
SMALL
GASTEIGER

@<TRIPOS>ATOM
      1  C         20.8540  -22.5440  -10.4330 C.ar    1  UNL1        0.1530
      2  N         21.4540  -21.7980  -11.3420 N.ar    1  UNL1       -0.1330
      3  N         20.4930  -21.0560  -11.9910 N.ar    1  UNL1       -0.1280
      4  C         19.3290  -21.3570  -11.4600 C.ar    1  UNL1        0.1740
      5  C         18.0150  -20.9090  -11.7130 C.2     1  UNL1        0.0570
      6  C         17.0040  -21.4070  -10.9870 C.2     1  UNL1        0.0440
      7  C         17.3590  -22.4040   -9.9430 C.2     1  UNL1        0.1140
      8  N         18.5410  -22.8540   -9.6670 N.2     1  UNL1       -0.1580
      9  N         19.5020  -22.2980  -10.4630 N.ar    1  UNL1       -0.1970
     10  C         21.4890  -23.5180   -9.5040 C.3     1  UNL1        0.1030
     11  C         22.9510  -23.1720   -9.2120 C.3     1  UNL1        0.1400
     12  N         23.8010  -23.5670  -10.3440 N.3     1  UNL1       -0.3150
     13  H         23.3560  -24.0900  -11.1010 H       1  UNL1        0.1720
     14  S         25.0340  -22.5510  -10.8550 S.O2    1  UNL1        0.2580
     15  O         26.2780  -23.1810  -10.4720 O.2     1  UNL1       -0.2010
     16  O         24.6960  -21.2080  -10.4370 O.2     1  UNL1       -0.2010
     17  C         24.9020  -22.6370  -12.6230 C.2     1  UNL1        0.0790
     18  C         24.3630  -21.5670  -13.3380 C.2     1  UNL1        0.0260
     19  C         24.2810  -21.6390  -14.7300 C.2     1  UNL1        0.0080
     20  C         24.7300  -22.7810  -15.4100 C.2     1  UNL1       -0.0620
     21  C         24.6880  -22.8410  -16.9100 C.3     1  UNL1        0.0480
     22  C         25.2930  -23.8380  -14.6800 C.2     1  UNL1        0.0080
     23  C         25.3780  -23.7720  -13.2880 C.2     1  UNL1        0.0260
     24  S         15.9950  -22.9960   -9.0290 S.3     1  UNL1       -0.1040
     25  C         16.8900  -24.0260   -7.8240 C.3     1  UNL1        0.1200
     26  C         16.6970  -23.5420   -6.3990 C.2     1  UNL1       -0.0370
     27  C         15.5900  -24.0540   -5.6910 C.2     1  UNL1        0.0090
     28  C         15.3130  -23.6340   -4.3970 C.2     1  UNL1        0.0010
     29  C         16.1300  -22.6890   -3.7890 C.2     1  UNL1        0.0120
     30  C         17.2390  -22.1540   -4.4600 C.2     1  UNL1       -0.0250
     31  C         18.0390  -21.1920   -3.8210 C.2     1  UNL1        0.0120
     32  C         17.5490  -22.5820   -5.7780 C.2     1  UNL1       -0.0190
     33  C         19.1480  -20.6410   -4.4590 C.2     1  UNL1        0.0010
     34  C         19.4780  -21.0530   -5.7410 C.2     1  UNL1        0.0010
     35  C         18.6950  -22.0130   -6.3850 C.2     1  UNL1        0.0130
@<TRIPOS>BOND
     1    21    20    1
     2    20    19    2
     3    20    22    1
     4    19    18    1
     5    22    23    2
     6    18    17    2
     7    23    17    1
     8    17    14    1
     9     3     4   ar
    10     3     2   ar
    11     5     4    1
    12     5     6    2
    13     4     9   ar
    14     2     1   ar
    15    13    12    1
    16     6     7    1
    17    14    15    2
    18    14    16    2
    19    14    12    1
    20     9     1   ar
    21     9     8    1
    22     1    10    1
    23    12    11    1
    24     7     8    2
    25     7    24    1
    26    10    11    1
    27    24    25    1
    28    25    26    1
    29    26    32    2
    30    26    27    1
    31    35    32    1
    32    35    34    2
    33    32    30    1
    34    34    33    1
    35    27    28    2
    36    30    31    1
    37    30    29    2
    38    33    31    2
    39    28    29    1
