@<TRIPOS>MOLECULE
78033_out_ligand_01.pdbqt
 40 43 0 0 0
SMALL
GASTEIGER

@<TRIPOS>ATOM
      1  C         21.9950  -21.8100  -10.7530 C.2     1  UNL1        0.0980
      2  C         21.4930  -20.9130  -11.6200 C.2     1  UNL1        0.1090
      3  N         20.1610  -20.6510  -11.8090 N.pl3   1  UNL1       -0.3640
      4  C         19.1800  -21.3720  -11.1190 C.2     1  UNL1        0.0460
      5  C         17.8200  -21.1340  -11.3370 C.2     1  UNL1        0.0320
      6  C         16.8550  -21.8630  -10.6350 C.2     1  UNL1        0.0270
      7  C         17.2540  -22.8230   -9.6990 C.2     1  UNL1        0.0810
      8  C         18.6070  -23.0790   -9.4690 C.2     1  UNL1        0.0430
      9  C         19.5620  -22.3420  -10.1750 C.2     1  UNL1        0.0430
     10  C         21.0110  -22.5850   -9.9410 C.2     1  UNL1        0.2010
     11  O         21.3700  -23.4080   -9.1030 O.2     1  UNL1       -0.2860
     12  H         19.8890  -20.0070  -12.5460 H       1  UNL1        0.1650
     13  S         16.0340  -23.7610   -8.8100 S.O2    1  UNL1        0.2630
     14  O         16.7440  -24.6520   -7.9170 O.2     1  UNL1       -0.2000
     15  O         15.0730  -24.2650   -9.7650 O.2     1  UNL1       -0.2000
     16  N         15.3010  -22.5950   -7.8370 N.pl3   1  UNL1       -0.2810
     17  H         14.3170  -22.4590   -8.0690 H       1  UNL1        0.1790
     18  C         15.6950  -22.4600   -6.4800 C.2     1  UNL1        0.0430
     19  C         14.8480  -22.9360   -5.4810 C.2     1  UNL1        0.0300
     20  C         15.2290  -22.8410   -4.1420 C.2     1  UNL1        0.0030
     21  C         16.4560  -22.2710   -3.8020 C.2     1  UNL1        0.0160
     22  C         17.3110  -21.7790   -4.7980 C.2     1  UNL1        0.0500
     23  C         16.9190  -21.8820   -6.1420 C.2     1  UNL1        0.0460
     24  C         18.6460  -21.1700   -4.4530 C.3     1  UNL1        0.4170
     25  F         19.0880  -21.5610   -3.2270 F       1  UNL1       -0.1660
     26  F         18.6250  -19.8090   -4.4240 F       1  UNL1       -0.1660
     27  F         19.6260  -21.5100   -5.3350 F       1  UNL1       -0.1660
     28  C         23.4740  -21.9740  -10.6730 C.2     1  UNL1        0.2570
     29  N         23.9660  -23.1200  -11.2400 N.am    1  UNL1       -0.3560
     30  H         23.3130  -23.7550  -11.7020 H       1  UNL1        0.1620
     31  O         24.1890  -21.1300  -10.1430 O.2     1  UNL1       -0.2670
     32  C         25.3850  -23.3990  -11.3310 C.3     1  UNL1        0.1270
     33  C         26.0720  -22.5200  -12.3770 C.3     1  UNL1        0.0580
     34  C         25.5300  -22.7650  -13.7630 C.2     1  UNL1       -0.0570
     35  C         24.9650  -21.7160  -14.4960 C.2     1  UNL1        0.0070
     36  C         24.4720  -21.9370  -15.7840 C.2     1  UNL1        0.0070
     37  C         24.5300  -23.2110  -16.3580 C.2     1  UNL1       -0.0620
     38  C         24.0180  -23.4340  -17.7500 C.3     1  UNL1        0.0480
     39  C         25.1090  -24.2570  -15.6310 C.2     1  UNL1        0.0070
     40  C         25.6020  -24.0370  -14.3430 C.2     1  UNL1        0.0070
@<TRIPOS>BOND
     1    38    37    1
     2    37    36    2
     3    37    39    1
     4    36    35    1
     5    39    40    2
     6    35    34    2
     7    40    34    1
     8    34    33    1
     9    12     3    1
    10    33    32    1
    11     3     2    1
    12     3     4    1
    13    30    29    1
    14     2     1    2
    15     5     4    2
    16     5     6    1
    17    32    29    1
    18    29    28   am
    19     4     9    1
    20     1    28    1
    21     1    10    1
    22    28    31    2
    23     6     7    2
    24     9    10    1
    25     9     8    2
    26    10    11    2
    27    15    13    2
    28     7     8    1
    29     7    13    1
    30    13    14    2
    31    13    16    1
    32    17    16    1
    33    16    18    1
    34    18    23    2
    35    18    19    1
    36    23    22    1
    37    19    20    2
    38    27    24    1
    39    22    24    1
    40    22    21    2
    41    24    26    1
    42    24    25    1
    43    20    21    1
