@<TRIPOS>MOLECULE
78042_out_ligand_01.pdbqt
 30 33 0 0 0
SMALL
GASTEIGER

@<TRIPOS>ATOM
      1  C         21.4200  -21.8280  -10.6630 C.2     1  UNL1        0.0340
      2  C         20.9410  -21.1680  -11.7910 C.2     1  UNL1        0.0180
      3  C         19.5670  -21.0850  -11.9990 C.2     1  UNL1        0.0220
      4  C         18.6600  -21.6680  -11.0940 C.2     1  UNL1        0.0270
      5  C         19.1200  -22.3650   -9.9450 C.2     1  UNL1        0.0480
      6  C         20.5170  -22.4280   -9.7660 C.2     1  UNL1        0.0470
      7  N         18.2310  -22.9890   -9.0480 N.pl3   1  UNL1       -0.3750
      8  C         16.9300  -22.3120   -8.9170 C.3     1  UNL1        0.1340
      9  C         16.1450  -22.4250  -10.2150 C.3     1  UNL1        0.0990
     10  S         16.9260  -21.4440  -11.5240 S.3     1  UNL1       -0.1260
     11  C         22.8770  -21.9440  -10.3780 C.2     1  UNL1        0.2520
     12  O         23.3640  -21.3880   -9.4000 O.2     1  UNL1       -0.2680
     13  N         23.6230  -22.6610  -11.2850 N.am    1  UNL1       -0.3530
     14  H         23.2270  -22.9040  -12.1830 H       1  UNL1        0.1630
     15  C         25.0530  -22.7870  -11.1210 C.3     1  UNL1        0.1620
     16  C         25.7860  -21.7030  -11.8680 C.2     1  UNL1       -0.0230
     17  C         26.0880  -20.5060  -11.1940 C.2     1  UNL1        0.0100
     18  C         26.7500  -19.4620  -11.8430 C.2     1  UNL1        0.0010
     19  C         27.1170  -19.5950  -13.1780 C.2     1  UNL1        0.0010
     20  C         26.8180  -20.7690  -13.8660 C.2     1  UNL1        0.0190
     21  C         26.1530  -21.8170  -13.2190 C.2     1  UNL1        0.0180
     22 BR         25.7680  -23.3660  -14.2490 Br      1  UNL1       -0.0510
     23  C         18.7220  -23.7380   -7.8830 C.3     1  UNL1        0.1610
     24  C         18.6340  -22.9230   -6.6050 C.2     1  UNL1       -0.0400
     25  C         17.7830  -23.3170   -5.5610 C.2     1  UNL1        0.0120
     26  C         17.7000  -22.5550   -4.3940 C.2     1  UNL1        0.0430
     27  C         18.4590  -21.3970   -4.2740 C.2     1  UNL1        0.1160
     28  F         18.3780  -20.6680   -3.1530 F       1  UNL1       -0.2060
     29  C         19.3020  -20.9830   -5.2980 C.2     1  UNL1        0.0430
     30  C         19.3870  -21.7430   -6.4660 C.2     1  UNL1        0.0120
@<TRIPOS>BOND
     1    22    21    1
     2    20    21    1
     3    20    19    2
     4    21    16    2
     5    19    18    1
     6    14    13    1
     7     3     2    1
     8     3     4    2
     9    16    17    1
    10    16    15    1
    11    18    17    2
    12     2     1    2
    13    10     4    1
    14    10     9    1
    15    13    15    1
    16    13    11   am
    17     4     5    1
    18     1    11    1
    19     1     6    1
    20    11    12    2
    21     9     8    1
    22     5     6    2
    23     5     7    1
    24     7     8    1
    25     7    23    1
    26    23    24    1
    27    24    30    2
    28    24    25    1
    29    30    29    1
    30    25    26    2
    31    29    27    2
    32    26    27    1
    33    27    28    1
