@<TRIPOS>MOLECULE
78088_out_ligand_01.pdbqt
 30 32 0 0 0
SMALL
GASTEIGER

@<TRIPOS>ATOM
      1  C         18.9820  -21.6500  -11.0350 C.2     1  UNL1        0.2510
      2  O         18.6990  -20.5490  -11.4910 O.2     1  UNL1       -0.2680
      3  N         18.0450  -22.5160  -10.5040 N.am    1  UNL1       -0.3570
      4  H         18.3860  -23.2270   -9.8700 H       1  UNL1        0.1620
      5  C         16.6690  -22.0880  -10.3170 C.3     1  UNL1        0.1270
      6  C         15.7950  -23.1770   -9.6890 C.3     1  UNL1        0.0580
      7  C         15.9470  -23.2820   -8.1870 C.2     1  UNL1       -0.0570
      8  C         16.7760  -24.2660   -7.6280 C.2     1  UNL1        0.0090
      9  C         16.9370  -24.3520   -6.2450 C.2     1  UNL1        0.0250
     10  C         16.2600  -23.4550   -5.4160 C.2     1  UNL1        0.0740
     11  C         15.4380  -22.4640   -5.9560 C.2     1  UNL1        0.0250
     12  C         15.2810  -22.3830   -7.3400 C.2     1  UNL1        0.0090
     13  S         16.4780  -23.5650   -3.6600 S.O2    1  UNL1        0.2390
     14  O         15.5860  -24.5810   -3.1550 O.2     1  UNL1       -0.2060
     15  O         17.8940  -23.5580   -3.3700 O.2     1  UNL1       -0.2060
     16  N         15.9040  -22.0660   -3.1540 N.3     1  UNL1       -0.2250
     17  H         15.3040  -22.2020   -2.3380 H       1  UNL1        0.1360
     18  H         16.6460  -21.3910   -2.9710 H       1  UNL1        0.1360
     19  C         20.4000  -22.1090  -10.9880 C.2     1  UNL1        0.0330
     20  C         20.8910  -22.8820   -9.9300 C.2     1  UNL1        0.0190
     21  C         22.2280  -23.2950   -9.8990 C.2     1  UNL1        0.0310
     22  C         23.0490  -22.9160  -10.9670 C.ar    1  UNL1        0.0430
     23  N         24.3790  -23.1770  -11.1960 N.ar    1  UNL1       -0.3590
     24  C         22.5900  -22.1630  -12.0450 C.ar    1  UNL1       -0.0010
     25  C         24.7850  -22.6180  -12.3820 C.ar    1  UNL1        0.0120
     26  H         24.9690  -23.7110  -10.5730 H       1  UNL1        0.1660
     27  C         26.1830  -22.7550  -12.8660 C.3     1  UNL1        0.0680
     28  C         23.6910  -21.9760  -12.9410 C.ar    1  UNL1       -0.0270
     29  C         23.6470  -21.2300  -14.2280 C.3     1  UNL1        0.0510
     30  C         21.2400  -21.7580  -12.0570 C.2     1  UNL1        0.0310
@<TRIPOS>BOND
     1    29    28    1
     2    28    25   ar
     3    28    24   ar
     4    27    25    1
     5    25    23   ar
     6    30    24    1
     7    30    19    2
     8    24    22   ar
     9     2     1    2
    10    23    22   ar
    11    23    26    1
    12     1    19    1
    13     1     3   am
    14    19    20    1
    15    22    21    1
    16     3     5    1
    17     3     4    1
    18     5     6    1
    19    20    21    2
    20     6     7    1
    21     7     8    2
    22     7    12    1
    23     8     9    1
    24    12    11    2
    25     9    10    2
    26    11    10    1
    27    10    13    1
    28    13    15    2
    29    13    14    2
    30    13    16    1
    31    16    18    1
    32    16    17    1
