@<TRIPOS>MOLECULE
780_out_ligand_01.pdbqt
 34 36 0 0 0
SMALL
GASTEIGER

@<TRIPOS>ATOM
      1  C         20.8810  -22.7130   -9.8920 C.2     1  UNL1        0.0340
      2  C         20.2630  -21.9440  -10.8890 C.2     1  UNL1        0.0170
      3  C         20.9610  -21.6340  -12.0570 C.2     1  UNL1        0.0030
      4  C         22.2650  -22.0990  -12.2350 C.2     1  UNL1        0.0240
      5  C         22.8630  -22.8920  -11.2560 C.2     1  UNL1        0.0230
      6  C         22.1820  -23.1940  -10.0780 C.2     1  UNL1        0.0410
      7  C         20.1720  -23.0620   -8.6310 C.2     1  UNL1        0.2560
      8  O         20.2330  -24.2210   -8.2430 O.2     1  UNL1       -0.2670
      9  N         19.5390  -22.0010   -8.0110 N.am    1  UNL1       -0.3230
     10  H         19.7030  -21.0820   -8.4010 H       1  UNL1        0.1690
     11  C         18.7630  -22.0410   -6.8330 C.2     1  UNL1        0.0350
     12  C         19.1410  -21.4480   -5.6290 C.2     1  UNL1        0.0290
     13  C         18.3160  -21.5350   -4.5040 C.2     1  UNL1        0.0030
     14  C         17.1050  -22.2210   -4.5720 C.2     1  UNL1        0.0160
     15  C         16.7100  -22.8360   -5.7670 C.2     1  UNL1        0.0500
     16  C         17.5450  -22.7330   -6.8940 C.2     1  UNL1        0.0450
     17  C         15.3930  -23.5650   -5.8590 C.3     1  UNL1        0.4170
     18  F         14.3200  -22.7290   -5.9370 F       1  UNL1       -0.1660
     19  F         15.1570  -24.3710   -4.7850 F       1  UNL1       -0.1660
     20  F         15.3220  -24.3710   -6.9530 F       1  UNL1       -0.1660
     21  N         24.2200  -23.3210  -11.4370 N.pl3   1  UNL1       -0.1810
     22  H         24.4410  -24.0810  -10.7880 H       1  UNL1        0.1460
     23  S         25.3830  -22.1020  -11.1470 S.O2    1  UNL1        0.2500
     24  O         26.5400  -22.8590  -10.7200 O.2     1  UNL1       -0.2050
     25  O         24.8160  -21.0390  -10.3480 O.2     1  UNL1       -0.2050
     26  C         25.7130  -21.4150  -12.7370 C.2     1  UNL1        0.1300
     27  C         26.0330  -20.0590  -12.8290 C.2     1  UNL1        0.1430
     28  F         26.1610  -19.2880  -11.7420 F       1  UNL1       -0.2040
     29  C         26.2670  -19.4550  -14.0610 C.2     1  UNL1        0.0860
     30  C         26.1960  -20.2200  -15.2120 C.2     1  UNL1        0.1200
     31  F         26.4220  -19.6490  -16.4010 F       1  UNL1       -0.2060
     32  C         25.9140  -21.5790  -15.1460 C.2     1  UNL1        0.0630
     33  C         25.6810  -22.1870  -13.9060 C.2     1  UNL1        0.0390
     34 BR         25.4290  -24.0690  -13.9560 Br      1  UNL1       -0.0490
@<TRIPOS>BOND
     1    31    30    1
     2    30    32    2
     3    30    29    1
     4    32    33    1
     5    29    27    2
     6    34    33    1
     7    33    26    2
     8    27    26    1
     9    27    28    1
    10    26    23    1
    11     4     3    2
    12     4     5    1
    13     3     2    1
    14    21     5    1
    15    21    23    1
    16    21    22    1
    17     5     6    2
    18    23    24    2
    19    23    25    2
    20     2     1    2
    21     6     1    1
    22     1     7    1
    23     7     8    2
    24     7     9   am
    25    10     9    1
    26     9    11    1
    27    20    17    1
    28    16    11    2
    29    16    15    1
    30    11    12    1
    31    18    17    1
    32    17    15    1
    33    17    19    1
    34    15    14    2
    35    12    13    2
    36    14    13    1
