@<TRIPOS>MOLECULE
78122_out_ligand_01.pdbqt
 28 30 0 0 0
SMALL
GASTEIGER

@<TRIPOS>ATOM
      1  C         22.4890  -21.7500  -12.6510 C.2     1  UNL1        0.0320
      2  C         22.8550  -22.4900  -11.5280 C.2     1  UNL1        0.0190
      3  C         21.9160  -22.7550  -10.5210 C.2     1  UNL1        0.0310
      4  C         20.5860  -22.3150  -10.6130 C.2     1  UNL1        0.0430
      5  C         20.2180  -21.5860  -11.7650 C.2     1  UNL1       -0.0300
      6  C         21.1700  -21.3060  -12.7670 C.2     1  UNL1        0.0260
      7  C         18.8240  -21.0520  -11.9620 C.3     1  UNL1        0.0420
      8  C         17.8270  -21.8310  -11.1310 C.3     1  UNL1        0.0250
      9  C         18.3170  -21.8890   -9.6960 C.3     1  UNL1        0.1330
     10  N         19.6210  -22.5550   -9.5670 N.am    1  UNL1       -0.3130
     11  C         19.8800  -23.4060   -8.4740 C.2     1  UNL1        0.2580
     12  O         20.7420  -24.2800   -8.4200 O.2     1  UNL1       -0.2670
     13  C         23.4470  -21.4280  -13.7460 C.2     1  UNL1        0.2510
     14  N         24.6990  -22.0010  -13.6590 N.am    1  UNL1       -0.3570
     15  H         24.9760  -22.4550  -12.7990 H       1  UNL1        0.1620
     16  O         23.1160  -20.6620  -14.6440 O.2     1  UNL1       -0.2680
     17  C         25.7400  -21.6900  -14.6180 C.3     1  UNL1        0.1230
     18  C         26.8900  -20.9230  -13.9680 C.3     1  UNL1        0.0200
     19  C         26.3870  -19.6540  -13.2770 C.3     1  UNL1        0.0010
     20  C         26.7640  -19.5800  -11.7960 C.3     1  UNL1       -0.0040
     21  C         26.0710  -20.6290  -10.9400 C.3     1  UNL1        0.0050
     22  C         19.0390  -23.2640   -7.2600 C.2     1  UNL1        0.0320
     23  C         19.1480  -22.1030   -6.4910 C.2     1  UNL1        0.0170
     24  C         18.3500  -21.9490   -5.3550 C.2     1  UNL1        0.0070
     25  C         17.4390  -22.9470   -4.9860 C.2     1  UNL1       -0.0620
     26  C         16.5560  -22.7600   -3.7870 C.3     1  UNL1        0.0480
     27  C         17.3100  -24.0900   -5.7880 C.2     1  UNL1        0.0070
     28  C         18.1050  -24.2490   -6.9250 C.2     1  UNL1        0.0170
@<TRIPOS>BOND
     1    16    13    2
     2    17    18    1
     3    17    14    1
     4    18    19    1
     5    13    14   am
     6    13     1    1
     7    14    15    1
     8    19    20    1
     9     6     1    2
    10     6     5    1
    11     1     2    1
    12     7     5    1
    13     7     8    1
    14    20    21    1
    15     5     4    2
    16     2     3    2
    17     8     9    1
    18     4     3    1
    19     4    10    1
    20     9    10    1
    21    10    11   am
    22    11    12    2
    23    11    22    1
    24    22    28    2
    25    22    23    1
    26    28    27    1
    27    23    24    2
    28    27    25    2
    29    24    25    1
    30    25    26    1
