@<TRIPOS>MOLECULE
78129_out_ligand_01.pdbqt
 31 34 0 0 0
SMALL
GASTEIGER

@<TRIPOS>ATOM
      1  C         21.9420  -21.6460  -12.3060 C.2     1  UNL1        0.0320
      2  C         20.6120  -21.2280  -12.3340 C.2     1  UNL1        0.0190
      3  C         19.6970  -21.7250  -11.3970 C.2     1  UNL1        0.0310
      4  C         20.0780  -22.6540  -10.4150 C.2     1  UNL1        0.0430
      5  C         21.4300  -23.0640  -10.3880 C.2     1  UNL1       -0.0300
      6  C         22.3500  -22.5470  -11.3200 C.2     1  UNL1        0.0260
      7  C         21.9520  -24.0260   -9.3540 C.3     1  UNL1        0.0420
      8  C         20.8290  -24.8580   -8.7720 C.3     1  UNL1        0.0250
      9  C         19.7110  -23.9360   -8.3200 C.3     1  UNL1        0.1330
     10  N         19.1500  -23.1430   -9.4250 N.am    1  UNL1       -0.3130
     11  C         17.7660  -22.9100   -9.5040 C.2     1  UNL1        0.2580
     12  O         17.1300  -22.6220  -10.5170 O.2     1  UNL1       -0.2670
     13  C         22.9510  -21.1360  -13.2740 C.2     1  UNL1        0.2510
     14  O         22.5890  -20.5910  -14.3110 O.2     1  UNL1       -0.2680
     15  N         24.2740  -21.2810  -12.9020 N.am    1  UNL1       -0.3570
     16  H         24.4600  -21.4230  -11.9190 H       1  UNL1        0.1620
     17  C         25.3280  -20.6690  -13.6940 C.3     1  UNL1        0.1270
     18  C         26.1340  -21.7160  -14.4590 C.3     1  UNL1        0.0580
     19  C         25.4720  -22.1100  -15.7540 C.2     1  UNL1       -0.0570
     20  C         25.5410  -21.2690  -16.8730 C.2     1  UNL1        0.0070
     21  C         24.9150  -21.6290  -18.0670 C.2     1  UNL1        0.0010
     22  C         24.2110  -22.8290  -18.1530 C.2     1  UNL1        0.0000
     23  C         24.1330  -23.6700  -17.0450 C.2     1  UNL1        0.0010
     24  C         24.7560  -23.3120  -15.8490 C.2     1  UNL1        0.0070
     25  C         16.9660  -23.0240   -8.2590 C.2     1  UNL1        0.0320
     26  C         16.8900  -21.9470   -7.3650 C.2     1  UNL1        0.0200
     27  C         16.1260  -22.0690   -6.2050 C.2     1  UNL1        0.0430
     28  C         15.4370  -23.2540   -5.9570 C.2     1  UNL1        0.1160
     29  F         14.7120  -23.3710   -4.8380 F       1  UNL1       -0.2060
     30  C         15.4890  -24.3180   -6.8520 C.2     1  UNL1        0.0430
     31  C         16.2510  -24.2030   -8.0150 C.2     1  UNL1        0.0200
@<TRIPOS>BOND
     1    22    21    2
     2    22    23    1
     3    21    20    1
     4    23    24    2
     5    20    19    2
     6    24    19    1
     7    19    18    1
     8    18    17    1
     9    14    13    2
    10    17    15    1
    11    13    15   am
    12    13     1    1
    13    15    16    1
    14     2     1    2
    15     2     3    1
    16     1     6    1
    17     3     4    2
    18     6     5    2
    19    12    11    2
    20     4     5    1
    21     4    10    1
    22     5     7    1
    23    11    10   am
    24    11    25    1
    25    10     9    1
    26     7     8    1
    27     8     9    1
    28    25    31    2
    29    25    26    1
    30    31    30    1
    31    26    27    2
    32    30    28    2
    33    27    28    1
    34    28    29    1
