@<TRIPOS>MOLECULE
78125_out_ligand_01.pdbqt
 30 32 0 0 0
SMALL
GASTEIGER

@<TRIPOS>ATOM
      1  C         15.8930  -22.5390   -9.5580 C.3     1  UNL1        0.0500
      2  C         17.2770  -22.2360  -10.0590 C.2     1  UNL1       -0.0390
      3  C         17.4130  -21.4070  -11.1830 C.2     1  UNL1        0.0090
      4  C         18.6730  -21.0720  -11.6870 C.2     1  UNL1        0.0120
      5  C         19.8370  -21.5370  -11.0690 C.2     1  UNL1       -0.0350
      6  C         19.7170  -22.3670   -9.9500 C.2     1  UNL1        0.0370
      7  C         18.4500  -22.7140   -9.4460 C.2     1  UNL1        0.0860
      8  S         18.4060  -23.7720   -8.0090 S.O2    1  UNL1        0.2630
      9  O         19.6750  -24.4610   -7.9200 O.2     1  UNL1       -0.2000
     10  O         17.1650  -24.5200   -8.0110 O.2     1  UNL1       -0.2000
     11  N         18.3710  -22.6660   -6.7250 N.pl3   1  UNL1       -0.2810
     12  H         19.2990  -22.5780   -6.3120 H       1  UNL1        0.1790
     13  C         17.2590  -22.7200   -5.8370 C.2     1  UNL1        0.0440
     14  C         17.3980  -23.3420   -4.5950 C.2     1  UNL1        0.0300
     15  C         16.3280  -23.3600   -3.7020 C.2     1  UNL1        0.0040
     16  C         15.1230  -22.7480   -4.0480 C.2     1  UNL1        0.0240
     17  C         14.9960  -22.1190   -5.2870 C.2     1  UNL1        0.0360
     18 CL         13.5090  -21.3620   -5.7080 Cl      1  UNL1       -0.0840
     19  C         16.0620  -22.0980   -6.1840 C.2     1  UNL1        0.0540
     20  C         21.1400  -21.1830  -11.6510 C.2     1  UNL1        0.0140
     21  C         21.6470  -21.7570  -12.7540 C.2     1  UNL1        0.0430
     22  C         22.9270  -21.3710  -13.2610 C.ar    1  UNL1        0.1360
     23  O         23.0930  -20.8510  -14.5310 O.2     1  UNL1       -0.2110
     24  N         24.4070  -20.5390  -14.7790 N.ar    1  UNL1       -0.1300
     25  C         25.0770  -20.8620  -13.6710 C.ar    1  UNL1        0.0940
     26  C         26.5440  -20.6520  -13.6130 C.3     1  UNL1        0.0760
     27  C         24.1980  -21.3920  -12.6950 C.ar    1  UNL1        0.1650
     28  N         24.5490  -21.8490  -11.3870 N.pl3   1  UNL1       -0.1110
     29  O         24.4910  -23.0680  -11.1890 O.2     1  UNL1       -0.5320
     30  O         24.8720  -21.0020  -10.5480 O.2     1  UNL1       -0.5320
@<TRIPOS>BOND
     1    24    23   ar
     2    24    25   ar
     3    23    22   ar
     4    25    26    1
     5    25    27   ar
     6    22    21    1
     7    22    27   ar
     8    21    20    2
     9    27    28    1
    10     4     3    1
    11     4     5    2
    12    20     5    1
    13    28    29    2
    14    28    30    2
    15     3     2    2
    16     5     6    1
    17     2     1    1
    18     2     7    1
    19     6     7    2
    20     7     8    1
    21    10     8    2
    22     8     9    2
    23     8    11    1
    24    11    12    1
    25    11    13    1
    26    19    13    2
    27    19    17    1
    28    13    14    1
    29    18    17    1
    30    17    16    2
    31    14    15    2
    32    16    15    1
