@<TRIPOS>MOLECULE
78124_out_ligand_01.pdbqt
 35 39 0 0 0
SMALL
GASTEIGER

@<TRIPOS>ATOM
      1  N         23.0780  -22.8670   -9.2200 N.pl3   1  UNL1       -0.3400
      2  H         23.6540  -22.2740   -8.6200 H       1  UNL1        0.1670
      3  C         23.2550  -22.7010  -10.5630 C.ar    1  UNL1        0.1440
      4  N         24.4840  -22.8410  -11.1860 N.ar    1  UNL1       -0.2880
      5  C         25.7500  -23.1810  -10.7340 C.2     1  UNL1        0.1190
      6  C         24.2990  -22.5210  -12.5060 C.ar    1  UNL1        0.1530
      7  C         26.7590  -23.2160  -11.6220 C.2     1  UNL1        0.1340
      8  N         26.6190  -22.9270  -12.9700 N.2     1  UNL1       -0.2680
      9  C         25.4290  -22.5880  -13.3920 C.2     1  UNL1        0.1670
     10  N         23.0710  -22.1520  -12.7820 N.ar    1  UNL1       -0.2250
     11  C         22.4070  -22.2610  -11.5750 C.ar    1  UNL1        0.1140
     12  C         20.9990  -21.9270  -11.4400 C.2     1  UNL1       -0.0030
     13  C         20.5910  -20.5960  -11.5880 C.2     1  UNL1        0.0170
     14  C         19.2420  -20.2390  -11.4660 C.2     1  UNL1        0.0370
     15  C         18.2810  -21.2160  -11.2040 C.2     1  UNL1        0.0680
     16  C         18.6830  -22.5470  -11.0700 C.2     1  UNL1        0.0370
     17  C         20.0290  -22.9050  -11.1920 C.2     1  UNL1        0.0170
     18  O         16.9370  -21.0060  -11.0620 O.2     1  UNL1       -0.3560
     19  C         16.2540  -21.8420  -10.1360 C.3     1  UNL1        0.2100
     20  C         21.8270  -23.0830   -8.5850 C.2     1  UNL1        0.0330
     21  C         21.2000  -24.3250   -8.7690 C.2     1  UNL1        0.0300
     22  C         19.9460  -24.5950   -8.2070 C.2     1  UNL1        0.0190
     23  C         19.2970  -23.6170   -7.4480 C.2     1  UNL1        0.0320
     24  C         19.9010  -22.3670   -7.2800 C.2     1  UNL1        0.0190
     25  C         21.1550  -22.1040   -7.8440 C.2     1  UNL1        0.0300
     26  C         17.9600  -23.8470   -6.8340 C.2     1  UNL1        0.2510
     27  O         17.6430  -24.9680   -6.4570 O.2     1  UNL1       -0.2680
     28  N         17.1270  -22.7500   -6.7520 N.am    1  UNL1       -0.3540
     29  H         17.3490  -21.9410   -7.3170 H       1  UNL1        0.1620
     30  C         15.7500  -22.8800   -6.3090 C.3     1  UNL1        0.1550
     31  C         15.4790  -22.4180   -4.8660 C.3     1  UNL1        0.1390
     32  C         15.1220  -23.5500   -3.9090 C.3     1  UNL1        0.0350
     33  C         16.4570  -23.9270   -3.3180 C.3     1  UNL1        0.0290
     34  C         17.1380  -22.5820   -3.2200 C.3     1  UNL1        0.1680
     35  O         16.6940  -21.8230   -4.3520 O.3     1  UNL1       -0.3840
@<TRIPOS>BOND
     1     9     8    2
     2     9     6    1
     3     8     7    1
     4    10     6   ar
     5    10    11   ar
     6     6     4   ar
     7     7     5    2
     8    13    14    1
     9    13    12    2
    10    11    12    1
    11    11     3   ar
    12    14    15    2
    13    12    17    1
    14    15    16    1
    15    15    18    1
    16    17    16    2
    17     4     5    1
    18     4     3   ar
    19    18    19    1
    20     3     1    1
    21     1     2    1
    22     1    20    1
    23    21    20    2
    24    21    22    1
    25    20    25    1
    26    22    23    2
    27    25    24    2
    28    23    24    1
    29    23    26    1
    30    29    28    1
    31    26    28   am
    32    26    27    2
    33    28    30    1
    34    30    31    1
    35    31    35    1
    36    31    32    1
    37    35    34    1
    38    32    33    1
    39    33    34    1
