@<TRIPOS>MOLECULE
78130_out_ligand_01.pdbqt
 34 37 0 0 0
SMALL
GASTEIGER

@<TRIPOS>ATOM
      1  C         19.0760  -22.7720  -10.0700 C.2     1  UNL1       -0.0040
      2  C         19.1080  -21.6260  -11.0750 C.2     1  UNL1        0.0580
      3  C         17.8280  -20.8710  -11.3660 C.3     1  UNL1        0.0720
      4  N         20.1640  -21.2230  -11.7200 N.2     1  UNL1       -0.0650
      5  C         21.3240  -21.8820  -11.4710 C.cat   1  UNL1        0.7520
      6  N         22.5130  -21.6650  -11.9880 N.2     1  UNL1       -0.0330
      7  C         23.2820  -22.6320  -11.4160 C.2     1  UNL1        0.2270
      8  N         22.6580  -23.4310  -10.5550 N.pl3   1  UNL1       -0.1240
      9  N         21.3900  -22.9560  -10.5830 N.pl3   1  UNL1       -0.0610
     10  C         20.2620  -23.4030   -9.8800 C.3     1  UNL1        0.0590
     11  C         20.4990  -24.5550   -8.9400 C.3     1  UNL1        0.0720
     12  S         24.9720  -22.8450  -11.7780 S.3     1  UNL1       -0.0790
     13  C         25.7120  -21.4780  -10.8470 C.3     1  UNL1        0.1850
     14  C         26.0870  -20.3240  -11.7670 C.2     1  UNL1        0.2310
     15  O         26.4290  -19.2370  -11.3080 O.2     1  UNL1       -0.2720
     16  N         25.9870  -20.6420  -13.1100 N.am    1  UNL1       -0.3260
     17  H         25.8420  -21.6320  -13.3180 H       1  UNL1        0.1690
     18  C         26.2360  -19.8110  -14.2200 C.2     1  UNL1        0.0360
     19  C         26.9110  -18.5890  -14.1420 C.2     1  UNL1        0.0320
     20  C         27.1200  -17.8240  -15.2940 C.2     1  UNL1        0.0460
     21  C         26.6570  -18.2800  -16.5230 C.2     1  UNL1        0.1380
     22  F         26.8740  -17.5310  -17.6150 F       1  UNL1       -0.2040
     23  C         25.9790  -19.4910  -16.6130 C.2     1  UNL1        0.0740
     24 CL         25.4110  -20.0700  -18.1340 Cl      1  UNL1       -0.0810
     25  C         25.7630  -20.2540  -15.4630 C.2     1  UNL1        0.0560
     26  C         17.7630  -23.1370   -9.4120 C.3     1  UNL1        0.0820
     27  C         17.7170  -22.9260   -7.9070 C.2     1  UNL1       -0.0470
     28  C         16.9100  -23.7280   -7.0700 C.2     1  UNL1       -0.0550
     29  C         16.9020  -23.4880   -5.6860 C.2     1  UNL1        0.0080
     30  C         16.0380  -24.8300   -7.6080 C.3     1  UNL1        0.0490
     31  C         17.7040  -22.4950   -5.1220 C.2     1  UNL1        0.0070
     32  C         18.5460  -21.7300   -5.9280 C.2     1  UNL1       -0.0610
     33  C         19.3980  -20.6490   -5.3290 C.3     1  UNL1        0.0480
     34  C         18.5430  -21.9490   -7.3120 C.2     1  UNL1        0.0140
@<TRIPOS>BOND
     1    24    23    1
     2    22    21    1
     3    23    21    2
     4    23    25    1
     5    21    20    1
     6    25    18    2
     7    20    19    2
     8    18    19    1
     9    18    16    1
    10    17    16    1
    11    16    14   am
    12     6     5    1
    13     6     7    2
    14    12     7    1
    15    12    13    1
    16    14    15    2
    17    14    13    1
    18     4     5    2
    19     4     2    1
    20     5     9    1
    21     7     8    1
    22     3     2    1
    23     2     1    2
    24     9     8    1
    25     9    10    1
    26     1    10    1
    27     1    26    1
    28    10    11    1
    29    26    27    1
    30    27    34    2
    31    27    28    1
    32    30    28    1
    33    34    32    1
    34    28    29    2
    35    32    33    1
    36    32    31    2
    37    29    31    1
