@<TRIPOS>MOLECULE
78131_out_ligand_01.pdbqt
 33 36 0 0 0
SMALL
GASTEIGER

@<TRIPOS>ATOM
      1  C         24.1880  -21.9520  -10.2330 C.ar    1  UNL1        0.1650
      2  N         24.1550  -23.2300   -9.8200 N.ar    1  UNL1       -0.1100
      3  O         23.3160  -23.1910   -8.7110 O.2     1  UNL1       -0.1960
      4  C         22.8880  -21.9000   -8.5940 C.ar    1  UNL1        0.1730
      5  N         23.3810  -21.1030   -9.5100 N.ar    1  UNL1       -0.2080
      6  C         24.9560  -21.5190  -11.4340 C.3     1  UNL1        0.1650
      7  S         24.0530  -21.7790  -12.9970 S.3     1  UNL1       -0.0840
      8  C         22.4280  -21.7150  -12.4360 C.ar    1  UNL1        0.1670
      9  N         21.5430  -20.7760  -12.6530 N.ar    1  UNL1       -0.2230
     10  C         20.4070  -21.2150  -12.0210 C.ar    1  UNL1        0.0860
     11  C         19.1410  -20.6210  -11.9330 C.2     1  UNL1        0.0410
     12  C         20.6200  -22.4420  -11.4010 C.ar    1  UNL1        0.0630
     13  C         18.1100  -21.2770  -11.2290 C.2     1  UNL1       -0.0540
     14  C         16.7550  -20.6220  -11.1850 C.3     1  UNL1        0.0490
     15  C         18.3460  -22.5430  -10.6430 C.2     1  UNL1       -0.0540
     16  C         19.6260  -23.1300  -10.7050 C.2     1  UNL1        0.0390
     17  C         17.2520  -23.2860   -9.9190 C.3     1  UNL1        0.0490
     18  N         21.9350  -22.7280  -11.6700 N.ar    1  UNL1       -0.3330
     19  H         22.4470  -23.5500  -11.3910 H       1  UNL1        0.1680
     20  C         21.9040  -21.6160   -7.5250 C.3     1  UNL1        0.0980
     21  C         20.6490  -22.4720   -7.6530 C.3     1  UNL1        0.1110
     22  C         19.6320  -22.1060   -6.5890 C.2     1  UNL1        0.2220
     23  O         19.7100  -21.0200   -6.0220 O.2     1  UNL1       -0.2730
     24  N         18.6730  -23.0870   -6.4040 N.am    1  UNL1       -0.3270
     25  H         18.7780  -23.9230   -6.9630 H       1  UNL1        0.1690
     26  C         17.5470  -23.0650   -5.5410 C.2     1  UNL1        0.0410
     27  C         17.5940  -23.6180   -4.2570 C.2     1  UNL1        0.0300
     28  C         16.4750  -23.6030   -3.4290 C.2     1  UNL1        0.0030
     29  C         15.2850  -23.0450   -3.8760 C.2     1  UNL1        0.0070
     30  C         15.1940  -22.4830   -5.1590 C.2     1  UNL1       -0.0540
     31  C         13.8740  -21.8980   -5.5860 C.3     1  UNL1        0.0490
     32  C         16.3400  -22.4660   -5.9960 C.2     1  UNL1       -0.0290
     33  C         16.2610  -21.8430   -7.3710 C.3     1  UNL1        0.0510
@<TRIPOS>BOND
     1     7     8    1
     2     7     6    1
     3     9     8   ar
     4     9    10   ar
     5     8    18   ar
     6    10    11    2
     7    10    12   ar
     8    11    13    1
     9    18    12   ar
    10    18    19    1
    11     6     1    1
    12    12    16    2
    13    13    14    1
    14    13    15    2
    15    16    15    1
    16    15    17    1
    17     1     2   ar
    18     1     5   ar
    19     2     3   ar
    20     5     4   ar
    21     3     4   ar
    22     4    20    1
    23    21    20    1
    24    21    22    1
    25    33    32    1
    26    25    24    1
    27    22    24   am
    28    22    23    2
    29    24    26    1
    30    32    26    2
    31    32    30    1
    32    31    30    1
    33    26    27    1
    34    30    29    2
    35    27    28    2
    36    29    28    1
