@<TRIPOS>MOLECULE
78136_out_ligand_01.pdbqt
 32 35 0 0 0
SMALL
GASTEIGER

@<TRIPOS>ATOM
      1  C         18.7720  -22.5150  -10.0800 C.2     1  UNL1        0.0320
      2  C         18.9560  -21.5500  -11.0760 C.2     1  UNL1        0.0190
      3  C         20.2320  -21.3180  -11.6090 C.2     1  UNL1        0.0300
      4  C         21.3330  -22.0530  -11.1650 C.2     1  UNL1        0.0360
      5  C         21.1420  -23.0250  -10.1740 C.2     1  UNL1        0.0300
      6  C         19.8710  -23.2600   -9.6400 C.2     1  UNL1        0.0190
      7  N         22.6440  -21.8730  -11.6400 N.am    1  UNL1       -0.3090
      8  C         23.7700  -21.4880  -10.9340 C.2     1  UNL1        0.3270
      9  O         23.7610  -21.1280   -9.7590 O.2     1  UNL1       -0.2460
     10  N         24.9450  -21.4680  -11.7110 N.am    1  UNL1       -0.2990
     11  C         26.1630  -20.9100  -11.1170 C.3     1  UNL1        0.1340
     12  C         25.1460  -22.2650  -12.8760 C.2     1  UNL1        0.0450
     13  C         26.5730  -19.5830  -11.7420 C.3     1  UNL1        0.0210
     14  C         27.1190  -19.7410  -13.1590 C.3     1  UNL1        0.0060
     15  C         26.0790  -20.2530  -14.1500 C.3     1  UNL1        0.0410
     16  C         25.7590  -21.7240  -14.0210 C.2     1  UNL1       -0.0310
     17  C         25.9780  -22.5620  -15.1300 C.2     1  UNL1        0.0090
     18  C         25.6000  -23.9050  -15.1030 C.2     1  UNL1        0.0010
     19  C         24.9890  -24.4320  -13.9720 C.2     1  UNL1        0.0020
     20  C         24.7630  -23.6170  -12.8630 C.2     1  UNL1        0.0300
     21  H         22.7710  -21.9310  -12.6420 H       1  UNL1        0.1700
     22  C         17.4370  -22.7980   -9.4830 C.2     1  UNL1        0.2510
     23  O         16.4220  -22.3790  -10.0270 O.2     1  UNL1       -0.2680
     24  N         17.4300  -23.5690   -8.3400 N.am    1  UNL1       -0.3530
     25  H         18.2660  -24.0780   -8.0910 H       1  UNL1        0.1630
     26  C         16.1940  -24.0360   -7.7530 C.3     1  UNL1        0.1610
     27  C         16.0500  -23.5340   -6.3400 C.2     1  UNL1       -0.0410
     28  C         17.0570  -23.7880   -5.3970 C.2     1  UNL1        0.0090
     29  C         16.9410  -23.3080   -4.0920 C.2     1  UNL1        0.0010
     30  C         15.8230  -22.5660   -3.7170 C.2     1  UNL1        0.0000
     31  C         14.8200  -22.3020   -4.6480 C.2     1  UNL1        0.0010
     32  C         14.9330  -22.7790   -5.9550 C.2     1  UNL1        0.0090
@<TRIPOS>BOND
     1    17    18    2
     2    17    16    1
     3    18    19    1
     4    15    16    1
     5    15    14    1
     6    16    12    2
     7    19    20    2
     8    14    13    1
     9    12    20    1
    10    12    10    1
    11    21     7    1
    12    13    11    1
    13    10    11    1
    14    10     8   am
    15     7     4    1
    16     7     8   am
    17     3     4    2
    18     3     2    1
    19     4     5    1
    20     2     1    2
    21     8     9    2
    22     5     6    2
    23     1     6    1
    24     1    22    1
    25    23    22    2
    26    22    24   am
    27    24    25    1
    28    24    26    1
    29    26    27    1
    30    27    32    2
    31    27    28    1
    32    32    31    1
    33    28    29    2
    34    31    30    2
    35    29    30    1
