@<TRIPOS>MOLECULE
78145_out_ligand_01.pdbqt
 31 34 0 0 0
SMALL
GASTEIGER

@<TRIPOS>ATOM
      1  C         21.5420  -21.8230  -12.1060 C.2     1  UNL1        0.0330
      2  C         21.8660  -22.5800  -10.9810 C.2     1  UNL1        0.0190
      3  C         20.8890  -22.8540  -10.0140 C.2     1  UNL1        0.0310
      4  C         19.5710  -22.3880  -10.1430 C.2     1  UNL1        0.0430
      5  C         19.2590  -21.6040  -11.2740 C.2     1  UNL1       -0.0300
      6  C         20.2470  -21.3190  -12.2370 C.2     1  UNL1        0.0260
      7  C         17.8900  -21.0130  -11.4840 C.3     1  UNL1        0.0420
      8  C         16.8430  -21.7820  -10.7040 C.3     1  UNL1        0.0250
      9  C         17.2970  -21.9190   -9.2630 C.3     1  UNL1        0.1330
     10  N         18.5690  -22.6470   -9.1380 N.am    1  UNL1       -0.3130
     11  C         18.7610  -23.5870   -8.1080 C.2     1  UNL1        0.2580
     12  O         19.5680  -24.5140   -8.1140 O.2     1  UNL1       -0.2670
     13  C         22.5480  -21.5030  -13.1580 C.2     1  UNL1        0.2560
     14  N         23.7140  -22.2430  -13.0880 N.am    1  UNL1       -0.3230
     15  H         23.7380  -22.9950  -12.4120 H       1  UNL1        0.1690
     16  O         22.2570  -20.6600  -13.9960 O.2     1  UNL1       -0.2670
     17  C         24.8510  -22.1340  -13.9190 C.2     1  UNL1        0.0370
     18  C         26.0370  -21.5090  -13.5320 C.2     1  UNL1        0.0290
     19  C         27.1210  -21.4470  -14.4110 C.2     1  UNL1        0.0050
     20  C         27.0230  -22.0130  -15.6800 C.2     1  UNL1        0.0370
     21  C         25.8470  -22.6440  -16.0840 C.2     1  UNL1        0.0700
     22  C         24.7650  -22.7040  -15.2000 C.2     1  UNL1        0.0660
     23  O         25.8830  -23.1580  -17.3510 O.2     1  UNL1       -0.3560
     24  C         24.7200  -22.9940  -18.1510 C.3     1  UNL1        0.2100
     25  C         17.9130  -23.4810   -6.8940 C.2     1  UNL1        0.0320
     26  C         18.2920  -22.5970   -5.8770 C.2     1  UNL1        0.0200
     27  C         17.4930  -22.4670   -4.7400 C.2     1  UNL1        0.0430
     28  C         16.3190  -23.2080   -4.6390 C.2     1  UNL1        0.1160
     29  F         15.5540  -23.0820   -3.5470 F       1  UNL1       -0.2060
     30  C         15.9220  -24.0720   -5.6560 C.2     1  UNL1        0.0430
     31  C         16.7170  -24.2060   -6.7960 C.2     1  UNL1        0.0200
@<TRIPOS>BOND
     1    24    23    1
     2    23    21    1
     3    21    20    2
     4    21    22    1
     5    20    19    1
     6    22    17    2
     7    19    18    2
     8    16    13    2
     9    17    18    1
    10    17    14    1
    11    13    14   am
    12    13     1    1
    13    14    15    1
    14     6     1    2
    15     6     5    1
    16     1     2    1
    17     7     5    1
    18     7     8    1
    19     5     4    2
    20     2     3    2
    21     8     9    1
    22     4     3    1
    23     4    10    1
    24     9    10    1
    25    10    11   am
    26    12    11    2
    27    11    25    1
    28    25    31    2
    29    25    26    1
    30    31    30    1
    31    26    27    2
    32    30    28    2
    33    27    28    1
    34    28    29    1
