@<TRIPOS>MOLECULE
78147_out_ligand_01.pdbqt
 34 38 0 0 0
SMALL
GASTEIGER

@<TRIPOS>ATOM
      1  N         23.1610  -23.4480  -10.1080 N.pl3   1  UNL1       -0.3400
      2  H         23.5200  -24.3910   -9.9760 H       1  UNL1        0.1670
      3  C         23.2990  -22.8390  -11.3220 C.ar    1  UNL1        0.1440
      4  N         24.5110  -22.8480  -11.9910 N.ar    1  UNL1       -0.2880
      5  C         25.7550  -23.3900  -11.6970 C.2     1  UNL1        0.1190
      6  C         24.3240  -22.1960  -13.1800 C.ar    1  UNL1        0.1530
      7  C         26.7460  -23.2420  -12.5950 C.2     1  UNL1        0.1340
      8  N         26.6070  -22.5820  -13.8050 N.2     1  UNL1       -0.2680
      9  C         25.4330  -22.0790  -14.0850 C.2     1  UNL1        0.1670
     10  N         23.1030  -21.7440  -13.3320 N.ar    1  UNL1       -0.2250
     11  C         22.4600  -22.1000  -12.1590 C.ar    1  UNL1        0.1140
     12  C         21.0860  -21.6900  -11.9070 C.2     1  UNL1       -0.0040
     13  C         20.7350  -20.3480  -11.7250 C.2     1  UNL1        0.0140
     14  C         19.4070  -19.9850  -11.4780 C.2     1  UNL1        0.0070
     15  C         18.4020  -20.9570  -11.4330 C.2     1  UNL1       -0.0620
     16  C         16.9840  -20.5710  -11.1380 C.3     1  UNL1        0.0480
     17  C         18.7480  -22.2990  -11.6210 C.2     1  UNL1        0.0070
     18  C         20.0760  -22.6600  -11.8660 C.2     1  UNL1        0.0140
     19  C         22.1880  -23.1520   -9.1230 C.2     1  UNL1        0.0330
     20  C         22.3400  -21.9790   -8.3690 C.2     1  UNL1        0.0300
     21  C         21.3800  -21.5970   -7.4270 C.2     1  UNL1        0.0190
     22  C         20.2350  -22.3760   -7.2370 C.2     1  UNL1        0.0320
     23  C         20.0780  -23.5550   -7.9690 C.2     1  UNL1        0.0190
     24  C         21.0460  -23.9320   -8.9070 C.2     1  UNL1        0.0300
     25  C         19.2290  -21.9230   -6.2380 C.2     1  UNL1        0.2520
     26  O         19.4150  -20.8880   -5.6080 O.2     1  UNL1       -0.2680
     27  N         18.1060  -22.7120   -6.1030 N.am    1  UNL1       -0.3520
     28  H         18.0030  -23.5400   -6.6730 H       1  UNL1        0.1630
     29  C         17.0820  -22.4300   -5.1030 C.3     1  UNL1        0.0840
     30  C         15.6910  -22.3730   -5.7560 C.3     1  UNL1        0.0250
     31  C         14.9930  -23.7280   -5.7240 C.3     1  UNL1        0.0020
     32  C         14.7800  -24.2230   -4.2920 C.3     1  UNL1        0.0000
     33  C         15.8130  -23.6870   -3.2990 C.3     1  UNL1        0.0020
     34  C         17.1650  -23.4610   -3.9630 C.3     1  UNL1        0.0250
@<TRIPOS>BOND
     1     9     8    2
     2     9     6    1
     3     8     7    1
     4    10     6   ar
     5    10    11   ar
     6     6     4   ar
     7     7     5    2
     8    11    12    1
     9    11     3   ar
    10     4     5    1
    11     4     3   ar
    12    12    18    2
    13    12    13    1
    14    18    17    1
    15    13    14    2
    16    17    15    2
    17    14    15    1
    18    15    16    1
    19     3     1    1
    20     1     2    1
    21     1    19    1
    22    19    24    2
    23    19    20    1
    24    24    23    1
    25    20    21    2
    26    23    22    2
    27    21    22    1
    28    22    25    1
    29    28    27    1
    30    25    27   am
    31    25    26    2
    32    27    29    1
    33    30    31    1
    34    30    29    1
    35    31    32    1
    36    29    34    1
    37    32    33    1
    38    34    33    1
