@<TRIPOS>MOLECULE
78155_out_ligand_01.pdbqt
 30 33 0 0 0
SMALL
GASTEIGER

@<TRIPOS>ATOM
      1  C         19.1840  -23.6570   -8.4500 C.2     1  UNL1        0.2580
      2  O         19.8470  -24.6690   -8.2310 O.2     1  UNL1       -0.2670
      3  N         19.3740  -22.7470   -9.5080 N.am    1  UNL1       -0.3130
      4  C         18.2780  -21.8650   -9.9360 C.3     1  UNL1        0.1330
      5  C         18.2190  -21.6920  -11.4430 C.3     1  UNL1        0.0250
      6  C         19.5170  -21.0780  -11.9210 C.3     1  UNL1        0.0420
      7  C         20.7010  -21.8440  -11.3940 C.2     1  UNL1       -0.0300
      8  C         21.9230  -21.7070  -12.0800 C.2     1  UNL1        0.0260
      9  C         23.0730  -22.3690  -11.6430 C.2     1  UNL1        0.0320
     10  C         22.9940  -23.1820  -10.5150 C.2     1  UNL1        0.0190
     11  C         21.7830  -23.3080   -9.8190 C.2     1  UNL1        0.0310
     12  C         20.6150  -22.6490  -10.2370 C.2     1  UNL1        0.0430
     13  C         24.3350  -22.1890  -12.4150 C.2     1  UNL1        0.2510
     14  O         25.2980  -22.9150  -12.1930 O.2     1  UNL1       -0.2680
     15  N         24.3250  -21.2090  -13.3850 N.am    1  UNL1       -0.3530
     16  H         23.4400  -20.8220  -13.6770 H       1  UNL1        0.1630
     17  C         25.4350  -21.0380  -14.2960 C.3     1  UNL1        0.1610
     18  C         25.1080  -21.6150  -15.6480 C.2     1  UNL1       -0.0410
     19  C         24.7520  -22.9660  -15.7710 C.2     1  UNL1        0.0090
     20  C         24.4280  -23.5040  -17.0170 C.2     1  UNL1        0.0010
     21  C         24.4520  -22.6960  -18.1530 C.2     1  UNL1        0.0000
     22  C         24.7970  -21.3510  -18.0420 C.2     1  UNL1        0.0010
     23  C         25.1200  -20.8100  -16.7970 C.2     1  UNL1        0.0090
     24  C         18.0760  -23.4020   -7.4970 C.2     1  UNL1        0.0320
     25  C         18.2470  -22.5160   -6.4280 C.2     1  UNL1        0.0170
     26  C         17.1980  -22.3040   -5.5310 C.2     1  UNL1        0.0070
     27  C         15.9790  -22.9750   -5.6940 C.2     1  UNL1       -0.0620
     28  C         14.8650  -22.7730   -4.7070 C.3     1  UNL1        0.0480
     29  C         15.8320  -23.8890   -6.7460 C.2     1  UNL1        0.0070
     30  C         16.8780  -24.1060   -7.6450 C.2     1  UNL1        0.0170
@<TRIPOS>BOND
     1    21    22    2
     2    21    20    1
     3    22    23    1
     4    20    19    2
     5    23    18    2
     6    19    18    1
     7    18    17    1
     8    17    15    1
     9    16    15    1
    10    15    13   am
    11    13    14    2
    12    13     9    1
    13     8     9    1
    14     8     7    2
    15     6     5    1
    16     6     7    1
    17     9    10    2
    18     5     4    1
    19     7    12    1
    20    10    11    1
    21    12    11    2
    22    12     3    1
    23     4     3    1
    24     3     1   am
    25     1     2    2
    26     1    24    1
    27    30    24    2
    28    30    29    1
    29    24    25    1
    30    29    27    2
    31    25    26    2
    32    27    26    1
    33    27    28    1
