@<TRIPOS>MOLECULE
78156_out_ligand_01.pdbqt
 31 34 0 0 0
SMALL
GASTEIGER

@<TRIPOS>ATOM
      1  C         21.4680  -22.0480  -11.6120 C.2     1  UNL1        0.0320
      2  C         21.6360  -22.8290  -10.4720 C.2     1  UNL1        0.0190
      3  C         20.5630  -23.0350   -9.5940 C.2     1  UNL1        0.0310
      4  C         19.2910  -22.4910   -9.8340 C.2     1  UNL1        0.0430
      5  C         19.1240  -21.7190  -11.0050 C.2     1  UNL1       -0.0300
      6  C         20.2110  -21.5010  -11.8770 C.2     1  UNL1        0.0260
      7  C         17.8130  -21.0700  -11.3550 C.3     1  UNL1        0.0420
      8  C         16.6610  -21.7670  -10.6610 C.3     1  UNL1        0.0250
      9  C         16.9750  -21.8840   -9.1820 C.3     1  UNL1        0.1330
     10  N         18.1870  -22.6750   -8.9200 N.am    1  UNL1       -0.3130
     11  C         18.2480  -23.5560   -7.8230 C.2     1  UNL1        0.2610
     12  O         19.0400  -24.4870   -7.6800 O.2     1  UNL1       -0.2670
     13  C         22.5750  -21.7870  -12.5750 C.2     1  UNL1        0.2510
     14  O         22.3740  -21.1020  -13.5720 O.2     1  UNL1       -0.2680
     15  N         23.8080  -22.3150  -12.2530 N.am    1  UNL1       -0.3570
     16  H         23.9600  -22.6970  -11.3300 H       1  UNL1        0.1620
     17  C         24.9730  -22.0590  -13.0800 C.3     1  UNL1        0.1270
     18  C         25.2190  -23.1760  -14.0970 C.3     1  UNL1        0.0580
     19  C         24.9940  -22.7040  -15.5100 C.2     1  UNL1       -0.0570
     20  C         25.2020  -21.3630  -15.8600 C.2     1  UNL1        0.0070
     21  C         25.0100  -20.9390  -17.1760 C.2     1  UNL1        0.0010
     22  C         24.6110  -21.8490  -18.1520 C.2     1  UNL1        0.0000
     23  C         24.4050  -23.1860  -17.8160 C.2     1  UNL1        0.0010
     24  C         24.5970  -23.6130  -16.5020 C.2     1  UNL1        0.0070
     25  C         17.2550  -23.4190   -6.7390 C.2     1  UNL1        0.0710
     26  C         17.5360  -22.5740   -5.6600 C.2     1  UNL1        0.0200
     27  C         16.5940  -22.4100   -4.6420 C.2     1  UNL1        0.0010
     28  C         15.3680  -23.0750   -4.7110 C.2     1  UNL1        0.0030
     29  C         15.0780  -23.8990   -5.8000 C.2     1  UNL1        0.0430
     30  C         16.0190  -24.0600   -6.8130 C.2     1  UNL1        0.1320
     31  F         15.7110  -24.8440   -7.8570 F       1  UNL1       -0.2050
@<TRIPOS>BOND
     1    22    23    2
     2    22    21    1
     3    23    24    1
     4    21    20    2
     5    24    19    2
     6    20    19    1
     7    19    18    1
     8    18    17    1
     9    14    13    2
    10    17    15    1
    11    13    15   am
    12    13     1    1
    13    15    16    1
    14     6     1    2
    15     6     5    1
    16     1     2    1
    17     7     5    1
    18     7     8    1
    19     5     4    2
    20     8     9    1
    21     2     3    2
    22     4     3    1
    23     4    10    1
    24     9    10    1
    25    10    11   am
    26    31    30    1
    27    11    12    2
    28    11    25    1
    29    30    25    2
    30    30    29    1
    31    25    26    1
    32    29    28    2
    33    26    27    2
    34    28    27    1
