@<TRIPOS>MOLECULE
78165_out_ligand_01.pdbqt
 37 41 0 0 0
SMALL
GASTEIGER

@<TRIPOS>ATOM
      1  C         18.0180  -22.7830   -9.6380 C.2     1  UNL1        0.0980
      2  C         17.6760  -22.0290  -10.6960 C.2     1  UNL1        0.1090
      3  N         18.5380  -21.5840  -11.6660 N.pl3   1  UNL1       -0.3640
      4  C         19.9150  -21.8040  -11.5530 C.2     1  UNL1        0.0460
      5  C         20.8040  -21.3010  -12.5060 C.2     1  UNL1        0.0320
      6  C         22.1730  -21.5610  -12.4000 C.2     1  UNL1        0.0270
      7  C         22.6520  -22.3500  -11.3490 C.2     1  UNL1        0.0810
      8  C         21.7790  -22.8680  -10.3910 C.2     1  UNL1        0.0430
      9  C         20.4120  -22.6020  -10.5070 C.2     1  UNL1        0.0430
     10  C         19.4550  -23.1560   -9.5120 C.2     1  UNL1        0.2010
     11  O         19.8550  -23.8990   -8.6190 O.2     1  UNL1       -0.2860
     12  H         18.2070  -20.8650  -12.3030 H       1  UNL1        0.1650
     13  S         24.3950  -22.6590  -11.1940 S.O2    1  UNL1        0.2630
     14  O         25.0970  -21.4370  -11.5190 O.2     1  UNL1       -0.2000
     15  O         24.6020  -23.3260   -9.9250 O.2     1  UNL1       -0.2000
     16  N         24.6820  -23.8110  -12.3880 N.pl3   1  UNL1       -0.2810
     17  H         23.9720  -24.5430  -12.4000 H       1  UNL1        0.1790
     18  C         25.2950  -23.4460  -13.6180 C.2     1  UNL1        0.0450
     19  C         26.5250  -23.9810  -14.0070 C.2     1  UNL1        0.0330
     20  C         27.1030  -23.6010  -15.2220 C.2     1  UNL1        0.0420
     21  C         26.4410  -22.7020  -16.0540 C.2     1  UNL1        0.1020
     22  C         25.2120  -22.1610  -15.6620 C.2     1  UNL1        0.1040
     23  O         27.0540  -22.3920  -17.2390 O.2     1  UNL1       -0.3460
     24  C         24.6310  -22.5440  -14.4530 C.2     1  UNL1        0.0690
     25  O         24.5140  -21.2560  -16.4200 O.2     1  UNL1       -0.3460
     26  C         25.3300  -20.6940  -17.4540 C.3     1  UNL1        0.2020
     27  C         26.1380  -21.7750  -18.1530 C.3     1  UNL1        0.2020
     28  C         16.9500  -23.1840   -8.6770 C.2     1  UNL1        0.2570
     29  O         15.9590  -23.8110   -9.0420 O.2     1  UNL1       -0.2670
     30  N         17.1610  -22.8040   -7.3760 N.am    1  UNL1       -0.3520
     31  H         18.0650  -22.3850   -7.1480 H       1  UNL1        0.1630
     32  C         16.2950  -23.2170   -6.2840 C.3     1  UNL1        0.0840
     33  C         17.1000  -23.4520   -5.0030 C.3     1  UNL1        0.0250
     34  C         16.2210  -23.9760   -3.8650 C.3     1  UNL1        0.0020
     35  C         14.7630  -23.5270   -3.9610 C.3     1  UNL1        0.0000
     36  C         14.6380  -22.1660   -4.6290 C.3     1  UNL1        0.0020
     37  C         15.1810  -22.1820   -6.0600 C.3     1  UNL1        0.0250
@<TRIPOS>BOND
     1    27    26    1
     2    27    23    1
     3    26    25    1
     4    23    21    1
     5    25    22    1
     6    21    22    2
     7    21    20    1
     8    22    24    1
     9    20    19    2
    10    24    18    2
    11    19    18    1
    12    18    16    1
    13     5     6    1
    14     5     4    2
    15    17    16    1
    16     6     7    2
    17    16    13    1
    18    12     3    1
    19     3     4    1
    20     3     2    1
    21     4     9    1
    22    14    13    2
    23     7    13    1
    24     7     8    1
    25    13    15    2
    26     2     1    2
    27     9     8    2
    28     9    10    1
    29     1    10    1
    30     1    28    1
    31    10    11    2
    32    29    28    2
    33    28    30   am
    34    30    31    1
    35    30    32    1
    36    32    37    1
    37    32    33    1
    38    37    36    1
    39    33    34    1
    40    36    35    1
    41    35    34    1
