@<TRIPOS>MOLECULE
78160_out_ligand_01.pdbqt
 34 37 0 0 0
SMALL
GASTEIGER

@<TRIPOS>ATOM
      1  C         19.2850  -22.9440   -9.2380 C.2     1  UNL1       -0.0160
      2  C         17.9860  -22.6330   -9.6900 C.2     1  UNL1        0.0130
      3  C         17.7840  -21.8000  -10.7930 C.2     1  UNL1        0.0430
      4  C         18.8750  -21.2590  -11.4550 C.2     1  UNL1        0.1170
      5  F         18.6780  -20.4660  -12.5160 F       1  UNL1       -0.2060
      6  C         20.1660  -21.5090  -11.0220 C.2     1  UNL1        0.0680
      7  C         20.3740  -22.3280   -9.9010 C.2     1  UNL1        0.0900
      8  S         22.0480  -22.4980   -9.3030 S.O2    1  UNL1        0.2630
      9  O         22.5160  -23.7900   -9.7490 O.2     1  UNL1       -0.2000
     10  O         22.0820  -22.1080   -7.9110 O.2     1  UNL1       -0.2000
     11  N         22.9260  -21.3610  -10.1730 N.pl3   1  UNL1       -0.2810
     12  H         22.4240  -20.4770  -10.2560 H       1  UNL1        0.1790
     13  C         23.9400  -21.6780  -11.1210 C.2     1  UNL1        0.0450
     14  C         25.2400  -21.8540  -10.6210 C.2     1  UNL1        0.0330
     15  C         26.2900  -22.2350  -11.4640 C.2     1  UNL1        0.0470
     16  C         26.0460  -22.4610  -12.8120 C.2     1  UNL1        0.1490
     17  F         27.0590  -22.8600  -13.5910 F       1  UNL1       -0.2030
     18  C         24.7570  -22.3060  -13.3050 C.2     1  UNL1        0.1430
     19  C         23.6930  -21.9320  -12.4710 C.2     1  UNL1        0.0690
     20  N         24.4980  -22.5630  -14.7060 N.pl3   1  UNL1       -0.1120
     21  O         24.9030  -23.6420  -15.1600 O.2     1  UNL1       -0.5320
     22  O         23.8720  -21.7080  -15.3440 O.2     1  UNL1       -0.5320
     23  C         19.4870  -23.8820   -8.0550 C.3     1  UNL1        0.1760
     24  N         18.6560  -23.5830   -6.9030 N.am    1  UNL1       -0.2740
     25  C         17.6790  -24.4230   -6.4300 C.2     1  UNL1        0.2800
     26  C         17.1270  -23.7640   -5.2360 C.2     1  UNL1        0.1400
     27  O         17.3300  -25.4940   -6.8870 O.2     1  UNL1       -0.2650
     28  N         16.1340  -24.2250   -4.4550 N.2     1  UNL1       -0.2540
     29  C         17.8070  -22.5840   -5.0560 C.2     1  UNL1        0.0670
     30  C         15.8270  -23.4100   -3.4170 C.2     1  UNL1        0.1170
     31  C         16.4660  -22.1900   -3.1530 C.2     1  UNL1        0.0200
     32  C         17.4910  -21.7590   -3.9990 C.2     1  UNL1        0.0210
     33  C         18.7910  -22.4710   -6.1210 C.2     1  UNL1        0.2630
     34  O         19.5520  -21.5310   -6.2420 O.2     1  UNL1       -0.2670
@<TRIPOS>BOND
     1    22    20    2
     2    21    20    2
     3    20    18    1
     4    17    16    1
     5    18    16    2
     6    18    19    1
     7    16    15    1
     8     5     4    1
     9    19    13    2
    10    15    14    2
    11     4     6    2
    12     4     3    1
    13    13    14    1
    14    13    11    1
    15     6     7    1
    16     3     2    2
    17    12    11    1
    18    11     8    1
    19     7     8    1
    20     7     1    2
    21     9     8    2
    22     2     1    1
    23     8    10    2
    24     1    23    1
    25    23    24    1
    26    24    25   am
    27    24    33   am
    28    27    25    2
    29    25    26    1
    30    34    33    2
    31    33    29    1
    32    26    29    2
    33    26    28    1
    34    29    32    1
    35    28    30    2
    36    32    31    2
    37    30    31    1
