@<TRIPOS>MOLECULE
78161_out_ligand_01.pdbqt
 32 35 0 0 0
SMALL
GASTEIGER

@<TRIPOS>ATOM
      1  C         21.8680  -22.4790  -11.2840 C.2     1  UNL1        0.0330
      2  C         21.8470  -23.2260  -10.1070 C.2     1  UNL1        0.0190
      3  C         20.6950  -23.2450   -9.3090 C.2     1  UNL1        0.0310
      4  C         19.5410  -22.5260   -9.6590 C.2     1  UNL1        0.0430
      5  C         19.5490  -21.8360  -10.8890 C.2     1  UNL1       -0.0300
      6  C         20.7130  -21.8020  -11.6810 C.2     1  UNL1        0.0260
      7  C         18.3380  -21.0930  -11.3800 C.3     1  UNL1        0.0420
      8  C         17.0870  -21.7650  -10.8540 C.3     1  UNL1        0.0250
      9  C         17.1640  -21.8440   -9.3400 C.3     1  UNL1        0.1330
     10  N         18.3620  -22.5230   -8.8220 N.am    1  UNL1       -0.3130
     11  C         18.4310  -22.8680   -7.4540 C.2     1  UNL1        0.2610
     12  O         19.4540  -23.0450   -6.7940 O.2     1  UNL1       -0.2670
     13  C         23.0750  -22.4120  -12.1550 C.2     1  UNL1        0.2560
     14  N         22.9750  -21.5310  -13.2180 N.am    1  UNL1       -0.3230
     15  H         22.0700  -21.1030  -13.3670 H       1  UNL1        0.1690
     16  O         24.0200  -23.1460  -11.8950 O.2     1  UNL1       -0.2670
     17  C         23.9660  -21.2320  -14.1790 C.2     1  UNL1        0.0350
     18  C         24.8310  -20.1400  -14.0880 C.2     1  UNL1        0.0290
     19  C         25.7830  -19.9050  -15.0830 C.2     1  UNL1        0.0030
     20  C         25.8780  -20.7610  -16.1790 C.2     1  UNL1        0.0150
     21  C         25.0170  -21.8590  -16.2880 C.2     1  UNL1        0.0110
     22  C         24.0620  -22.0880  -15.2870 C.2     1  UNL1        0.0440
     23  C         25.1530  -22.7480  -17.4810 C.2     1  UNL1        0.1550
     24  C         23.9210  -23.4010  -18.0500 C.3     1  UNL1        0.0960
     25  O         26.2590  -22.9390  -17.9830 O.2     1  UNL1       -0.2930
     26  C         17.1780  -22.9800   -6.6890 C.2     1  UNL1        0.0710
     27  C         16.9340  -22.0880   -5.6380 C.2     1  UNL1        0.0200
     28  C         15.7660  -22.2140   -4.8840 C.2     1  UNL1        0.0010
     29  C         14.8560  -23.2350   -5.1670 C.2     1  UNL1        0.0030
     30  C         15.1150  -24.1390   -6.2000 C.2     1  UNL1        0.0430
     31  C         16.2800  -24.0120   -6.9520 C.2     1  UNL1        0.1320
     32  F         16.5120  -24.8890   -7.9380 F       1  UNL1       -0.2050
@<TRIPOS>BOND
     1    24    23    1
     2    25    23    2
     3    23    21    1
     4    21    20    2
     5    21    22    1
     6    20    19    1
     7    22    17    2
     8    19    18    2
     9    17    18    1
    10    17    14    1
    11    15    14    1
    12    14    13   am
    13    13    16    2
    14    13     1    1
    15     6     1    2
    16     6     5    1
    17     7     5    1
    18     7     8    1
    19     1     2    1
    20     5     4    2
    21     8     9    1
    22     2     3    2
    23     4     3    1
    24     4    10    1
    25     9    10    1
    26    10    11   am
    27    32    31    1
    28    11    12    2
    29    11    26    1
    30    31    26    2
    31    31    30    1
    32    26    27    1
    33    30    29    2
    34    27    28    2
    35    29    28    1
