@<TRIPOS>MOLECULE
78171_out_ligand_01.pdbqt
 35 39 0 0 0
SMALL
GASTEIGER

@<TRIPOS>ATOM
      1  C         20.5080  -23.4930   -8.8920 C.3     1  UNL1       -0.0050
      2  C         21.0570  -24.8590   -8.4150 C.3     1  UNL1        0.0210
      3  C         19.0160  -23.7810   -9.2600 C.3     1  UNL1        0.0530
      4  C         18.3660  -22.6600  -10.0220 C.2     1  UNL1       -0.0440
      5  C         16.9940  -22.4030   -9.8810 C.2     1  UNL1        0.0080
      6  C         16.3910  -21.3870  -10.6190 C.2     1  UNL1        0.0010
      7  C         17.1490  -20.6310  -11.5080 C.2     1  UNL1        0.0010
      8  C         18.5130  -20.8940  -11.6620 C.2     1  UNL1        0.0140
      9  C         19.1400  -21.9110  -10.9220 C.2     1  UNL1        0.0000
     10  C         20.5890  -22.2050  -11.0870 C.ar    1  UNL1        0.0990
     11  N         21.1890  -21.7000  -12.2190 N.ar    1  UNL1       -0.0610
     12  C         22.4310  -21.9750  -12.4020 C.ar    1  UNL1        0.7340
     13  N         23.2540  -21.6290  -13.4480 N.ar    1  UNL1       -0.1010
     14  C         22.9910  -20.5610  -14.3810 C.3     1  UNL1        0.2000
     15  N         24.5490  -22.0290  -13.2130 N.ar    1  UNL1       -0.1310
     16  C         24.4460  -22.6620  -12.0790 C.ar    1  UNL1        0.2120
     17  N         23.1870  -22.6790  -11.5300 N.ar    1  UNL1       -0.0820
     18  C         22.6930  -23.1390  -10.3270 C.ar    1  UNL1        0.2780
     19  O         23.3900  -23.6390   -9.4490 O.2     1  UNL1       -0.2660
     20  C         21.2220  -22.9270  -10.1320 C.ar    1  UNL1        0.0500
     21  S         25.8180  -23.4010  -11.3430 S.3     1  UNL1       -0.0800
     22  C         27.1210  -22.4590  -12.1770 C.3     1  UNL1        0.1850
     23  C         26.9760  -20.9420  -12.1280 C.2     1  UNL1        0.2270
     24  O         26.7670  -20.3800  -11.0490 O.2     1  UNL1       -0.2730
     25  N         27.0880  -20.2450  -13.3030 N.am    1  UNL1       -0.3560
     26  H         27.0580  -20.7590  -14.1790 H       1  UNL1        0.1620
     27  C         26.9050  -18.8140  -13.3780 C.3     1  UNL1        0.1610
     28  C         26.7530  -18.3500  -14.8030 C.2     1  UNL1       -0.0410
     29  C         27.0200  -17.0210  -15.1580 C.2     1  UNL1        0.0090
     30  C         26.8630  -16.5940  -16.4780 C.2     1  UNL1        0.0010
     31  C         26.4480  -17.4960  -17.4590 C.2     1  UNL1        0.0000
     32  C         26.1960  -18.8240  -17.1210 C.2     1  UNL1        0.0010
     33  C         26.3490  -19.2500  -15.8010 C.2     1  UNL1        0.0090
     34  C         20.5260  -22.4680   -7.7130 C.3     1  UNL1        0.0100
     35  C         19.2930  -22.4360   -6.8170 C.3     1  UNL1        0.0060
@<TRIPOS>BOND
     1    31    32    2
     2    31    30    1
     3    32    33    1
     4    30    29    2
     5    33    28    2
     6    29    28    1
     7    28    27    1
     8    14    13    1
     9    26    25    1
    10    13    15   ar
    11    13    12   ar
    12    27    25    1
    13    25    23   am
    14    15    16   ar
    15    12    11   ar
    16    12    17   ar
    17    11    10   ar
    18    22    23    1
    19    22    21    1
    20    23    24    2
    21    16    17   ar
    22    16    21    1
    23     8     7    2
    24     8     9    1
    25    17    18   ar
    26     7     6    1
    27    10     9    1
    28    10    20   ar
    29     9     4    2
    30     6     5    2
    31    18    20   ar
    32    18    19    2
    33    20     1    1
    34     4     5    1
    35     4     3    1
    36     3     1    1
    37     1     2    1
    38     1    34    1
    39    34    35    1
