@<TRIPOS>MOLECULE
78172_out_ligand_01.pdbqt
 31 34 0 0 0
SMALL
GASTEIGER

@<TRIPOS>ATOM
      1  C         23.2090  -22.1200  -12.4760 C.2     1  UNL1        0.0330
      2  C         23.3860  -22.8850  -11.3250 C.2     1  UNL1        0.0190
      3  C         22.3200  -23.0710  -10.4360 C.2     1  UNL1        0.0310
      4  C         21.0540  -22.5080  -10.6690 C.2     1  UNL1        0.0430
      5  C         20.8940  -21.7130  -11.8250 C.2     1  UNL1       -0.0300
      6  C         21.9720  -21.5170  -12.7100 C.2     1  UNL1        0.0260
      7  C         19.5970  -21.0150  -12.1400 C.3     1  UNL1        0.0420
      8  C         18.4350  -21.6790  -11.4330 C.3     1  UNL1        0.0250
      9  C         18.7730  -21.8390   -9.9620 C.3     1  UNL1        0.1330
     10  N         19.9580  -22.6840   -9.7480 N.am    1  UNL1       -0.3130
     11  C         19.9970  -23.6230   -8.6990 C.2     1  UNL1        0.2610
     12  O         20.7420  -24.6000   -8.6340 O.2     1  UNL1       -0.2670
     13  C         24.3140  -21.8930  -13.4510 C.2     1  UNL1        0.2560
     14  N         23.9010  -21.5360  -14.7220 N.am    1  UNL1       -0.3220
     15  H         22.9130  -21.3550  -14.8320 H       1  UNL1        0.1690
     16  O         25.4670  -21.9980  -13.0530 O.2     1  UNL1       -0.2670
     17  C         24.7050  -21.2990  -15.8630 C.2     1  UNL1        0.0420
     18  C         25.4320  -20.1140  -16.0350 C.2     1  UNL1        0.0540
     19  C         26.2190  -19.9230  -17.1720 C.2     1  UNL1        0.0360
     20  C         26.2990  -20.9040  -18.1520 C.2     1  UNL1        0.0240
     21 CL         27.1060  -18.4590  -17.3650 Cl      1  UNL1       -0.0840
     22  C         25.5860  -22.0900  -17.9940 C.2     1  UNL1        0.0110
     23  C         24.7870  -22.3040  -16.8560 C.2     1  UNL1       -0.0350
     24  C         24.0430  -23.6090  -16.7470 C.3     1  UNL1        0.0500
     25  C         19.0410  -23.4880   -7.5810 C.2     1  UNL1        0.0710
     26  C         18.0100  -24.4270   -7.4500 C.2     1  UNL1        0.0200
     27  C         17.1170  -24.3330   -6.3820 C.2     1  UNL1        0.0010
     28  C         17.2610  -23.3130   -5.4370 C.2     1  UNL1        0.0030
     29  C         18.3030  -22.3930   -5.5550 C.2     1  UNL1        0.0430
     30  C         19.1940  -22.4890   -6.6220 C.2     1  UNL1        0.1320
     31  F         20.1960  -21.6030   -6.7030 F       1  UNL1       -0.2050
@<TRIPOS>BOND
     1    20    22    2
     2    20    19    1
     3    22    23    1
     4    21    19    1
     5    19    18    2
     6    23    24    1
     7    23    17    2
     8    18    17    1
     9    17    14    1
    10    15    14    1
    11    14    13   am
    12    13    16    2
    13    13     1    1
    14     6     1    2
    15     6     5    1
    16     1     2    1
    17     7     5    1
    18     7     8    1
    19     5     4    2
    20     8     9    1
    21     2     3    2
    22     4     3    1
    23     4    10    1
    24     9    10    1
    25    10    11   am
    26    11    12    2
    27    11    25    1
    28    25    26    2
    29    25    30    1
    30    26    27    1
    31    31    30    1
    32    30    29    2
    33    27    28    2
    34    29    28    1
