@<TRIPOS>MOLECULE
78186_out_ligand_01.pdbqt
 28 31 0 0 0
SMALL
GASTEIGER

@<TRIPOS>ATOM
      1  C         19.5830  -20.6800   -5.7310 C.3     1  UNL1        0.0510
      2  C         19.3300  -21.9250   -6.5110 C.ar    1  UNL1       -0.0220
      3  C         18.1790  -22.7110   -6.5070 C.ar    1  UNL1        0.0520
      4  N         18.3900  -23.7170   -7.4280 N.ar    1  UNL1       -0.3540
      5  C         19.6430  -23.6400   -7.9810 C.ar    1  UNL1        0.0430
      6  C         20.2650  -24.4640   -8.9240 C.2     1  UNL1        0.0310
      7  C         21.5660  -24.1340   -9.3170 C.2     1  UNL1        0.0110
      8  C         22.2260  -23.0170   -8.7920 C.2     1  UNL1       -0.0290
      9  C         21.5710  -22.2100   -7.8430 C.2     1  UNL1        0.0230
     10  C         20.2590  -22.5230   -7.4280 C.ar    1  UNL1       -0.0010
     11  H         17.7070  -24.4230   -7.6610 H       1  UNL1        0.1660
     12  C         23.6300  -22.6710   -9.2330 C.3     1  UNL1        0.3080
     13  N         23.6170  -21.9740  -10.5160 N.3     1  UNL1        0.0910
     14  H         24.2860  -21.2060  -10.4840 H       1  UNL1        0.3160
     15  C         23.9670  -22.8760  -11.6060 C.3     1  UNL1        0.3110
     16  C         23.8710  -22.1150  -12.8790 C.2     1  UNL1        0.0060
     17  C         22.7680  -21.3700  -13.3570 C.2     1  UNL1        0.1490
     18  N         22.9940  -20.8220  -14.5540 N.2     1  UNL1       -0.1850
     19  N         24.2560  -21.1900  -14.8360 N.pl3   1  UNL1       -0.2850
     20  C         24.8630  -20.7530  -16.0690 C.3     1  UNL1        0.1790
     21  C         24.8210  -21.9710  -13.8710 C.2     1  UNL1        0.1220
     22  C         16.9200  -22.6170   -5.7520 C.2     1  UNL1        0.0300
     23  C         15.7030  -22.3980   -6.4120 C.2     1  UNL1        0.0170
     24  C         14.5030  -22.3080   -5.6960 C.2     1  UNL1        0.0010
     25  C         14.5030  -22.4270   -4.3070 C.2     1  UNL1        0.0030
     26  C         15.7040  -22.6300   -3.6330 C.2     1  UNL1        0.0430
     27  C         16.8950  -22.7190   -4.3530 C.2     1  UNL1        0.1280
     28  F         18.0340  -22.8970   -3.6630 F       1  UNL1       -0.2050
@<TRIPOS>BOND
     1    20    19    1
     2    19    18    1
     3    19    21    1
     4    18    17    2
     5    21    16    2
     6    17    16    1
     7    16    15    1
     8    15    13    1
     9    13    14    1
    10    13    12    1
    11     7     6    1
    12     7     8    2
    13    12     8    1
    14     6     5    2
    15     8     9    1
    16     5    10   ar
    17     5     4   ar
    18     9    10    2
    19    11     4    1
    20    10     2   ar
    21     4     3   ar
    22     2     3   ar
    23     2     1    1
    24     3    22    1
    25    23    22    2
    26    23    24    1
    27    22    27    1
    28    24    25    2
    29    27    28    1
    30    27    26    2
    31    25    26    1
