@<TRIPOS>MOLECULE
78181_out_ligand_01.pdbqt
 35 39 0 0 0
SMALL
GASTEIGER

@<TRIPOS>ATOM
      1  C         22.1160  -23.0330   -9.8930 C.2     1  UNL1        0.0760
      2  C         21.9150  -24.2170   -9.1550 C.2     1  UNL1        0.1590
      3  N         20.6380  -24.4380   -8.8480 N.2     1  UNL1       -0.1640
      4  N         19.9710  -23.3460   -9.3390 N.pl3   1  UNL1       -0.0630
      5  C         20.8380  -22.5210  -10.0470 C.2     1  UNL1        0.0760
      6  C         18.5590  -23.1640   -9.0950 C.cat   1  UNL1        0.7500
      7  N         17.7500  -22.9790  -10.1610 N.2     1  UNL1       -0.0730
      8  C         16.4430  -22.8110   -9.9070 C.2     1  UNL1        0.1390
      9  C         15.9100  -22.8150   -8.6420 C.2     1  UNL1        0.0530
     10  C         16.7950  -23.0060   -7.6010 C.2     1  UNL1        0.0900
     11  N         18.1160  -23.1990   -7.8200 N.2     1  UNL1       -0.0600
     12  C         16.3680  -23.0570   -6.1860 C.2     1  UNL1        0.0270
     13  C         15.3610  -23.9720   -5.8080 C.2     1  UNL1        0.0160
     14  C         14.8930  -24.0490   -4.4930 C.2     1  UNL1        0.0010
     15  C         15.4260  -23.2050   -3.5270 C.2     1  UNL1        0.0030
     16  C         16.4330  -22.3000   -3.8660 C.2     1  UNL1        0.0370
     17  C         16.9240  -22.2320   -5.1780 C.2     1  UNL1        0.0800
     18  O         17.9500  -21.3990   -5.5600 O.2     1  UNL1       -0.3550
     19  C         18.8560  -20.9610   -4.5540 C.3     1  UNL1        0.2100
     20  C         20.4750  -21.2450  -10.8730 C.3     1  UNL1        0.0390
     21  C         20.9140  -21.1580  -12.3150 C.3     1  UNL1        0.0110
     22  C         19.4700  -21.3620  -11.9910 C.3     1  UNL1        0.0110
     23  C         23.3670  -22.4680  -10.3640 C.2     1  UNL1        0.2550
     24  N         23.9890  -23.2220  -11.3320 N.am    1  UNL1       -0.3530
     25  H         23.5120  -24.0210  -11.7290 H       1  UNL1        0.1630
     26  O         23.8360  -21.4280   -9.9160 O.2     1  UNL1       -0.2680
     27  C         25.2310  -22.8120  -11.9420 C.3     1  UNL1        0.1610
     28  C         25.1720  -23.0240  -13.4310 C.2     1  UNL1       -0.0400
     29  C         25.5110  -24.2710  -13.9770 C.2     1  UNL1        0.0110
     30  C         25.4400  -24.4900  -15.3580 C.2     1  UNL1        0.0370
     31  C         25.0210  -23.4670  -16.2080 C.2     1  UNL1        0.0680
     32  C         24.6740  -22.2270  -15.6660 C.2     1  UNL1        0.0370
     33  C         24.7450  -22.0050  -14.2890 C.2     1  UNL1        0.0110
     34  O         24.9110  -23.5460  -17.5700 O.2     1  UNL1       -0.3560
     35  C         23.5970  -23.5960  -18.1040 C.3     1  UNL1        0.2100
@<TRIPOS>BOND
     1    35    34    1
     2    34    31    1
     3    31    32    2
     4    31    30    1
     5    32    33    1
     6    30    29    2
     7    33    28    2
     8    29    28    1
     9    28    27    1
    10    21    22    1
    11    21    20    1
    12    22    20    1
    13    27    24    1
    14    25    24    1
    15    24    23   am
    16    20     5    1
    17    23    26    2
    18    23     1    1
    19     7     8    1
    20     7     6    2
    21     5     1    2
    22     5     4    1
    23     8     9    2
    24     1     2    1
    25     4     6    1
    26     4     3    1
    27     2     3    2
    28     6    11    1
    29     9    10    1
    30    11    10    2
    31    10    12    1
    32    12    13    2
    33    12    17    1
    34    13    14    1
    35    18    17    1
    36    18    19    1
    37    17    16    2
    38    14    15    2
    39    16    15    1
