@<TRIPOS>MOLECULE
7819_out_ligand_01.pdbqt
 36 39 0 0 0
SMALL
GASTEIGER

@<TRIPOS>ATOM
      1  C         24.0020  -22.0160  -12.1590 C.2     1  UNL1        0.0860
      2  C         22.7330  -21.7480  -11.6180 C.2     1  UNL1        0.0420
      3  C         21.7060  -21.2640  -12.4340 C.2     1  UNL1        0.0340
      4  C         21.9430  -21.0600  -13.7980 C.2     1  UNL1        0.0170
      5  C         23.2060  -21.3220  -14.3340 C.2     1  UNL1        0.0090
      6  C         24.2530  -21.8080  -13.5310 C.2     1  UNL1       -0.0390
      7  C         25.5850  -22.0510  -14.1830 C.3     1  UNL1        0.0500
      8  C         20.3670  -21.0160  -11.8260 C.2     1  UNL1        0.2570
      9  O         20.0860  -19.8720  -11.4910 O.2     1  UNL1       -0.2670
     10  N         19.5600  -22.1240  -11.7300 N.am    1  UNL1       -0.3000
     11  H         19.8260  -23.0050  -12.1410 H       1  UNL1        0.1710
     12  C         18.3350  -22.0750  -11.1200 C.ar    1  UNL1        0.1970
     13  N         17.3430  -21.2320  -11.2650 N.ar    1  UNL1       -0.1220
     14  N         16.2910  -21.5320  -10.4160 N.ar    1  UNL1       -0.1330
     15  C         16.5340  -22.5980   -9.6890 C.ar    1  UNL1        0.1600
     16  S         18.0730  -23.3050   -9.9640 S.2     1  UNL1       -0.0220
     17  S         15.3950  -23.2140   -8.5180 S.3     1  UNL1       -0.0970
     18  C         16.5280  -24.0650   -7.3870 C.3     1  UNL1        0.1200
     19  C         16.4390  -23.5750   -5.9650 C.2     1  UNL1       -0.0490
     20  C         17.4820  -23.8160   -5.0580 C.2     1  UNL1        0.0080
     21  C         17.3990  -23.3580   -3.7430 C.2     1  UNL1        0.0010
     22  C         16.2730  -22.6540   -3.3170 C.2     1  UNL1        0.0000
     23  C         15.2250  -22.4130   -4.2050 C.2     1  UNL1        0.0010
     24  C         15.3060  -22.8750   -5.5210 C.2     1  UNL1        0.0080
     25  S         25.2680  -22.5960  -11.0310 S.O2    1  UNL1        0.2630
     26  O         26.2260  -23.3720  -11.7930 O.2     1  UNL1       -0.2000
     27  O         25.7140  -21.4710  -10.2360 O.2     1  UNL1       -0.2000
     28  N         24.4410  -23.6840  -10.0430 N.pl3   1  UNL1       -0.2810
     29  H         24.4480  -24.6340  -10.4090 H       1  UNL1        0.1790
     30  C         23.2960  -23.2460   -9.3230 C.2     1  UNL1        0.0420
     31  C         22.1450  -24.0280   -9.2520 C.2     1  UNL1        0.0300
     32  C         21.0510  -23.5960   -8.4990 C.2     1  UNL1        0.0090
     33  C         21.0940  -22.3730   -7.8210 C.2     1  UNL1       -0.0620
     34  C         19.9340  -21.9350   -6.9760 C.3     1  UNL1        0.0480
     35  C         22.2550  -21.5950   -7.8940 C.2     1  UNL1        0.0090
     36  C         23.3510  -22.0270   -8.6460 C.2     1  UNL1        0.0300
@<TRIPOS>BOND
     1     5     4    2
     2     5     6    1
     3     7     6    1
     4     4     3    1
     5     6     1    2
     6     3     8    1
     7     3     2    2
     8     1     2    1
     9     1    25    1
    10    11    10    1
    11     8    10   am
    12     8     9    2
    13    26    25    2
    14    10    12    1
    15    13    12   ar
    16    13    14   ar
    17    12    16   ar
    18    25    27    2
    19    25    28    1
    20    14    15   ar
    21    29    28    1
    22    28    30    1
    23    16    15   ar
    24    15    17    1
    25    30    31    2
    26    30    36    1
    27    31    32    1
    28    36    35    2
    29    17    18    1
    30    32    33    2
    31    35    33    1
    32    33    34    1
    33    18    19    1
    34    19    24    2
    35    19    20    1
    36    24    23    1
    37    20    21    2
    38    23    22    2
    39    21    22    1
