@<TRIPOS>MOLECULE
78199_out_ligand_01.pdbqt
 33 37 0 0 0
SMALL
GASTEIGER

@<TRIPOS>ATOM
      1  C         21.2290  -21.7080  -10.5490 C.2     1  UNL1        0.0760
      2  C         20.3840  -21.0290  -11.4500 C.2     1  UNL1        0.1590
      3  N         19.0910  -21.2780  -11.2550 N.2     1  UNL1       -0.1640
      4  N         19.0590  -22.0730  -10.1400 N.pl3   1  UNL1       -0.0630
      5  C         20.3470  -22.4250   -9.7550 C.2     1  UNL1        0.0760
      6  C         17.8100  -22.4250   -9.5110 C.cat   1  UNL1        0.7500
      7  N         16.7370  -22.6410  -10.3040 N.2     1  UNL1       -0.0730
      8  C         15.5840  -22.9490   -9.6920 C.2     1  UNL1        0.1390
      9  C         15.4510  -23.0480   -8.3280 C.2     1  UNL1        0.0530
     10  C         16.5860  -22.8160   -7.5770 C.2     1  UNL1        0.0900
     11  N         17.7630  -22.4940   -8.1630 N.2     1  UNL1       -0.0600
     12  C         16.6120  -22.8700   -6.1020 C.2     1  UNL1        0.0320
     13  C         17.6920  -23.4740   -5.4260 C.2     1  UNL1        0.0170
     14  C         17.7380  -23.5390   -4.0290 C.2     1  UNL1        0.0010
     15  C         16.7010  -23.0040   -3.2700 C.2     1  UNL1        0.0030
     16  C         15.6190  -22.4080   -3.9110 C.2     1  UNL1        0.0430
     17  C         15.5810  -22.3470   -5.3050 C.2     1  UNL1        0.1290
     18  F         14.5040  -21.7780   -5.8700 F       1  UNL1       -0.2050
     19  C         20.7540  -23.4160   -8.6210 C.3     1  UNL1        0.0390
     20  C         21.8870  -24.3850   -8.8550 C.3     1  UNL1        0.0110
     21  C         20.4820  -24.8910   -8.7980 C.3     1  UNL1        0.0110
     22  C         22.6780  -21.6590  -10.4510 C.2     1  UNL1        0.2550
     23  O         23.2700  -21.0550   -9.5620 O.2     1  UNL1       -0.2680
     24  N         23.3400  -22.3600  -11.4390 N.am    1  UNL1       -0.3560
     25  H         22.8090  -23.0110  -12.0000 H       1  UNL1        0.1620
     26  C         24.7860  -22.4660  -11.4260 C.3     1  UNL1        0.1270
     27  C         25.4470  -21.7390  -12.6000 C.3     1  UNL1        0.0600
     28  C         25.1390  -22.3520  -13.9410 C.2     1  UNL1       -0.0390
     29  C         25.5550  -23.6460  -14.2720 C.2     1  UNL1        0.0100
     30  C         25.2580  -24.1670  -15.5270 C.2     1  UNL1        0.0200
     31  C         24.5500  -23.3770  -16.4150 C.2     1  UNL1        0.1160
     32  N         24.1250  -22.1270  -16.1320 N.2     1  UNL1       -0.2730
     33  C         24.4240  -21.6480  -14.9050 C.2     1  UNL1        0.1230
@<TRIPOS>BOND
     1    31    32    2
     2    31    30    1
     3    32    33    1
     4    30    29    2
     5    33    28    2
     6    29    28    1
     7    28    27    1
     8    27    26    1
     9    25    24    1
    10     2     3    2
    11     2     1    1
    12    24    26    1
    13    24    22   am
    14     3     4    1
    15     1    22    1
    16     1     5    2
    17    22    23    2
    18     7     8    1
    19     7     6    2
    20     4     5    1
    21     4     6    1
    22     5    19    1
    23     8     9    2
    24     6    11    1
    25    20    21    1
    26    20    19    1
    27    21    19    1
    28     9    10    1
    29    11    10    2
    30    10    12    1
    31    12    13    2
    32    12    17    1
    33    18    17    1
    34    13    14    1
    35    17    16    2
    36    14    15    2
    37    16    15    1
