@<TRIPOS>MOLECULE
78203_out_ligand_01.pdbqt
 31 35 0 0 0
SMALL
GASTEIGER

@<TRIPOS>ATOM
      1  C         23.0760  -22.7190  -11.6380 C.ar    1  UNL1        0.1140
      2  N         21.7870  -22.5960  -11.2700 N.ar    1  UNL1       -0.2160
      3  C         20.9980  -21.7800  -11.9940 C.ar    1  UNL1        0.1630
      4  N         21.4040  -21.0890  -13.0700 N.ar    1  UNL1       -0.2310
      5  C         22.7020  -21.2040  -13.4130 C.ar    1  UNL1        0.0740
      6  C         23.5890  -22.0250  -12.7250 C.ar    1  UNL1        0.0100
      7  C         25.0460  -22.0610  -13.1110 C.3     1  UNL1        0.0740
      8  C         25.3210  -21.4430  -14.4880 C.3     1  UNL1        0.2750
      9  N         24.6120  -20.1750  -14.6720 N.3     1  UNL1        0.0890
     10  C         23.1610  -20.4200  -14.6250 C.3     1  UNL1        0.3290
     11  H         24.8520  -19.5400  -13.9100 H       1  UNL1        0.3160
     12  N         23.9360  -23.5120  -10.8620 N.pl3   1  UNL1       -0.2700
     13  H         23.7740  -24.4990  -11.0520 H       1  UNL1        0.1290
     14  C         23.9120  -23.2980   -9.4140 C.3     1  UNL1        0.1720
     15  C         22.5470  -23.3350   -8.7990 C.ar    1  UNL1        0.1180
     16  N         22.0300  -22.2510   -8.1330 N.ar    1  UNL1       -0.3420
     17  C         20.7690  -22.5680   -7.7040 C.ar    1  UNL1        0.0620
     18  H         22.4980  -21.3610   -8.0300 H       1  UNL1        0.1670
     19  C         19.8120  -21.8520   -6.9860 C.2     1  UNL1        0.0320
     20  C         20.5730  -23.8670   -8.1570 C.ar    1  UNL1        0.0860
     21  C         18.6030  -22.5100   -6.7230 C.2     1  UNL1        0.0090
     22  C         18.3590  -23.8170   -7.1720 C.2     1  UNL1       -0.0600
     23  C         17.0650  -24.5000   -6.8410 C.3     1  UNL1        0.0480
     24  C         19.3560  -24.5100   -7.8840 C.2     1  UNL1        0.0400
     25  N         21.6750  -24.3240   -8.8380 N.ar    1  UNL1       -0.2320
     26  C         19.5930  -21.6590  -11.5930 C.2     1  UNL1        0.0290
     27  C         18.9200  -22.6620  -10.8790 C.2     1  UNL1        0.0180
     28  C         17.5860  -22.4980  -10.5030 C.2     1  UNL1        0.0200
     29  C         16.9470  -21.3220  -10.8520 C.2     1  UNL1        0.1160
     30  N         17.5430  -20.3280  -11.5400 N.2     1  UNL1       -0.2720
     31  C         18.8380  -20.5250  -11.8960 C.2     1  UNL1        0.1310
@<TRIPOS>BOND
     1     9    10    1
     2     9     8    1
     3     9    11    1
     4    10     5    1
     5     8     7    1
     6     5     4   ar
     7     5     6   ar
     8     7     6    1
     9     4     3   ar
    10     6     1   ar
    11     3    26    1
    12     3     2   ar
    13    31    26    2
    14    31    30    1
    15     1     2   ar
    16     1    12    1
    17    26    27    1
    18    30    29    2
    19    13    12    1
    20    27    28    2
    21    12    14    1
    22    29    28    1
    23    14    15    1
    24    25    15   ar
    25    25    20   ar
    26    15    16   ar
    27    20    24    1
    28    20    17   ar
    29    16    18    1
    30    16    17   ar
    31    24    22    2
    32    17    19    1
    33    22    23    1
    34    22    21    1
    35    19    21    2
