@<TRIPOS>MOLECULE
78205_out_ligand_01.pdbqt
 33 38 0 0 0
SMALL
GASTEIGER

@<TRIPOS>ATOM
      1  C         22.9500  -22.0560  -12.1840 C.2     1  UNL1        0.0760
      2  C         23.6040  -22.9720  -11.3410 C.3     1  UNL1        0.1590
      3  N         22.9230  -23.2610  -10.2410 N.3     1  UNL1       -0.1640
      4  N         21.8390  -22.4180  -10.2680 N.pl3   1  UNL1       -0.0630
      5  C         21.7440  -21.8020  -11.5230 C.2     1  UNL1        0.0760
      6  C         21.0530  -22.2740   -9.0630 C.cat   1  UNL1        0.7500
      7  N         21.6020  -21.7610   -7.9590 N.2     1  UNL1       -0.0730
      8  C         20.8130  -21.7040   -6.8720 C.2     1  UNL1        0.1460
      9  C         19.4930  -22.1400   -6.8020 C.2     1  UNL1       -0.0100
     10  C         18.9970  -22.6740   -7.9820 C.2     1  UNL1        0.0940
     11  C         18.8210  -21.9760   -5.4720 C.3     1  UNL1        0.0430
     12  N         19.7840  -22.7370   -9.0900 N.2     1  UNL1       -0.0600
     13  C         17.6340  -23.2310   -8.2310 C.2     1  UNL1        0.0000
     14  C         17.1200  -23.2020   -9.5530 C.2     1  UNL1        0.0140
     15  C         16.8110  -23.8270   -7.2510 C.2     1  UNL1       -0.0460
     16  C         15.8740  -23.7360   -9.8940 C.2     1  UNL1        0.0010
     17  C         15.0940  -24.3300   -8.9190 C.2     1  UNL1        0.0010
     18  C         15.5570  -24.3740   -7.6070 C.2     1  UNL1        0.0080
     19  C         17.1990  -23.8770   -5.7960 C.3     1  UNL1        0.0400
     20  C         17.3920  -22.4590   -5.2810 C.3     1  UNL1        0.0090
     21  C         20.5700  -21.0270  -12.2310 C.3     1  UNL1        0.0390
     22  C         19.1230  -21.4050  -12.1540 C.3     1  UNL1        0.0110
     23  C         19.6240  -20.1770  -11.4350 C.3     1  UNL1        0.0110
     24  C         23.4050  -21.5160  -13.4660 C.2     1  UNL1        0.2550
     25  O         22.6510  -20.9620  -14.2640 O.2     1  UNL1       -0.2680
     26  N         24.7540  -21.6520  -13.7210 N.am    1  UNL1       -0.3510
     27  H         25.3830  -22.0360  -13.0300 H       1  UNL1        0.1630
     28  C         25.3590  -21.0650  -14.8990 C.3     1  UNL1        0.1870
     29  C         24.9630  -21.8500  -16.0960 C.2     1  UNL1        0.0700
     30  C         24.9550  -23.1990  -16.3980 C.2     1  UNL1        0.0360
     31  C         24.4680  -23.3080  -17.7240 C.2     1  UNL1        0.0270
     32  C         24.2230  -22.0240  -18.1530 C.2     1  UNL1        0.1420
     33  O         24.5130  -21.1340  -17.1700 O.2     1  UNL1       -0.3250
@<TRIPOS>BOND
     1    32    31    2
     2    32    33    1
     3    31    30    1
     4    33    29    1
     5    30    29    2
     6    29    28    1
     7    28    26    1
     8    25    24    2
     9    26    24   am
    10    26    27    1
    11    24     1    1
    12    21    22    1
    13    21     5    1
    14    21    23    1
    15     1     5    2
    16     1     2    1
    17    22    23    1
    18     5     4    1
    19     2     3    1
    20     4     3    1
    21     4     6    1
    22    16    14    1
    23    16    17    2
    24    14    13    2
    25    12     6    1
    26    12    10    2
    27     6     7    2
    28    17    18    1
    29    13    10    1
    30    13    15    1
    31    10     9    1
    32     7     8    1
    33    18    15    2
    34    15    19    1
    35     8     9    2
    36     9    11    1
    37    19    20    1
    38    11    20    1
