@<TRIPOS>MOLECULE
78212_out_ligand_01.pdbqt
 33 37 0 0 0
SMALL
GASTEIGER

@<TRIPOS>ATOM
      1  N         20.0080  -23.3110   -9.3690 N.pl3   1  UNL1       -0.0630
      2  N         20.6570  -24.4000   -8.8540 N.2     1  UNL1       -0.1640
      3  C         21.9410  -24.1870   -9.1390 C.2     1  UNL1        0.1590
      4  C         22.1640  -23.0150   -9.8920 C.2     1  UNL1        0.0760
      5  C         20.8890  -22.5110  -10.0890 C.2     1  UNL1        0.0760
      6  C         18.6060  -23.0850   -9.1020 C.cat   1  UNL1        0.7500
      7  N         17.7760  -22.9200  -10.1590 N.2     1  UNL1       -0.0730
      8  C         16.4650  -22.7980   -9.8940 C.2     1  UNL1        0.1390
      9  C         15.9450  -22.8290   -8.6260 C.2     1  UNL1        0.0530
     10  C         16.8570  -22.9850   -7.6030 C.2     1  UNL1        0.0900
     11  N         18.1840  -23.1080   -7.8210 N.2     1  UNL1       -0.0600
     12  C         16.4430  -23.0440   -6.2000 C.2     1  UNL1        0.0270
     13  C         15.3590  -23.8540   -5.8170 C.2     1  UNL1        0.0160
     14  C         14.9610  -23.9390   -4.4800 C.2     1  UNL1        0.0010
     15  C         15.6440  -23.2180   -3.5000 C.2     1  UNL1        0.0030
     16  C         16.7190  -22.4030   -3.8580 C.2     1  UNL1        0.0370
     17  C         17.0990  -22.3040   -5.1990 C.2     1  UNL1        0.0800
     18  O         18.1700  -21.5010   -5.5060 O.2     1  UNL1       -0.3550
     19  C         18.7360  -20.9690   -4.3060 C.3     1  UNL1        0.2100
     20  C         20.5310  -21.2390  -10.9190 C.3     1  UNL1        0.0390
     21  C         19.6180  -21.3760  -12.1150 C.3     1  UNL1        0.0110
     22  C         21.0700  -21.0830  -12.3210 C.3     1  UNL1        0.0110
     23  C         23.4280  -22.4510  -10.3350 C.2     1  UNL1        0.2550
     24  O         23.8530  -21.3640   -9.9530 O.2     1  UNL1       -0.2680
     25  N         24.1240  -23.2260  -11.2280 N.am    1  UNL1       -0.3510
     26  H         23.6870  -24.0170  -11.6830 H       1  UNL1        0.1630
     27  C         25.3390  -22.7310  -11.8380 C.3     1  UNL1        0.1900
     28  C         25.0690  -22.4100  -13.2780 C.2     1  UNL1        0.0920
     29  N         24.9920  -23.3060  -14.2450 N.2     1  UNL1       -0.2490
     30  C         24.7200  -22.6800  -15.4520 C.2     1  UNL1        0.0380
     31  C         24.5940  -23.5190  -16.6730 C.3     1  UNL1        0.0710
     32  C         24.5950  -21.3050  -15.3740 C.2     1  UNL1        0.0780
     33  S         24.8170  -20.7770  -13.7590 S.3     1  UNL1       -0.0830
@<TRIPOS>BOND
     1    31    30    1
     2    30    32    2
     3    30    29    1
     4    32    33    1
     5    29    28    2
     6    33    28    1
     7    28    27    1
     8    22    21    1
     9    22    20    1
    10    21    20    1
    11    27    25    1
    12    26    25    1
    13    25    23   am
    14    20     5    1
    15    23    24    2
    16    23     4    1
    17     7     8    1
    18     7     6    2
    19     5     4    2
    20     5     1    1
    21     8     9    2
    22     4     3    1
    23     1     6    1
    24     1     2    1
    25     3     2    2
    26     6    11    1
    27     9    10    1
    28    11    10    2
    29    10    12    1
    30    12    13    2
    31    12    17    1
    32    13    14    1
    33    18    17    1
    34    18    19    1
    35    17    16    2
    36    14    15    2
    37    16    15    1
