@<TRIPOS>MOLECULE
78216_out_ligand_01.pdbqt
 34 38 0 0 0
SMALL
GASTEIGER

@<TRIPOS>ATOM
      1  C         18.8250  -21.9340  -10.2310 C.2     1  UNL1        0.0760
      2  C         18.9110  -21.2700  -11.4730 C.2     1  UNL1        0.1590
      3  N         20.1410  -21.2460  -11.9800 N.2     1  UNL1       -0.1640
      4  N         20.9190  -21.8400  -11.0220 N.pl3   1  UNL1       -0.0630
      5  C         20.1260  -22.3560  -10.0040 C.2     1  UNL1        0.0760
      6  C         17.6670  -22.1300   -9.3750 C.2     1  UNL1        0.2560
      7  O         16.5110  -22.0420   -9.7740 O.2     1  UNL1       -0.2680
      8  N         17.9530  -22.4140   -8.0590 N.am    1  UNL1       -0.3400
      9  H         18.9100  -22.5130   -7.7520 H       1  UNL1        0.1630
     10  C         16.8810  -22.7720   -7.1160 C.3     1  UNL1        0.2270
     11  C         17.2850  -22.2850   -5.7360 C.2     1  UNL1       -0.0090
     12  C         18.4490  -21.5150   -5.5890 C.2     1  UNL1        0.0120
     13  C         18.8500  -21.0830   -4.3290 C.2     1  UNL1        0.0200
     14  C         18.0770  -21.4430   -3.2400 C.2     1  UNL1        0.1160
     15  N         16.9590  -22.1920   -3.3350 N.2     1  UNL1       -0.2720
     16  C         16.5870  -22.5940   -4.5710 C.2     1  UNL1        0.1250
     17  C         16.4660  -24.2670   -7.2010 C.3     1  UNL1        0.4110
     18  F         15.2990  -24.4970   -6.5570 F       1  UNL1       -0.1680
     19  F         17.4060  -25.0660   -6.6360 F       1  UNL1       -0.1680
     20  F         16.3090  -24.6820   -8.4760 F       1  UNL1       -0.1680
     21  C         20.5960  -23.2330   -8.8020 C.3     1  UNL1        0.0390
     22  C         21.6990  -24.2400   -9.0150 C.3     1  UNL1        0.0110
     23  C         20.2970  -24.7130   -8.8030 C.3     1  UNL1        0.0110
     24  C         22.3570  -21.8570  -11.1350 C.cat   1  UNL1        0.7500
     25  N         23.0790  -21.3460  -10.1120 N.2     1  UNL1       -0.0730
     26  C         24.4150  -21.3860  -10.2300 C.2     1  UNL1        0.1390
     27  C         25.0650  -21.9120  -11.3170 C.2     1  UNL1        0.0530
     28  C         24.2610  -22.4190  -12.3170 C.2     1  UNL1        0.0940
     29  N         22.9120  -22.4040  -12.2370 N.2     1  UNL1       -0.0600
     30  C         24.7750  -23.0380  -13.5510 C.2     1  UNL1        0.0340
     31  C         25.2910  -24.3150  -13.7140 C.2     1  UNL1        0.0210
     32  C         25.6870  -24.5940  -15.0530 C.2     1  UNL1        0.0080
     33  C         25.4580  -23.5240  -15.8860 C.2     1  UNL1        0.0500
     34  S         24.7720  -22.2010  -15.0530 S.3     1  UNL1       -0.1000
@<TRIPOS>BOND
     1    33    34    1
     2    33    32    2
     3    34    30    1
     4    32    31    1
     5    31    30    2
     6    30    28    1
     7    28    29    2
     8    28    27    1
     9    29    24    1
    10     3     2    2
    11     3     4    1
    12     2     1    1
    13    27    26    2
    14    24     4    1
    15    24    25    2
    16     4     5    1
    17     1     5    2
    18     1     6    1
    19    26    25    1
    20     5    21    1
    21     7     6    2
    22     6     8   am
    23    22    23    1
    24    22    21    1
    25    23    21    1
    26    20    17    1
    27     8     9    1
    28     8    10    1
    29    17    10    1
    30    17    19    1
    31    17    18    1
    32    10    11    1
    33    11    12    2
    34    11    16    1
    35    12    13    1
    36    16    15    2
    37    13    14    2
    38    15    14    1
