@<TRIPOS>MOLECULE
78230_out_ligand_01.pdbqt
 36 40 0 0 0
SMALL
GASTEIGER

@<TRIPOS>ATOM
      1  N         16.6650  -22.8150  -10.1030 N.pl3   1  UNL1       -0.2700
      2  C         17.8210  -23.3230  -10.6230 C.2     1  UNL1        0.1440
      3  C         18.5860  -22.2390  -10.9810 C.2     1  UNL1        0.0710
      4  C         17.7950  -21.1180  -10.6480 C.2     1  UNL1        0.1690
      5  N         16.6190  -21.4650  -10.1100 N.2     1  UNL1       -0.1820
      6  C         15.5470  -23.5650   -9.5650 C.3     1  UNL1        0.2530
      7  C         15.6930  -23.7970   -8.0770 C.2     1  UNL1        0.2370
      8  O         16.1750  -24.8350   -7.6340 O.2     1  UNL1       -0.2720
      9  N         15.1880  -22.7930   -7.2800 N.am    1  UNL1       -0.3540
     10  H         14.9550  -21.9040   -7.7270 H       1  UNL1        0.1620
     11  C         15.2560  -22.8360   -5.8360 C.3     1  UNL1        0.1820
     12  C         16.5710  -22.3180   -5.3400 C.2     1  UNL1        0.0590
     13  C         16.9380  -22.0470   -4.0330 C.2     1  UNL1        0.0800
     14  S         18.5480  -21.4710   -3.9680 S.3     1  UNL1       -0.0840
     15  C         18.6450  -21.5850   -5.6810 C.2     1  UNL1        0.0790
     16  N         17.5560  -22.0300   -6.2770 N.2     1  UNL1       -0.2480
     17  C         19.9080  -21.2080   -6.3990 C.3     1  UNL1        0.1050
     18  C         20.4230  -22.2970   -7.3170 C.2     1  UNL1       -0.0520
     19  C         21.6810  -22.1740   -7.9230 C.2     1  UNL1        0.0070
     20  C         22.1620  -23.1790   -8.7640 C.2     1  UNL1        0.0010
     21  C         21.3910  -24.3150   -9.0070 C.2     1  UNL1        0.0000
     22  C         20.1410  -24.4480   -8.4060 C.2     1  UNL1        0.0010
     23  C         19.6580  -23.4450   -7.5640 C.2     1  UNL1        0.0070
     24  N         19.8450  -22.3360  -11.5410 N.am    1  UNL1       -0.3200
     25  C         20.6350  -21.2450  -11.8450 C.2     1  UNL1        0.2560
     26  O         20.3560  -20.0700  -11.6370 O.2     1  UNL1       -0.2670
     27  H         20.2200  -23.2700  -11.6500 H       1  UNL1        0.1690
     28  C         21.9560  -21.5760  -12.4430 C.2     1  UNL1        0.0350
     29  C         22.8760  -22.4120  -11.7710 C.2     1  UNL1        0.0200
     30  C         24.1160  -22.7060  -12.3490 C.2     1  UNL1        0.0410
     31  C         24.3930  -22.1600  -13.5840 C.2     1  UNL1        0.1050
     32  C         23.4920  -21.3570  -14.2430 C.2     1  UNL1        0.1060
     33  O         25.5430  -22.3360  -14.2880 O.2     1  UNL1       -0.3230
     34  C         22.2610  -21.0490  -13.7050 C.2     1  UNL1        0.0560
     35  O         23.9640  -20.9270  -15.4430 O.2     1  UNL1       -0.3230
     36  C         25.2530  -21.5720  -15.4790 C.3     1  UNL1        0.3520
@<TRIPOS>BOND
     1    36    35    1
     2    36    33    1
     3    35    32    1
     4    33    31    1
     5    32    34    1
     6    32    31    2
     7    34    28    2
     8    31    30    1
     9    28    25    1
    10    28    29    1
    11    30    29    2
    12    25    26    2
    13    25    24   am
    14    27    24    1
    15    24     3    1
    16     3     4    1
    17     3     2    2
    18     4     5    2
    19     2     1    1
    20     5     1    1
    21     1     6    1
    22     6     7    1
    23    21    20    2
    24    21    22    1
    25    20    19    1
    26    22    23    2
    27     7     8    2
    28     7     9   am
    29    19    18    2
    30    10     9    1
    31    23    18    1
    32    18    17    1
    33     9    11    1
    34    17    15    1
    35    16    15    2
    36    16    12    1
    37    11    12    1
    38    15    14    1
    39    12    13    2
    40    13    14    1
