@<TRIPOS>MOLECULE
78242_out_ligand_01.pdbqt
 29 32 0 0 0
SMALL
GASTEIGER

@<TRIPOS>ATOM
      1  O         15.4880  -23.7290   -9.8520 O.2     1  UNL1       -0.2660
      2  C         16.1600  -22.7800   -9.4580 C.2     1  UNL1        0.2730
      3  N         16.1690  -22.3320   -8.1590 N.am    1  UNL1       -0.3510
      4  H         16.8220  -21.5900   -7.9300 H       1  UNL1        0.1630
      5  C         17.0360  -22.0200  -10.3360 C.2     1  UNL1        0.1580
      6  C         18.3450  -22.3020  -10.6700 C.2     1  UNL1        0.1460
      7  N         18.7000  -21.2810  -11.4980 N.pl3   1  UNL1       -0.2820
      8  N         17.6850  -20.4190  -11.6840 N.2     1  UNL1        0.0050
      9  N         16.6550  -20.8580  -10.9720 N.2     1  UNL1       -0.1530
     10  C         19.9770  -21.0580  -12.1390 C.3     1  UNL1        0.1500
     11  C         21.1350  -21.5660  -11.2850 C.3     1  UNL1        0.0600
     12  C         22.3330  -21.9030  -12.1380 C.2     1  UNL1       -0.0570
     13  C         23.3030  -22.8050  -11.6790 C.2     1  UNL1        0.0070
     14  C         24.4250  -23.0920  -12.4590 C.2     1  UNL1        0.0010
     15  C         24.5900  -22.4750  -13.7000 C.2     1  UNL1        0.0000
     16  C         23.6330  -21.5730  -14.1630 C.2     1  UNL1        0.0010
     17  C         22.5100  -21.2860  -13.3850 C.2     1  UNL1        0.0070
     18  C         15.5230  -23.0470   -7.0860 C.3     1  UNL1        0.1710
     19  C         16.2650  -22.7810   -5.8180 C.2     1  UNL1        0.0310
     20  S         15.4000  -22.4010   -4.3720 S.3     1  UNL1       -0.0830
     21  C         16.8840  -22.2140   -3.5440 C.2     1  UNL1        0.1670
     22  N         17.9720  -22.4270   -4.2480 N.2     1  UNL1       -0.2520
     23  C         17.6250  -22.7670   -5.5480 C.2     1  UNL1        0.0820
     24  C         18.6610  -23.0440   -6.5290 C.2     1  UNL1       -0.0060
     25  C         18.6920  -24.2650   -7.2160 C.2     1  UNL1        0.0140
     26  C         19.6970  -24.5180   -8.1550 C.2     1  UNL1        0.0010
     27  C         20.6760  -23.5560   -8.4040 C.2     1  UNL1        0.0000
     28  C         20.6610  -22.3470   -7.7090 C.2     1  UNL1        0.0010
     29  C         19.6580  -22.0910   -6.7700 C.2     1  UNL1        0.0140
@<TRIPOS>BOND
     1    16    15    2
     2    16    17    1
     3    15    14    1
     4    17    12    2
     5    14    13    2
     6    10     7    1
     7    10    11    1
     8    12    13    1
     9    12    11    1
    10     8     7    1
    11     8     9    2
    12     7     6    1
    13     9     5    1
    14     6     5    2
    15     5     2    1
    16     1     2    2
    17     2     3   am
    18    27    26    2
    19    27    28    1
    20     3     4    1
    21     3    18    1
    22    26    25    1
    23    28    29    2
    24    25    24    2
    25    18    19    1
    26    29    24    1
    27    24    23    1
    28    19    23    2
    29    19    20    1
    30    23    22    1
    31    20    21    1
    32    22    21    2
