@<TRIPOS>MOLECULE
78256_out_ligand_01.pdbqt
 29 32 0 0 0
SMALL
GASTEIGER

@<TRIPOS>ATOM
      1  C         19.5370  -21.5340  -11.5640 C.2     1  UNL1        0.0110
      2  C         18.8740  -20.3130  -11.7390 C.2     1  UNL1        0.0150
      3  C         17.5530  -20.1610  -11.3140 C.2     1  UNL1        0.0020
      4  C         16.8880  -21.2250  -10.7040 C.2     1  UNL1        0.0090
      5  C         17.5400  -22.4490  -10.5020 C.2     1  UNL1       -0.0290
      6  C         18.8680  -22.5960  -10.9390 C.2     1  UNL1        0.0240
      7  C         16.8170  -23.6050   -9.8370 C.3     1  UNL1        0.3110
      8  N         16.3140  -23.2790   -8.4920 N.3     1  UNL1        0.0930
      9  C         16.2150  -24.4760   -7.6440 C.3     1  UNL1        0.2730
     10  C         16.2220  -24.1490   -6.1530 C.3     1  UNL1        0.0310
     11  C         17.4940  -23.4210   -5.7100 C.3     1  UNL1        0.0130
     12  C         18.1480  -22.5870   -6.8310 C.3     1  UNL1        0.0470
     13  C         17.0770  -22.1830   -7.8730 C.3     1  UNL1        0.2820
     14  C         19.4020  -23.1610   -7.4870 C.2     1  UNL1       -0.0520
     15  C         20.5370  -22.3370   -7.5950 C.2     1  UNL1        0.0070
     16  C         21.7120  -22.7960   -8.1940 C.2     1  UNL1        0.0010
     17  C         21.7750  -24.0920   -8.6960 C.2     1  UNL1        0.0000
     18  C         20.6660  -24.9260   -8.5940 C.2     1  UNL1        0.0010
     19  C         19.4900  -24.4660   -7.9930 C.2     1  UNL1        0.0070
     20  C         20.9450  -21.6560  -12.0320 C.ar    1  UNL1        0.1410
     21  N         21.8120  -22.3440  -11.3520 N.ar    1  UNL1       -0.2320
     22  C         23.1010  -22.4210  -11.8350 C.ar    1  UNL1        0.0770
     23  C         24.0440  -23.2530  -11.0140 C.3     1  UNL1        0.0740
     24  C         23.5090  -21.8080  -12.9530 C.ar    1  UNL1        0.2080
     25  C         22.5420  -21.0010  -13.7140 C.ar    1  UNL1        0.2870
     26  F         24.7680  -21.8780  -13.4250 F       1  UNL1       -0.1980
     27  N         21.2770  -20.9950  -13.1950 N.ar    1  UNL1       -0.3050
     28  O         22.8350  -20.3760  -14.7270 O.2     1  UNL1       -0.2650
     29  H         20.6150  -20.4140  -13.6860 H       1  UNL1        0.1710
@<TRIPOS>BOND
     1    28    25    2
     2    25    27   ar
     3    25    24   ar
     4    29    27    1
     5    26    24    1
     6    27    20   ar
     7    24    22   ar
     8    20     1    1
     9    20    21   ar
    10    22    21   ar
    11    22    23    1
    12     2     1    2
    13     2     3    1
    14     1     6    1
    15     3     4    2
    16     6     5    2
    17     4     5    1
    18     5     7    1
    19     7     8    1
    20    17    18    2
    21    17    16    1
    22    18    19    1
    23     8    13    1
    24     8     9    1
    25    16    15    2
    26    19    14    2
    27    13    12    1
    28     9    10    1
    29    15    14    1
    30    14    12    1
    31    12    11    1
    32    10    11    1
