@<TRIPOS>MOLECULE
78269_out_ligand_01.pdbqt
 35 39 0 0 0
SMALL
GASTEIGER

@<TRIPOS>ATOM
      1  C         22.8840  -22.2970  -12.1400 C.2     1  UNL1       -0.0290
      2  C         22.1670  -21.3180  -12.8330 C.2     1  UNL1        0.0120
      3  C         20.8450  -21.0410  -12.4870 C.2     1  UNL1        0.0380
      4  C         20.2130  -21.7280  -11.4450 C.2     1  UNL1        0.0760
      5  C         20.9210  -22.6810  -10.6980 C.2     1  UNL1        0.0040
      6  C         22.2460  -22.9710  -11.0850 C.2     1  UNL1        0.0210
      7  C         20.3680  -23.4240   -9.4950 C.3     1  UNL1        0.3140
      8  N         19.4980  -22.6010   -8.6480 N.3     1  UNL1        0.0990
      9  C         18.1410  -22.4800   -9.2090 C.3     1  UNL1        0.2990
     10  C         18.0670  -22.3690  -10.7380 C.3     1  UNL1        0.2060
     11  O         18.9140  -21.3410  -11.2390 O.2     1  UNL1       -0.3490
     12  C         19.4780  -23.0920   -7.2610 C.3     1  UNL1        0.3150
     13  C         19.2880  -21.9620   -6.2980 C.2     1  UNL1        0.0180
     14  C         20.1630  -20.9210   -6.0520 C.2     1  UNL1        0.1200
     15  N         19.6040  -20.1690   -5.0700 N.pl3   1  UNL1       -0.2880
     16  N         18.4380  -20.6520   -4.6250 N.2     1  UNL1       -0.1740
     17  H         19.9660  -19.3210   -4.6460 H       1  UNL1        0.1880
     18  C         18.2150  -21.7420   -5.3780 C.2     1  UNL1        0.0960
     19  C         17.0080  -22.5370   -5.1730 C.2     1  UNL1       -0.0050
     20  C         16.8080  -23.2420   -3.9770 C.2     1  UNL1        0.0170
     21  C         15.6500  -23.9990   -3.7930 C.2     1  UNL1        0.0430
     22  C         14.6990  -24.0570   -4.8070 C.2     1  UNL1        0.1160
     23  F         13.5900  -24.7850   -4.6270 F       1  UNL1       -0.2060
     24  C         14.8860  -23.3760   -6.0040 C.2     1  UNL1        0.0430
     25  C         16.0450  -22.6190   -6.1890 C.2     1  UNL1        0.0170
     26  C         24.3310  -22.5830  -12.4980 C.3     1  UNL1        0.1550
     27  O         24.6770  -23.9410  -12.2110 O.3     1  UNL1       -0.3910
     28  H         25.6290  -23.9550  -12.0140 H       1  UNL1        0.2100
     29  C         25.3520  -21.6070  -11.8780 C.3     1  UNL1        0.0750
     30  C         25.8870  -20.5360  -12.8040 C.2     1  UNL1       -0.0550
     31  C         25.6150  -20.5790  -14.1790 C.2     1  UNL1        0.0070
     32  C         26.0880  -19.5770  -15.0270 C.2     1  UNL1        0.0010
     33  C         26.8410  -18.5240  -14.5120 C.2     1  UNL1        0.0000
     34  C         27.1210  -18.4710  -13.1470 C.2     1  UNL1        0.0010
     35  C         26.6450  -19.4700  -12.2960 C.2     1  UNL1        0.0070
@<TRIPOS>BOND
     1    32    33    2
     2    32    31    1
     3    33    34    1
     4    31    30    2
     5    34    35    2
     6     2     3    1
     7     2     1    2
     8    30    35    1
     9    30    29    1
    10    26    27    1
    11    26     1    1
    12    26    29    1
    13     3     4    2
    14    27    28    1
    15     1     6    1
    16     4    11    1
    17     4     5    1
    18    11    10    1
    19     6     5    2
    20    10     9    1
    21     5     7    1
    22     7     8    1
    23     9     8    1
    24     8    12    1
    25    12    13    1
    26    13    14    2
    27    13    18    1
    28    25    24    1
    29    25    19    2
    30    14    15    1
    31    24    22    2
    32    18    19    1
    33    18    16    2
    34    19    20    1
    35    15    17    1
    36    15    16    1
    37    22    23    1
    38    22    21    1
    39    20    21    2
