@<TRIPOS>MOLECULE
78279_out_ligand_01.pdbqt
 32 35 0 0 0
SMALL
GASTEIGER

@<TRIPOS>ATOM
      1  C         21.1250  -22.1490  -11.3690 C.3     1  UNL1        0.0890
      2  C         20.2350  -20.9140  -11.5530 C.3     1  UNL1        0.0160
      3  C         18.7620  -21.1580  -11.2260 C.3     1  UNL1        0.0310
      4  C         18.4670  -22.5500  -10.6760 C.3     1  UNL1        0.2730
      5  N         19.4360  -22.8630   -9.6230 N.3     1  UNL1        0.0930
      6  C         20.7700  -23.0900  -10.2050 C.3     1  UNL1        0.2850
      7  C         18.9830  -24.0270   -8.8390 C.3     1  UNL1        0.3130
      8  C         18.3350  -23.5800   -7.5610 C.2     1  UNL1       -0.0020
      9  C         17.1970  -24.1190   -6.9870 C.2     1  UNL1        0.1010
     10  N         16.9430  -23.4500   -5.8160 N.pl3   1  UNL1       -0.3470
     11  C         17.8790  -22.4560   -5.6200 C.2     1  UNL1        0.0450
     12  C         18.0190  -21.5060   -4.5930 C.2     1  UNL1        0.0300
     13  C         18.7820  -22.5350   -6.6850 C.2     1  UNL1        0.0000
     14  C         19.1130  -20.6370   -4.6430 C.2     1  UNL1        0.0020
     15  C         20.0320  -20.7080   -5.6830 C.2     1  UNL1        0.0010
     16  C         19.8750  -21.6420   -6.7090 C.2     1  UNL1        0.0140
     17  C         15.8470  -23.7710   -4.9110 C.3     1  UNL1        0.2310
     18  C         14.8930  -22.6080   -4.6980 C.2     1  UNL1        0.2330
     19  N         14.2560  -22.1050   -5.7990 N.am    1  UNL1       -0.3690
     20  H         14.1000  -22.6930   -6.6100 H       1  UNL1        0.1590
     21  H         13.5330  -21.4220   -5.6000 H       1  UNL1        0.1590
     22  O         14.7380  -22.0720   -3.6040 O.2     1  UNL1       -0.2720
     23  C         22.6110  -21.8040  -11.3770 C.2     1  UNL1        0.1650
     24  O         23.1160  -21.2690  -10.3860 O.2     1  UNL1       -0.2920
     25  C         23.4940  -22.1010  -12.5580 C.2     1  UNL1        0.0100
     26  C         23.3010  -21.3380  -13.7200 C.2     1  UNL1        0.0160
     27  C         24.0900  -21.5480  -14.8540 C.2     1  UNL1        0.0190
     28  C         25.0860  -22.5240  -14.8470 C.2     1  UNL1       -0.0000
     29  C         25.2750  -23.2980  -13.7010 C.2     1  UNL1        0.0190
     30  C         24.4850  -23.0880  -12.5620 C.2     1  UNL1        0.0160
     31  S         26.0840  -22.7840  -16.2950 S.3     1  UNL1       -0.1340
     32  C         24.7610  -23.0400  -17.5080 C.3     1  UNL1        0.0950
@<TRIPOS>BOND
     1    32    31    1
     2    31    28    1
     3    27    28    2
     4    27    26    1
     5    28    29    1
     6    26    25    2
     7    29    30    2
     8    30    25    1
     9    25    23    1
    10     2     1    1
    11     2     3    1
    12    23     1    1
    13    23    24    2
    14     1     6    1
    15     3     4    1
    16     4     5    1
    17     6     5    1
    18     5     7    1
    19     7     8    1
    20     8     9    2
    21     8    13    1
    22     9    10    1
    23    16    13    1
    24    16    15    2
    25    13    11    2
    26    20    19    1
    27    10    11    1
    28    10    17    1
    29    19    21    1
    30    19    18   am
    31    15    14    1
    32    11    12    1
    33    17    18    1
    34    18    22    2
    35    14    12    2
