@<TRIPOS>MOLECULE
78288_out_ligand_01.pdbqt
 36 40 0 0 0
SMALL
GASTEIGER

@<TRIPOS>ATOM
      1  C         20.7700  -23.4320   -8.4120 C.3     1  UNL1        0.0510
      2  C         20.5560  -22.5340   -9.5920 C.ar    1  UNL1       -0.0230
      3  C         21.5890  -21.9670  -10.3360 C.ar    1  UNL1        0.0810
      4  S         20.9960  -21.0570  -11.6570 S.2     1  UNL1       -0.0630
      5  C         19.3830  -21.3510  -11.2330 C.ar    1  UNL1        0.1140
      6  N         18.4040  -20.8230  -11.9820 N.2     1  UNL1       -0.2340
      7  C         17.1950  -21.1380  -11.5250 C.2     1  UNL1        0.2360
      8  N         16.9020  -21.8820  -10.4530 N.2     1  UNL1       -0.2290
      9  C         17.9040  -22.4210   -9.7200 C.2     1  UNL1        0.1180
     10  C         19.2430  -22.1510  -10.1100 C.ar    1  UNL1        0.0470
     11  C         23.0310  -22.0250  -10.1000 C.2     1  UNL1        0.2590
     12  O         23.6490  -21.1550   -9.4950 O.2     1  UNL1       -0.2670
     13  N         23.6560  -23.1440  -10.6000 N.am    1  UNL1       -0.3550
     14  H         23.0830  -23.8390  -11.0720 H       1  UNL1        0.1620
     15  C         25.0950  -23.3290  -10.6170 C.3     1  UNL1        0.1370
     16  C         25.6810  -23.2340  -12.0510 C.3     1  UNL1        0.0030
     17  C         24.7300  -23.9000  -13.0770 C.3     1  UNL1        0.0160
     18  C         25.6200  -24.2390  -14.2730 C.3     1  UNL1        0.0010
     19  C         27.0210  -24.4430  -13.7030 C.3     1  UNL1        0.0010
     20  C         26.8980  -24.1810  -12.2020 C.3     1  UNL1        0.0160
     21  C         25.9350  -21.7530  -12.3980 C.2     1  UNL1       -0.0480
     22  C         25.5200  -21.1740  -13.6080 C.2     1  UNL1        0.0080
     23  C         25.8310  -19.8450  -13.9200 C.2     1  UNL1        0.0010
     24  C         26.5600  -19.0660  -13.0290 C.2     1  UNL1        0.0000
     25  C         26.9770  -19.6130  -11.8210 C.2     1  UNL1        0.0010
     26  C         26.6750  -20.9410  -11.5140 C.2     1  UNL1        0.0080
     27  N         17.5800  -23.2360   -8.6280 N.pl3   1  UNL1       -0.2760
     28  H         18.3030  -23.1930   -7.9170 H       1  UNL1        0.1290
     29  C         16.2270  -23.1330   -8.0990 C.3     1  UNL1        0.0990
     30  C         16.2220  -22.6420   -6.6510 C.3     1  UNL1        0.0130
     31  C         17.6460  -22.4730   -6.1030 C.3     1  UNL1        0.0210
     32  C         17.5000  -22.1760   -4.6150 C.3     1  UNL1        0.1410
     33  S         16.1200  -23.1700   -4.0690 S.O2    1  UNL1        0.1440
     34  O         15.1470  -22.3010   -3.4390 O.2     1  UNL1       -0.2280
     35  O         16.6260  -24.3600   -3.4190 O.2     1  UNL1       -0.2280
     36  C         15.5290  -23.6140   -5.6920 C.3     1  UNL1        0.1460
@<TRIPOS>BOND
     1    18    19    1
     2    18    17    1
     3    23    22    1
     4    23    24    2
     5    19    20    1
     6    22    21    2
     7    17    16    1
     8    24    25    1
     9    21    16    1
    10    21    26    1
    11    20    16    1
    12    16    15    1
    13     6     7    1
    14     6     5    2
    15    25    26    2
    16     4     5   ar
    17     4     3   ar
    18     7     8    2
    19     5    10   ar
    20    14    13    1
    21    15    13    1
    22    13    11   am
    23     8     9    1
    24     3    11    1
    25     3     2   ar
    26    10     9    2
    27    10     2   ar
    28    11    12    2
    29     9    27    1
    30     2     1    1
    31    27    29    1
    32    27    28    1
    33    29    30    1
    34    30    31    1
    35    30    36    1
    36    31    32    1
    37    36    33    1
    38    32    33    1
    39    33    34    2
    40    33    35    2
