@<TRIPOS>MOLECULE
78282_out_ligand_01.pdbqt
 30 34 0 0 0
SMALL
GASTEIGER

@<TRIPOS>ATOM
      1  C         22.1790  -22.5150  -10.7290 C.2     1  UNL1       -0.0240
      2  C         22.0580  -21.9090  -11.9840 C.2     1  UNL1        0.0130
      3  C         20.8080  -21.4810  -12.4360 C.2     1  UNL1        0.0380
      4  C         19.6640  -21.6350  -11.6380 C.2     1  UNL1        0.0760
      5  C         19.7420  -22.2940  -10.4020 C.2     1  UNL1        0.0040
      6  C         21.0190  -22.7040   -9.9540 C.2     1  UNL1        0.0210
      7  C         18.5560  -22.5800   -9.4910 C.3     1  UNL1        0.3140
      8  N         17.2540  -22.6030  -10.1470 N.3     1  UNL1        0.0990
      9  C         16.7500  -21.2700  -10.4800 C.3     1  UNL1        0.2990
     10  C         17.7710  -20.3750  -11.1950 C.3     1  UNL1        0.2060
     11  O         18.5170  -21.1040  -12.1710 O.2     1  UNL1       -0.3490
     12  C         16.2550  -23.4530   -9.4910 C.3     1  UNL1        0.3110
     13  C         16.3590  -23.5980   -7.9850 C.2     1  UNL1       -0.0290
     14  C         17.3160  -24.4690   -7.4060 C.2     1  UNL1        0.0120
     15  C         17.4240  -24.6110   -6.0200 C.2     1  UNL1        0.0380
     16  C         16.5880  -23.8450   -5.2330 C.2     1  UNL1        0.0750
     17  C         15.6710  -22.9630   -5.7790 C.2     1  UNL1       -0.0220
     18  O         16.5910  -23.8560   -3.8620 O.2     1  UNL1       -0.3500
     19  C         15.5240  -22.8400   -7.1490 C.2     1  UNL1        0.0190
     20  C         14.9660  -22.2430   -4.6940 C.3     1  UNL1        0.0680
     21  C         15.8670  -22.6530   -3.5190 C.3     1  UNL1        0.1800
     22  C         23.5380  -22.9190  -10.1830 C.3     1  UNL1        0.1850
     23  O         23.6130  -22.5050   -8.8150 O.3     1  UNL1       -0.3860
     24  H         22.7040  -22.4000   -8.4890 H       1  UNL1        0.2100
     25  C         24.7200  -22.4060  -10.9760 C.2     1  UNL1       -0.0080
     26  C         25.2790  -21.1380  -10.7730 C.2     1  UNL1        0.0130
     27  C         26.3790  -20.7320  -11.5230 C.2     1  UNL1        0.0200
     28  C         26.8950  -21.6200  -12.4630 C.2     1  UNL1        0.1160
     29  N         26.4030  -22.8610  -12.6770 N.2     1  UNL1       -0.2720
     30  C         25.3330  -23.2260  -11.9360 C.2     1  UNL1        0.1260
@<TRIPOS>BOND
     1    29    28    2
     2    29    30    1
     3    28    27    1
     4     3     2    1
     5     3     4    2
     6    11     4    1
     7    11    10    1
     8     2     1    2
     9    30    25    2
    10     4     5    1
    11    27    26    2
    12    10     9    1
    13    25    26    1
    14    25    22    1
    15     1    22    1
    16     1     6    1
    17     9     8    1
    18     5     6    2
    19     5     7    1
    20    22    23    1
    21     8     7    1
    22     8    12    1
    23    12    13    1
    24    23    24    1
    25    13    14    2
    26    13    19    1
    27    14    15    1
    28    19    17    2
    29    15    16    2
    30    17    16    1
    31    17    20    1
    32    16    18    1
    33    20    21    1
    34    18    21    1
