@<TRIPOS>MOLECULE
78290_out_ligand_01.pdbqt
 33 36 0 0 0
SMALL
GASTEIGER

@<TRIPOS>ATOM
      1  O         23.3100  -23.9880   -8.9890 O.2     1  UNL1       -0.2720
      2  C         22.6710  -22.9430   -9.0720 C.2     1  UNL1        0.2370
      3  N         21.2950  -22.8940   -9.0490 N.am    1  UNL1       -0.3590
      4  H         20.8910  -22.0020   -8.7650 H       1  UNL1        0.1620
      5  C         23.3400  -21.5960   -9.2130 C.3     1  UNL1        0.2530
      6  N         24.1200  -21.5470  -10.4280 N.pl3   1  UNL1       -0.2700
      7  C         23.7820  -22.0630  -11.6450 C.2     1  UNL1        0.1440
      8  C         24.8180  -21.7700  -12.4940 C.2     1  UNL1        0.0710
      9  C         25.7330  -21.0580  -11.6870 C.2     1  UNL1        0.1690
     10  N         25.3090  -20.9060  -10.4320 N.2     1  UNL1       -0.1820
     11  N         24.9650  -22.0870  -13.8330 N.am    1  UNL1       -0.3190
     12  C         24.0820  -21.7280  -14.8440 C.2     1  UNL1        0.2800
     13  O         23.0690  -21.0530  -14.6640 O.2     1  UNL1       -0.2650
     14  H         25.7930  -22.6090  -14.0740 H       1  UNL1        0.1690
     15  C         24.4640  -22.2140  -16.1660 C.2     1  UNL1        0.1420
     16  C         25.6090  -22.1010  -16.9480 C.2     1  UNL1        0.0450
     17  C         25.3610  -22.8140  -18.1530 C.2     1  UNL1        0.0270
     18  C         24.0840  -23.3170  -18.0420 C.2     1  UNL1        0.1430
     19  O         23.5350  -22.9650  -16.8520 O.2     1  UNL1       -0.3170
     20  C         20.5060  -24.0800   -8.7340 C.3     1  UNL1        0.1360
     21  C         18.9970  -23.7730   -8.5750 C.3     1  UNL1        0.0690
     22  C         18.4980  -22.8170   -9.6560 C.2     1  UNL1       -0.0480
     23  C         17.1750  -22.3480   -9.6200 C.2     1  UNL1        0.0080
     24  C         16.6970  -21.4870  -10.6110 C.2     1  UNL1        0.0010
     25  C         17.5350  -21.0830  -11.6500 C.2     1  UNL1        0.0000
     26  C         18.8510  -21.5370  -11.6980 C.2     1  UNL1        0.0010
     27  C         19.3330  -22.3980  -10.7060 C.2     1  UNL1        0.0080
     28  C         18.5930  -23.3150   -7.1750 C.2     1  UNL1       -0.0480
     29  C         17.7200  -24.1210   -6.4240 C.2     1  UNL1        0.0080
     30  C         17.3280  -23.7510   -5.1350 C.2     1  UNL1        0.0010
     31  C         17.7950  -22.5650   -4.5770 C.2     1  UNL1        0.0000
     32  C         18.6460  -21.7460   -5.3110 C.2     1  UNL1        0.0010
     33  C         19.0400  -22.1140   -6.6020 C.2     1  UNL1        0.0080
@<TRIPOS>BOND
     1    17    18    2
     2    17    16    1
     3    18    19    1
     4    16    15    2
     5    19    15    1
     6    15    12    1
     7    12    13    2
     8    12    11   am
     9    14    11    1
    10    11     8    1
    11     8     9    1
    12     8     7    2
    13    26    25    2
    14    26    27    1
    15     9    10    2
    16    25    24    1
    17     7     6    1
    18    27    22    2
    19    24    23    2
    20    10     6    1
    21     6     5    1
    22    22    23    1
    23    22    21    1
    24     5     2    1
    25     2     3   am
    26     2     1    2
    27     3     4    1
    28     3    20    1
    29    20    21    1
    30    21    28    1
    31    28    33    2
    32    28    29    1
    33    33    32    1
    34    29    30    2
    35    32    31    2
    36    30    31    1
