@<TRIPOS>MOLECULE
78295_out_ligand_01.pdbqt
 36 39 0 0 0
SMALL
GASTEIGER

@<TRIPOS>ATOM
      1  C         23.3300  -22.2620  -10.8510 C.ar    1  UNL1        0.0840
      2  N         22.1640  -21.6830  -11.3230 N.ar    1  UNL1       -0.2240
      3  C         21.2210  -22.1470  -10.5300 C.ar    1  UNL1        0.1820
      4  O         21.6810  -23.0300   -9.5880 O.2     1  UNL1       -0.2940
      5  C         23.0320  -23.0970   -9.7910 C.ar    1  UNL1        0.0780
      6  C         23.8180  -23.9630   -8.8950 C.3     1  UNL1        0.0790
      7  C         19.7820  -21.9120  -10.5860 C.2     1  UNL1        0.0390
      8  C         19.3130  -20.9950  -11.5460 C.2     1  UNL1        0.0180
      9  C         17.9490  -20.7550  -11.7160 C.2     1  UNL1        0.0010
     10  C         17.0270  -21.4240  -10.9210 C.2     1  UNL1        0.0020
     11  C         17.4720  -22.3180   -9.9480 C.2     1  UNL1        0.0250
     12  C         18.8410  -22.5630   -9.7720 C.2     1  UNL1        0.0370
     13  N         19.2140  -23.4220   -8.6880 N.pl3   1  UNL1       -0.1800
     14  H         19.7450  -24.2560   -8.9460 H       1  UNL1        0.1460
     15  S         17.9940  -23.8560   -7.5930 S.O2    1  UNL1        0.2460
     16  O         16.6920  -23.6340   -8.1810 O.2     1  UNL1       -0.2060
     17  O         18.3710  -25.1600   -7.0870 O.2     1  UNL1       -0.2060
     18  C         18.2120  -22.6980   -6.2680 C.2     1  UNL1        0.0770
     19  C         17.5240  -22.8850   -5.0640 C.2     1  UNL1        0.0250
     20  C         17.7240  -21.9910   -4.0120 C.2     1  UNL1        0.0050
     21  C         18.6200  -20.9320   -4.1600 C.2     1  UNL1        0.0420
     22  C         19.3140  -20.7760   -5.3540 C.2     1  UNL1        0.1170
     23  F         20.1720  -19.7580   -5.4820 F       1  UNL1       -0.2060
     24  C         19.1240  -21.6500   -6.4140 C.2     1  UNL1        0.0670
     25  C         24.6450  -21.9580  -11.4740 C.3     1  UNL1        0.1840
     26  N         24.4790  -21.9620  -12.9110 N.am    1  UNL1       -0.3510
     27  C         25.5660  -22.0720  -13.7420 C.2     1  UNL1        0.2530
     28  O         26.7270  -22.0680  -13.3470 O.2     1  UNL1       -0.2680
     29  H         23.5790  -22.2990  -13.2290 H       1  UNL1        0.1630
     30  C         25.2590  -22.2880  -15.1720 C.2     1  UNL1        0.0560
     31  C         25.0240  -21.1610  -15.9660 C.2     1  UNL1        0.0200
     32  C         24.7650  -21.3160  -17.3220 C.2     1  UNL1        0.0200
     33  C         24.7370  -22.5990  -17.8340 C.2     1  UNL1        0.1170
     34  N         24.9380  -23.7150  -17.0900 N.2     1  UNL1       -0.2650
     35  C         25.1790  -23.5570  -15.7610 C.2     1  UNL1        0.0460
     36  C         25.3300  -24.8280  -14.9770 C.3     1  UNL1        0.0710
@<TRIPOS>BOND
     1    33    32    2
     2    33    34    1
     3    32    31    1
     4    34    35    2
     5    31    30    2
     6    35    30    1
     7    35    36    1
     8    30    27    1
     9    27    28    2
    10    27    26   am
    11    29    26    1
    12    26    25    1
    13     9     8    1
    14     9    10    2
    15     8     7    2
    16    25     1    1
    17     2     1   ar
    18     2     3   ar
    19    10    11    1
    20     1     5   ar
    21     7     3    1
    22     7    12    1
    23     3     4   ar
    24    11    12    2
    25     5     4   ar
    26     5     6    1
    27    12    13    1
    28    14    13    1
    29    13    15    1
    30    16    15    2
    31    15    17    2
    32    15    18    1
    33    24    18    2
    34    24    22    1
    35    18    19    1
    36    23    22    1
    37    22    21    2
    38    19    20    2
    39    21    20    1
