@<TRIPOS>MOLECULE
78309_out_ligand_01.pdbqt
 29 32 0 0 0
SMALL
GASTEIGER

@<TRIPOS>ATOM
      1  C         19.3140  -21.4040  -11.4600 C.2     1  UNL1        0.1490
      2  C         20.0180  -20.4450  -12.1570 C.2     1  UNL1        0.1810
      3  O         21.3190  -20.8360  -12.2500 O.2     1  UNL1       -0.3030
      4  C         21.3580  -22.0350  -11.5850 C.2     1  UNL1        0.1740
      5  N         20.1870  -22.4230  -11.1160 N.2     1  UNL1       -0.2190
      6  C         17.8970  -21.3940  -11.0980 C.2     1  UNL1        0.2720
      7  O         17.1320  -20.4850  -11.4230 O.2     1  UNL1       -0.2660
      8  N         17.4720  -22.4750  -10.3400 N.am    1  UNL1       -0.3550
      9  H         18.1830  -22.9810   -9.8290 H       1  UNL1        0.1620
     10  C         16.1290  -22.4850   -9.7860 C.3     1  UNL1        0.1270
     11  C         15.8580  -23.7190   -8.9220 C.3     1  UNL1        0.0580
     12  C         15.6820  -23.3860   -7.4570 C.2     1  UNL1       -0.0570
     13  C         15.1650  -22.1410   -7.0650 C.2     1  UNL1        0.0100
     14  C         14.9830  -21.8470   -5.7120 C.2     1  UNL1        0.0430
     15  C         15.3190  -22.7950   -4.7510 C.2     1  UNL1        0.1160
     16  F         15.1390  -22.5130   -3.4530 F       1  UNL1       -0.2060
     17  C         15.8380  -24.0290   -5.1180 C.2     1  UNL1        0.0430
     18  C         16.0200  -24.3260   -6.4710 C.2     1  UNL1        0.0100
     19  C         22.6930  -22.7280  -11.5300 C.3     1  UNL1        0.3580
     20  N         23.3180  -22.7210  -10.1900 N.3     1  UNL1        0.1000
     21  C         23.0880  -21.4190   -9.5050 C.3     1  UNL1        0.2780
     22  C         22.5880  -21.4830   -8.0460 C.3     1  UNL1        0.0690
     23  C         21.4310  -22.4450   -7.9620 C.2     1  UNL1       -0.0490
     24  C         20.2710  -22.1890   -7.2310 C.2     1  UNL1        0.0070
     25  C         21.5710  -23.6520   -8.6700 C.2     1  UNL1       -0.0240
     26  C         19.2410  -23.1330   -7.2200 C.2     1  UNL1        0.0010
     27  C         19.3760  -24.3300   -7.9240 C.2     1  UNL1        0.0010
     28  C         20.5430  -24.5960   -8.6440 C.2     1  UNL1        0.0090
     29  C         22.8790  -23.8780   -9.3930 C.3     1  UNL1        0.3120
@<TRIPOS>BOND
     1     3     2    1
     2     3     4    1
     3     2     1    2
     4     4    19    1
     5     4     5    2
     6    19    20    1
     7     1     5    1
     8     1     6    1
     9     7     6    2
    10     6     8   am
    11     8     9    1
    12     8    10    1
    13    20    21    1
    14    20    29    1
    15    10    11    1
    16    21    22    1
    17    29    25    1
    18    11    12    1
    19    25    28    1
    20    25    23    2
    21    28    27    2
    22    22    23    1
    23    23    24    1
    24    27    26    1
    25    12    13    2
    26    12    18    1
    27    24    26    2
    28    13    14    1
    29    18    17    2
    30    14    15    2
    31    17    15    1
    32    15    16    1
