@<TRIPOS>MOLECULE
7830_out_ligand_01.pdbqt
 34 36 0 0 0
SMALL
GASTEIGER

@<TRIPOS>ATOM
      1  C         21.7510  -22.3580  -10.7870 C.2     1  UNL1        0.0860
      2  C         20.3790  -22.1840  -10.5370 C.2     1  UNL1        0.0420
      3  C         19.5680  -21.5510  -11.4820 C.2     1  UNL1        0.0330
      4  C         20.1280  -21.1040  -12.6810 C.2     1  UNL1        0.0170
      5  C         21.4930  -21.2650  -12.9240 C.2     1  UNL1        0.0090
      6  C         22.3290  -21.8950  -11.9850 C.2     1  UNL1       -0.0390
      7  C         23.7920  -22.0150  -12.3080 C.3     1  UNL1        0.0500
      8  C         18.1120  -21.3450  -11.2580 C.2     1  UNL1        0.2510
      9  O         17.5230  -20.4420  -11.8410 O.2     1  UNL1       -0.2680
     10  N         17.5150  -22.1880  -10.3440 N.am    1  UNL1       -0.3530
     11  H         18.1040  -22.7470   -9.7410 H       1  UNL1        0.1630
     12  C         16.1640  -21.9570   -9.8860 C.3     1  UNL1        0.1610
     13  C         15.8600  -22.8110   -8.6810 C.2     1  UNL1       -0.0400
     14  C         15.9570  -24.2060   -8.7480 C.2     1  UNL1        0.0090
     15  C         15.7220  -24.9880   -7.6160 C.2     1  UNL1        0.0010
     16  C         15.3970  -24.3820   -6.4020 C.2     1  UNL1        0.0160
     17  C         15.2970  -22.9870   -6.3090 C.2     1  UNL1        0.0480
     18  C         15.5360  -22.2110   -7.4540 C.2     1  UNL1        0.0250
     19  C         14.9760  -22.3150   -4.9980 C.3     1  UNL1        0.4170
     20  F         16.0360  -21.6500   -4.4560 F       1  UNL1       -0.1660
     21  F         14.5620  -23.1900   -4.0410 F       1  UNL1       -0.1660
     22  F         13.9820  -21.3920   -5.1160 F       1  UNL1       -0.1660
     23  S         22.7080  -23.1820   -9.5150 S.O2    1  UNL1        0.2630
     24  O         24.1060  -23.0950   -9.8890 O.2     1  UNL1       -0.2000
     25  O         22.1000  -24.4680   -9.2480 O.2     1  UNL1       -0.2000
     26  N         22.4430  -22.2190   -8.1510 N.pl3   1  UNL1       -0.2810
     27  H         23.2550  -22.1810   -7.5380 H       1  UNL1        0.1790
     28  C         21.1570  -22.2400   -7.5440 C.2     1  UNL1        0.0430
     29  C         20.2910  -23.3060   -7.7690 C.2     1  UNL1        0.0300
     30  C         19.0570  -23.3460   -7.1230 C.2     1  UNL1        0.0030
     31  C         18.6970  -22.3250   -6.2430 C.2     1  UNL1        0.0070
     32  C         19.5690  -21.2600   -5.9980 C.2     1  UNL1       -0.0600
     33  C         19.1690  -20.1630   -5.0560 C.3     1  UNL1        0.0480
     34  C         20.7980  -21.2160   -6.6680 C.2     1  UNL1        0.0370
@<TRIPOS>BOND
     1     5     4    2
     2     5     6    1
     3     4     3    1
     4     7     6    1
     5     6     1    2
     6     9     8    2
     7     3     8    1
     8     3     2    2
     9     8    10   am
    10     1     2    1
    11     1    23    1
    12    10    12    1
    13    10    11    1
    14    24    23    2
    15    12    13    1
    16    23    25    2
    17    23    26    1
    18    14    13    2
    19    14    15    1
    20    13    18    1
    21    26    28    1
    22    26    27    1
    23    29    28    2
    24    29    30    1
    25    15    16    2
    26    28    34    1
    27    18    17    2
    28    30    31    2
    29    34    32    2
    30    16    17    1
    31    17    19    1
    32    31    32    1
    33    32    33    1
    34    22    19    1
    35    19    20    1
    36    19    21    1
