@<TRIPOS>MOLECULE
78315_out_ligand_01.pdbqt
 35 40 0 0 0
SMALL
GASTEIGER

@<TRIPOS>ATOM
      1  C         18.5420  -22.0870   -9.9520 C.2     1  UNL1        0.0760
      2  C         18.5410  -21.4100  -11.1880 C.2     1  UNL1        0.1590
      3  N         19.7460  -21.3110  -11.7410 N.2     1  UNL1       -0.1640
      4  N         20.5920  -21.8690  -10.8200 N.pl3   1  UNL1       -0.0630
      5  C         19.8720  -22.4310   -9.7730 C.2     1  UNL1        0.0760
      6  C         22.0250  -21.8140  -10.9940 C.cat   1  UNL1        0.7500
      7  N         22.7800  -21.4640   -9.9300 N.2     1  UNL1       -0.0730
      8  C         24.1090  -21.4360  -10.1120 C.2     1  UNL1        0.1390
      9  C         24.7170  -21.7360  -11.3070 C.2     1  UNL1        0.0530
     10  C         23.8830  -22.0860  -12.3510 C.2     1  UNL1        0.0870
     11  N         22.5410  -22.1360  -12.1980 N.2     1  UNL1       -0.0600
     12  C         24.3810  -22.4350  -13.6980 C.2     1  UNL1       -0.0040
     13  C         25.1980  -23.5820  -13.8870 C.2     1  UNL1        0.0170
     14  C         25.6870  -23.9470  -15.1470 C.2     1  UNL1        0.0400
     15  C         25.3450  -23.1540  -16.2170 C.2     1  UNL1        0.1050
     16  C         24.5540  -22.0430  -16.0630 C.2     1  UNL1        0.1050
     17  O         25.7200  -23.3510  -17.5080 O.2     1  UNL1       -0.3230
     18  C         24.0600  -21.6600  -14.8310 C.2     1  UNL1        0.0530
     19  O         24.3270  -21.3990  -17.2400 O.2     1  UNL1       -0.3230
     20  C         25.0650  -22.2390  -18.1530 C.3     1  UNL1        0.3520
     21  C         20.4350  -23.2700   -8.5850 C.3     1  UNL1        0.0390
     22  C         21.3980  -24.3980   -8.8700 C.3     1  UNL1        0.0110
     23  C         20.0060  -24.7090   -8.4240 C.3     1  UNL1        0.0110
     24  C         17.4250  -22.3520   -9.0610 C.2     1  UNL1        0.2550
     25  O         17.0710  -21.5740   -8.1800 O.2     1  UNL1       -0.2680
     26  N         16.7960  -23.5620   -9.2730 N.am    1  UNL1       -0.3560
     27  H         17.2290  -24.2450   -9.8800 H       1  UNL1        0.1620
     28  C         15.7140  -24.0090   -8.4150 C.3     1  UNL1        0.1290
     29  C         16.2190  -24.7810   -7.1980 C.3     1  UNL1        0.0790
     30  C         16.0590  -23.9630   -5.9450 C.2     1  UNL1        0.0350
     31  C         14.9750  -23.1010   -5.7960 C.2     1  UNL1        0.0270
     32  C         14.8520  -22.3780   -4.6140 C.2     1  UNL1        0.0030
     33  C         15.8050  -22.5370   -3.6150 C.2     1  UNL1        0.0190
     34  C         16.8470  -23.4190   -3.8410 C.2     1  UNL1        0.1170
     35  N         16.9920  -24.1370   -4.9780 N.2     1  UNL1       -0.2660
@<TRIPOS>BOND
     1    20    17    1
     2    20    19    1
     3    17    15    1
     4    19    16    1
     5    15    16    2
     6    15    14    1
     7    16    18    1
     8    14    13    2
     9    18    12    2
    10    13    12    1
    11    12    10    1
    12    10    11    2
    13    10     9    1
    14    11     6    1
    15     3     2    2
    16     3     4    1
    17     9     8    2
    18     2     1    1
    19     6     4    1
    20     6     7    2
    21     4     5    1
    22     8     7    1
    23     1     5    2
    24     1    24    1
    25    27    26    1
    26     5    21    1
    27    26    24   am
    28    26    28    1
    29    24    25    2
    30    22    21    1
    31    22    23    1
    32    21    23    1
    33    28    29    1
    34    29    30    1
    35    30    31    2
    36    30    35    1
    37    31    32    1
    38    35    34    2
    39    32    33    2
    40    34    33    1
