@<TRIPOS>MOLECULE
78311_out_ligand_01.pdbqt
 33 37 0 0 0
SMALL
GASTEIGER

@<TRIPOS>ATOM
      1  C         23.8910  -22.7660  -11.7110 C.2     1  UNL1        0.0400
      2  C         23.1370  -21.9950  -12.5090 C.2     1  UNL1        0.0280
      3  C         21.7480  -21.7530  -12.1830 C.2     1  UNL1        0.0250
      4  C         21.1600  -22.3190  -11.1090 C.2     1  UNL1        0.0990
      5  C         21.9790  -23.2470  -10.2730 C.2     1  UNL1        0.2610
      6  O         21.5000  -23.8840   -9.3370 O.2     1  UNL1       -0.2670
      7  N         23.3060  -23.3620  -10.6130 N.am    1  UNL1       -0.3250
      8  H         23.8670  -24.0230  -10.0860 H       1  UNL1        0.1690
      9  C         19.7310  -21.9900  -10.8290 C.2     1  UNL1        0.2570
     10  O         19.2580  -20.8850  -11.0890 O.2     1  UNL1       -0.2670
     11  N         18.9960  -23.0000  -10.2620 N.am    1  UNL1       -0.3560
     12  H         19.4520  -23.8980  -10.0920 H       1  UNL1        0.1620
     13  C         17.5900  -22.8710   -9.9410 C.3     1  UNL1        0.1280
     14  C         17.3610  -22.3510   -8.5090 C.3     1  UNL1        0.0120
     15  C         16.0840  -22.9220   -7.8350 C.3     1  UNL1       -0.0080
     16  C         16.2320  -24.4300   -7.5610 C.3     1  UNL1        0.0100
     17  C         15.8770  -22.1980   -6.4880 C.3     1  UNL1        0.0100
     18  C         17.4430  -24.6880   -6.6470 C.3     1  UNL1       -0.0130
     19  C         17.2280  -23.9530   -5.3130 C.3     1  UNL1        0.0090
     20  C         18.7170  -24.1490   -7.3180 C.3     1  UNL1        0.0100
     21  C         17.0840  -22.4410   -5.5640 C.3     1  UNL1       -0.0130
     22  C         18.3610  -21.9180   -6.2450 C.3     1  UNL1        0.0100
     23  C         18.5780  -22.6380   -7.5910 C.3     1  UNL1       -0.0080
     24  C         25.3630  -23.0470  -11.9420 C.3     1  UNL1        0.3290
     25  N         26.0160  -22.0250  -12.7880 N.3     1  UNL1        0.0930
     26  C         27.0130  -21.2750  -12.0090 C.3     1  UNL1        0.3100
     27  C         26.6420  -22.6630  -13.9580 C.3     1  UNL1        0.3140
     28  C         25.7540  -22.5260  -15.1470 C.2     1  UNL1        0.0060
     29  C         25.1750  -21.3360  -15.6530 C.2     1  UNL1        0.1490
     30  N         24.3920  -21.5530  -16.7130 N.2     1  UNL1       -0.1850
     31  N         24.4800  -22.8800  -16.9050 N.pl3   1  UNL1       -0.2850
     32  C         23.7500  -23.4870  -17.9910 C.3     1  UNL1        0.1790
     33  C         25.2740  -23.5100  -15.9900 C.2     1  UNL1        0.1220
@<TRIPOS>BOND
     1    32    31    1
     2    31    30    1
     3    31    33    1
     4    30    29    2
     5    33    28    2
     6    29    28    1
     7    28    27    1
     8    27    25    1
     9    25    26    1
    10    25    24    1
    11     2     3    1
    12     2     1    2
    13     3     4    2
    14    24     1    1
    15     1     7    1
    16     4     9    1
    17     4     5    1
    18    10     9    2
    19     9    11   am
    20     7     5   am
    21     7     8    1
    22     5     6    2
    23    11    12    1
    24    11    13    1
    25    13    14    1
    26    14    15    1
    27    14    23    1
    28    15    16    1
    29    15    17    1
    30    23    20    1
    31    23    22    1
    32    16    18    1
    33    20    18    1
    34    18    19    1
    35    17    21    1
    36    22    21    1
    37    21    19    1
