@<TRIPOS>MOLECULE
78313_out_ligand_01.pdbqt
 31 34 0 0 0
SMALL
GASTEIGER

@<TRIPOS>ATOM
      1  N         22.0410  -22.9230   -8.8550 N.am    1  UNL1       -0.3530
      2  C         20.9120  -23.7100   -8.8050 C.2     1  UNL1        0.2310
      3  O         20.9260  -24.8880   -9.1590 O.2     1  UNL1       -0.2720
      4  H         22.0110  -21.9850   -8.4740 H       1  UNL1        0.1620
      5  C         23.3340  -23.4420   -9.2370 C.3     1  UNL1        0.2030
      6  C         23.7010  -22.8530  -10.5510 C.ar    1  UNL1        0.1480
      7  N         24.9620  -22.8430  -11.1080 N.ar    1  UNL1       -0.3140
      8  C         26.1650  -23.4220  -10.5650 C.3     1  UNL1        0.1600
      9  C         24.8380  -22.1420  -12.2760 C.ar    1  UNL1        0.1910
     10  N         23.5910  -21.7720  -12.4440 N.ar    1  UNL1       -0.1230
     11  N         22.8740  -22.2170  -11.3620 N.ar    1  UNL1       -0.1320
     12  S         26.1600  -21.7850  -13.3290 S.3     1  UNL1       -0.0840
     13  C         25.3160  -20.7410  -14.5600 C.3     1  UNL1        0.1410
     14  C         25.0100  -21.5080  -15.8240 C.2     1  UNL1        0.0430
     15  C         24.6980  -22.8670  -15.7660 C.2     1  UNL1        0.0280
     16  C         24.4100  -23.5430  -16.9490 C.2     1  UNL1        0.0030
     17  C         24.4360  -22.8520  -18.1520 C.2     1  UNL1        0.0190
     18  C         24.7520  -21.5050  -18.1240 C.2     1  UNL1        0.1170
     19  N         25.0380  -20.8220  -16.9940 N.2     1  UNL1       -0.2650
     20  C         19.6460  -23.0000   -8.2360 C.3     1  UNL1        0.0680
     21  C         18.7720  -24.0500   -7.4980 C.3     1  UNL1        0.0240
     22  C         17.5470  -23.4480   -6.8050 C.3     1  UNL1        0.0020
     23  C         17.7940  -22.0610   -6.2160 C.3     1  UNL1        0.0000
     24  C         19.2660  -21.8030   -5.9400 C.3     1  UNL1        0.0020
     25  C         20.1680  -21.9850   -7.1690 C.3     1  UNL1        0.0240
     26  C         18.8450  -22.4010   -9.4160 C.2     1  UNL1       -0.0400
     27  C         17.4480  -22.5010   -9.5370 C.2     1  UNL1        0.0080
     28  C         16.7730  -21.9260  -10.6210 C.2     1  UNL1        0.0010
     29  C         17.4780  -21.2400  -11.6050 C.2     1  UNL1        0.0000
     30  C         18.8590  -21.1290  -11.5100 C.2     1  UNL1        0.0010
     31  C         19.5340  -21.7020  -10.4290 C.2     1  UNL1        0.0080
@<TRIPOS>BOND
     1    17    18    2
     2    17    16    1
     3    18    19    1
     4    19    14    2
     5    16    15    2
     6    14    15    1
     7    14    13    1
     8    13    12    1
     9    12     9    1
    10    10     9   ar
    11    10    11   ar
    12     9     7   ar
    13    29    30    2
    14    29    28    1
    15    30    31    1
    16    11     6   ar
    17     7     8    1
    18     7     6   ar
    19    28    27    2
    20     6     5    1
    21    31    26    2
    22    27    26    1
    23    26    20    1
    24     5     1    1
    25     3     2    2
    26     1     2   am
    27     1     4    1
    28     2    20    1
    29    20    21    1
    30    20    25    1
    31    21    22    1
    32    25    24    1
    33    22    23    1
    34    23    24    1
