@<TRIPOS>MOLECULE
78329_out_ligand_01.pdbqt
 35 39 0 0 0
SMALL
GASTEIGER

@<TRIPOS>ATOM
      1  C         24.2680  -21.7720  -14.0830 C.ar    1  UNL1        0.1310
      2  N         23.3300  -21.3650  -14.9180 N.ar    1  UNL1       -0.1350
      3  N         22.2010  -21.0810  -14.1950 N.ar    1  UNL1       -0.1350
      4  C         22.4620  -21.3210  -12.9290 C.ar    1  UNL1        0.1320
      5  N         23.7560  -21.7590  -12.8130 N.ar    1  UNL1       -0.3190
      6  C         24.3950  -22.1040  -11.5660 C.3     1  UNL1        0.1620
      7  C         23.6860  -23.2490  -10.8270 C.3     1  UNL1        0.2930
      8  N         22.4510  -22.8580  -10.1230 N.3     1  UNL1        0.0940
      9  C         21.3400  -22.4990  -11.0260 C.3     1  UNL1        0.2800
     10  C         21.5430  -21.1750  -11.7750 C.3     1  UNL1        0.1110
     11  C         22.0450  -23.8540   -9.1110 C.3     1  UNL1        0.3110
     12  C         20.7790  -23.5620   -8.3300 C.2     1  UNL1       -0.0300
     13  C         19.6890  -24.4410   -8.3640 C.2     1  UNL1        0.0100
     14  C         18.5230  -24.1650   -7.6400 C.2     1  UNL1        0.0130
     15  C         18.4090  -22.9980   -6.8710 C.2     1  UNL1       -0.0260
     16  C         19.4990  -22.1140   -6.8520 C.2     1  UNL1        0.0130
     17  C         20.6670  -22.3900   -7.5700 C.2     1  UNL1        0.0100
     18  C         17.1830  -22.7090   -6.1090 C.2     1  UNL1       -0.0260
     19  C         15.9780  -22.4010   -6.7650 C.2     1  UNL1        0.0120
     20  C         14.8150  -22.1280   -6.0430 C.2     1  UNL1        0.0010
     21  C         14.8370  -22.1510   -4.6490 C.2     1  UNL1        0.0000
     22  C         16.0210  -22.4540   -3.9800 C.2     1  UNL1        0.0010
     23  C         17.1840  -22.7300   -4.7030 C.2     1  UNL1        0.0120
     24  C         25.6560  -22.1380  -14.4730 C.3     1  UNL1        0.1000
     25  C         26.7150  -21.1250  -14.0240 C.3     1  UNL1        0.1300
     26  N         26.9220  -20.0420  -14.9710 N.am    1  UNL1       -0.3560
     27  C         27.0230  -18.7370  -14.5200 C.2     1  UNL1        0.2530
     28  O         27.1200  -18.4370  -13.3350 O.2     1  UNL1       -0.2680
     29  H         26.5450  -20.1820  -15.9010 H       1  UNL1        0.1620
     30  C         26.9560  -17.6790  -15.5510 C.2     1  UNL1        0.0490
     31  C         26.7010  -18.0190  -16.8810 C.2     1  UNL1        0.0200
     32  C         26.6390  -17.0150  -17.8440 C.2     1  UNL1        0.0200
     33  C         26.8260  -15.7030  -17.4390 C.2     1  UNL1        0.1160
     34  N         27.0560  -15.3350  -16.1580 N.2     1  UNL1       -0.2720
     35  C         27.1120  -16.3350  -15.2420 C.2     1  UNL1        0.1330
@<TRIPOS>BOND
     1    32    33    2
     2    32    31    1
     3    33    34    1
     4    31    30    2
     5    34    35    2
     6    29    26    1
     7    30    35    1
     8    30    27    1
     9    26    27   am
    10    26    25    1
    11     2     3   ar
    12     2     1   ar
    13    27    28    2
    14    24     1    1
    15    24    25    1
    16     3     4   ar
    17     1     5   ar
    18     4     5   ar
    19     4    10    1
    20     5     6    1
    21    10     9    1
    22     6     7    1
    23     9     8    1
    24     7     8    1
    25     8    11    1
    26    11    12    1
    27    13    12    2
    28    13    14    1
    29    12    17    1
    30    14    15    2
    31    17    16    2
    32    15    16    1
    33    15    18    1
    34    19    18    2
    35    19    20    1
    36    18    23    1
    37    20    21    2
    38    23    22    2
    39    21    22    1
