@<TRIPOS>MOLECULE
78333_out_ligand_01.pdbqt
 29 31 0 0 0
SMALL
GASTEIGER

@<TRIPOS>ATOM
      1  C         19.7430  -23.8290   -9.1840 C.3     1  UNL1        0.0520
      2  C         19.1580  -22.7480  -10.0590 C.2     1  UNL1       -0.0190
      3  C         19.9370  -22.0910  -11.0450 C.2     1  UNL1        0.0420
      4  C         19.3580  -21.0620  -11.8020 C.2     1  UNL1        0.0300
      5  C         18.0200  -20.7020  -11.6350 C.2     1  UNL1        0.0030
      6  C         17.2340  -21.3700  -10.7070 C.2     1  UNL1        0.0180
      7  C         17.7960  -22.3870   -9.9230 C.2     1  UNL1        0.0400
      8  N         21.2790  -22.5000  -11.2460 N.am    1  UNL1       -0.3220
      9  C         22.4210  -22.0070  -10.6420 C.2     1  UNL1        0.2570
     10  O         22.5010  -21.0930   -9.8310 O.2     1  UNL1       -0.2670
     11  H         21.4300  -23.1860  -11.9720 H       1  UNL1        0.1690
     12  C         23.6650  -22.6960  -11.1160 C.2     1  UNL1        0.0480
     13  C         23.9000  -23.0400  -12.5080 C.2     1  UNL1        0.0240
     14  C         25.0310  -23.6590  -12.8790 C.2     1  UNL1        0.0750
     15  C         26.0540  -24.0090  -11.8580 C.2     1  UNL1        0.2450
     16  O         27.1010  -24.5620  -12.1710 O.2     1  UNL1       -0.2680
     17  N         25.7390  -23.6780  -10.5620 N.am    1  UNL1       -0.3330
     18  C         24.5750  -23.0440  -10.1920 C.2     1  UNL1        0.1080
     19  H         26.4260  -23.9300   -9.8610 H       1  UNL1        0.1680
     20  C         16.8960  -23.0980   -8.9800 C.2     1  UNL1        0.2520
     21  O         15.9810  -23.7920   -9.4010 O.2     1  UNL1       -0.2680
     22  N         17.1850  -22.9080   -7.6450 N.am    1  UNL1       -0.3520
     23  H         17.9300  -22.2730   -7.3880 H       1  UNL1        0.1630
     24  C         16.3250  -23.4340   -6.5920 C.3     1  UNL1        0.0840
     25  C         15.2660  -22.3850   -6.2060 C.3     1  UNL1        0.0250
     26  C         14.8140  -22.5360   -4.7600 C.3     1  UNL1        0.0020
     27  C         15.9760  -22.3530   -3.7830 C.3     1  UNL1        0.0000
     28  C         17.3260  -22.8030   -4.3480 C.3     1  UNL1        0.0020
     29  C         17.1660  -23.9020   -5.3910 C.3     1  UNL1        0.0250
@<TRIPOS>BOND
     1    14    13    2
     2    14    15    1
     3    13    12    1
     4    16    15    2
     5    11     8    1
     6    15    17   am
     7     4     5    2
     8     4     3    1
     9     5     6    1
    10     8     3    1
    11     8     9   am
    12    12     9    1
    13    12    18    2
    14     3     2    2
    15     6     7    2
    16     9    10    2
    17    17    18    1
    18    17    19    1
    19     2     7    1
    20     2     1    1
    21     7    20    1
    22    21    20    2
    23    20    22   am
    24    22    23    1
    25    22    24    1
    26    24    25    1
    27    24    29    1
    28    25    26    1
    29    29    28    1
    30    26    27    1
    31    28    27    1
