@<TRIPOS>MOLECULE
78377_out_ligand_01.pdbqt
 36 41 0 0 0
SMALL
GASTEIGER

@<TRIPOS>ATOM
      1  C         22.0280  -22.1170  -11.7070 C.2     1  UNL1        0.0760
      2  C         21.0600  -21.4660  -12.4990 C.2     1  UNL1        0.1590
      3  N         19.8580  -21.4110  -11.9310 N.2     1  UNL1       -0.1640
      4  N         19.9930  -22.1390  -10.7750 N.pl3   1  UNL1       -0.0630
      5  C         21.3250  -22.4710  -10.5670 C.2     1  UNL1        0.0760
      6  C         18.8420  -22.4590   -9.9650 C.cat   1  UNL1        0.7500
      7  N         17.8440  -23.1360  -10.5500 N.2     1  UNL1       -0.0730
      8  C         16.7830  -23.3960   -9.7780 C.2     1  UNL1        0.1460
      9  C         16.6530  -23.0490   -8.4360 C.2     1  UNL1       -0.0100
     10  C         17.7550  -22.4200   -7.8700 C.2     1  UNL1        0.0940
     11  C         15.3510  -23.4410   -7.8110 C.3     1  UNL1        0.0430
     12  N         18.8250  -22.1000   -8.6620 N.2     1  UNL1       -0.0600
     13  C         17.9640  -22.0260   -6.4280 C.2     1  UNL1        0.0000
     14  C         19.1030  -21.2360   -6.1110 C.2     1  UNL1        0.0140
     15  C         17.1600  -22.3870   -5.3200 C.2     1  UNL1       -0.0460
     16  C         19.4350  -20.8170   -4.8180 C.2     1  UNL1        0.0010
     17  C         18.6320  -21.1880   -3.7590 C.2     1  UNL1        0.0010
     18  C         17.5140  -21.9710   -4.0080 C.2     1  UNL1        0.0080
     19  C         15.9220  -23.2400   -5.4020 C.3     1  UNL1        0.0400
     20  C         14.9810  -22.7880   -6.4980 C.3     1  UNL1        0.0090
     21  C         21.9480  -23.0950   -9.2850 C.3     1  UNL1        0.0390
     22  C         22.0980  -22.2310   -8.0550 C.3     1  UNL1        0.0110
     23  C         23.3130  -22.6380   -8.8270 C.3     1  UNL1        0.0110
     24  C         23.4300  -22.3620  -12.0020 C.2     1  UNL1        0.2550
     25  O         23.8960  -23.4870  -12.1530 O.2     1  UNL1       -0.2680
     26  N         24.2020  -21.2170  -12.0850 N.am    1  UNL1       -0.3570
     27  H         23.8250  -20.3800  -11.6610 H       1  UNL1        0.1620
     28  C         25.6420  -21.3140  -12.2060 C.3     1  UNL1        0.1230
     29  C         26.1290  -20.9220  -13.5980 C.3     1  UNL1        0.0240
     30  C         24.9710  -20.5480  -14.5270 C.3     1  UNL1        0.0400
     31  C         24.8780  -21.4910  -15.7000 C.2     1  UNL1       -0.0550
     32  C         24.9560  -21.0130  -17.0100 C.2     1  UNL1        0.0260
     33  C         24.8860  -21.9210  -18.0550 C.2     1  UNL1        0.1160
     34  N         24.7530  -23.2540  -17.8860 N.2     1  UNL1       -0.2730
     35  C         24.6830  -23.6960  -16.6120 C.2     1  UNL1        0.1160
     36  C         24.7430  -22.8670  -15.5010 C.2     1  UNL1        0.0260
@<TRIPOS>BOND
     1    33    34    2
     2    33    32    1
     3    34    35    1
     4    32    31    2
     5    35    36    2
     6    31    36    1
     7    31    30    1
     8    30    29    1
     9    29    28    1
    10     2     3    2
    11     2     1    1
    12    28    26    1
    13    25    24    2
    14    26    24   am
    15    26    27    1
    16    24     1    1
    17     3     4    1
    18     1     5    2
    19     4     5    1
    20     4     6    1
    21     5    21    1
    22     7     6    2
    23     7     8    1
    24     6    12    1
    25     8     9    2
    26    21    23    1
    27    21    22    1
    28    23    22    1
    29    12    10    2
    30     9    10    1
    31     9    11    1
    32    10    13    1
    33    11    20    1
    34    20    19    1
    35    13    14    2
    36    13    15    1
    37    14    16    1
    38    19    15    1
    39    15    18    2
    40    16    17    2
    41    18    17    1
