@<TRIPOS>MOLECULE
78387_out_ligand_01.pdbqt
 32 35 0 0 0
SMALL
GASTEIGER

@<TRIPOS>ATOM
      1  N         20.0210  -22.1820  -10.6450 N.pl3   1  UNL1       -0.0630
      2  N         19.2320  -21.7160  -11.6620 N.2     1  UNL1       -0.1640
      3  C         17.9900  -21.8640  -11.2250 C.2     1  UNL1        0.1590
      4  C         17.9110  -22.5160   -9.9820 C.2     1  UNL1        0.0760
      5  C         19.2380  -22.8020   -9.6520 C.2     1  UNL1        0.0750
      6  C         21.4550  -21.9750  -10.6990 C.cat   1  UNL1        0.7500
      7  N         22.0730  -21.5280   -9.5860 N.2     1  UNL1       -0.0730
      8  C         23.4070  -21.3680   -9.6440 C.2     1  UNL1        0.1450
      9  C         24.1680  -21.6340  -10.7630 C.2     1  UNL1       -0.0140
     10  C         25.6470  -21.4250  -10.7560 C.3     1  UNL1        0.0520
     11  C         23.4570  -22.1080  -11.8550 C.2     1  UNL1        0.0930
     12  N         22.1140  -22.2700  -11.8360 N.2     1  UNL1       -0.0600
     13  C         24.0750  -22.4670  -13.1390 C.2     1  UNL1       -0.0060
     14  C         24.8120  -23.6560  -13.2890 C.2     1  UNL1        0.0170
     15  C         25.3870  -23.9910  -14.5180 C.2     1  UNL1        0.0430
     16  C         25.2250  -23.1400  -15.6040 C.2     1  UNL1        0.1160
     17  F         25.7790  -23.4600  -16.7800 F       1  UNL1       -0.2060
     18  C         24.4960  -21.9640  -15.4870 C.2     1  UNL1        0.0430
     19  C         23.9200  -21.6310  -14.2600 C.2     1  UNL1        0.0170
     20  C         19.8210  -23.5920   -8.5000 C.3     1  UNL1        0.0310
     21  C         20.8400  -24.6220   -8.9840 C.3     1  UNL1        0.0160
     22  C         20.4120  -22.7030   -7.4010 C.3     1  UNL1        0.0160
     23  C         16.7100  -22.8040   -9.2180 C.2     1  UNL1        0.2550
     24  O         15.8040  -23.5110   -9.6440 O.2     1  UNL1       -0.2680
     25  N         16.6790  -22.2350   -7.9670 N.am    1  UNL1       -0.3510
     26  H         17.4720  -21.7140   -7.6230 H       1  UNL1        0.1630
     27  C         15.6280  -22.5470   -7.0240 C.3     1  UNL1        0.1840
     28  C         16.2410  -23.0920   -5.7830 C.2     1  UNL1        0.0810
     29  C         17.4450  -22.6910   -5.1560 C.2     1  UNL1        0.0580
     30  C         17.5360  -23.5000   -4.0560 C.2     1  UNL1        0.1720
     31  O         16.4670  -24.3320   -4.0140 O.2     1  UNL1       -0.2250
     32  N         15.6430  -24.0780   -5.0990 N.2     1  UNL1       -0.1320
@<TRIPOS>BOND
     1    17    16    1
     2    16    18    2
     3    16    15    1
     4    18    19    1
     5    15    14    2
     6    19    13    2
     7    14    13    1
     8    13    11    1
     9    11    12    2
    10    11     9    1
    11    12     6    1
    12     2     3    2
    13     2     1    1
    14     3     4    1
    15     9    10    1
    16     9     8    2
    17     6     1    1
    18     6     7    2
    19     1     5    1
    20     4     5    2
    21     4    23    1
    22     5    20    1
    23    24    23    2
    24     8     7    1
    25    23    25   am
    26    21    20    1
    27    20    22    1
    28    25    26    1
    29    25    27    1
    30    27    28    1
    31    28    29    1
    32    28    32    2
    33    29    30    2
    34    32    31    1
    35    30    31    1
