@<TRIPOS>MOLECULE
78392_out_ligand_01.pdbqt
 34 38 0 0 0
SMALL
GASTEIGER

@<TRIPOS>ATOM
      1  C         22.2560  -21.3650  -12.8310 C.2     1  UNL1        0.0400
      2  C         22.4750  -22.3110  -11.8990 C.2     1  UNL1        0.0280
      3  C         21.4210  -22.7290  -11.0060 C.2     1  UNL1        0.0250
      4  C         20.1990  -22.1660  -11.0490 C.2     1  UNL1        0.1000
      5  C         19.9710  -21.0630  -12.0250 C.2     1  UNL1        0.2610
      6  O         18.8990  -20.4620  -12.1020 O.2     1  UNL1       -0.2670
      7  N         21.0180  -20.7560  -12.8670 N.am    1  UNL1       -0.3250
      8  H         20.8290  -20.0280  -13.5430 H       1  UNL1        0.1690
      9  C         19.1430  -22.7130  -10.1500 C.2     1  UNL1        0.2570
     10  O         18.1140  -23.1970  -10.6150 O.2     1  UNL1       -0.2670
     11  N         19.4140  -22.6010   -8.8030 N.am    1  UNL1       -0.3470
     12  H         20.1760  -21.9650   -8.5800 H       1  UNL1        0.1630
     13  C         18.4250  -22.7810   -7.7320 C.3     1  UNL1        0.0340
     14  C         17.0110  -22.2540   -8.0920 C.3     1  UNL1        0.0350
     15  C         16.0200  -22.5060   -6.9380 C.3     1  UNL1       -0.0120
     16  C         16.5310  -21.7980   -5.6670 C.3     1  UNL1        0.0090
     17  C         15.9260  -24.0170   -6.6740 C.3     1  UNL1        0.0090
     18  C         17.9160  -22.3410   -5.2810 C.3     1  UNL1       -0.0120
     19  C         17.8140  -23.8550   -5.0300 C.3     1  UNL1        0.0090
     20  C         18.9020  -22.0820   -6.4340 C.3     1  UNL1        0.0350
     21  C         17.3100  -24.5690   -6.2960 C.3     1  UNL1       -0.0120
     22  C         18.2930  -24.3040   -7.4490 C.3     1  UNL1        0.0350
     23  C         23.2730  -20.9450  -13.8880 C.3     1  UNL1        0.3290
     24  N         24.2220  -22.0010  -14.2960 N.3     1  UNL1        0.0940
     25  C         24.2010  -22.1890  -15.7530 C.3     1  UNL1        0.3100
     26  C         25.6050  -21.6810  -13.8930 C.3     1  UNL1        0.3150
     27  C         26.0800  -22.5790  -12.7930 C.ar    1  UNL1        0.0190
     28  C         26.5400  -23.8840  -12.8970 C.ar    1  UNL1        0.0340
     29  N         26.8080  -24.2920  -11.6200 N.ar    1  UNL1       -0.2820
     30  C         26.7330  -24.7660  -14.0710 C.3     1  UNL1        0.0700
     31  N         26.5680  -23.3590  -10.6920 N.ar    1  UNL1       -0.1790
     32  H         27.1350  -25.1980  -11.3050 H       1  UNL1        0.1890
     33  C         26.1330  -22.3060  -11.3940 C.ar    1  UNL1        0.0600
     34  C         25.7780  -21.0460  -10.6980 C.3     1  UNL1        0.0730
@<TRIPOS>BOND
     1    25    24    1
     2    24    26    1
     3    24    23    1
     4    30    28    1
     5    26    27    1
     6    23     1    1
     7     8     7    1
     8    28    27   ar
     9    28    29   ar
    10     7     1    1
    11     7     5   am
    12     1     2    2
    13    27    33   ar
    14     6     5    2
    15     5     4    1
    16     2     3    1
    17    29    32    1
    18    29    31   ar
    19    33    34    1
    20    33    31   ar
    21     4     3    2
    22     4     9    1
    23    10     9    2
    24     9    11   am
    25    11    12    1
    26    11    13    1
    27    14    13    1
    28    14    15    1
    29    13    22    1
    30    13    20    1
    31    22    21    1
    32    15    17    1
    33    15    16    1
    34    17    21    1
    35    20    18    1
    36    21    19    1
    37    16    18    1
    38    18    19    1
