@<TRIPOS>MOLECULE
78412_out_ligand_01.pdbqt
 34 39 0 0 0
SMALL
GASTEIGER

@<TRIPOS>ATOM
      1  C         21.5720  -22.2890  -10.4790 C.2     1  UNL1        0.0990
      2  C         22.1880  -22.5440  -11.6490 C.2     1  UNL1        0.0250
      3  C         23.5930  -22.8690  -11.7140 C.2     1  UNL1        0.0280
      4  C         24.3320  -22.9360  -10.5940 C.2     1  UNL1        0.0400
      5  N         23.7220  -22.6760   -9.3830 N.am    1  UNL1       -0.3250
      6  C         22.3910  -22.3590   -9.2320 C.2     1  UNL1        0.2610
      7  O         21.9150  -22.1510   -8.1180 O.2     1  UNL1       -0.2670
      8  H         24.2610  -22.7100   -8.5250 H       1  UNL1        0.1690
      9  C         20.1160  -21.9580  -10.5060 C.2     1  UNL1        0.2570
     10  O         19.6830  -21.0090  -11.1540 O.2     1  UNL1       -0.2670
     11  N         19.3080  -22.7850   -9.7680 N.am    1  UNL1       -0.3560
     12  H         19.7310  -23.5910   -9.3090 H       1  UNL1        0.1620
     13  C         17.8640  -22.6710   -9.7630 C.3     1  UNL1        0.1280
     14  C         17.3190  -22.2480   -8.3860 C.3     1  UNL1        0.0120
     15  C         15.9420  -22.8760   -8.0400 C.3     1  UNL1       -0.0080
     16  C         16.0670  -24.3970   -7.8280 C.3     1  UNL1        0.0100
     17  C         15.4290  -22.2410   -6.7290 C.3     1  UNL1        0.0100
     18  C         17.0580  -24.6940   -6.6880 C.3     1  UNL1       -0.0130
     19  C         16.5420  -24.0460   -5.3920 C.3     1  UNL1        0.0090
     20  C         18.4320  -24.0990   -7.0350 C.3     1  UNL1        0.0100
     21  C         16.4140  -22.5240   -5.5810 C.3     1  UNL1       -0.0130
     22  C         17.7940  -21.9420   -5.9380 C.3     1  UNL1        0.0100
     23  C         18.3170  -22.5760   -7.2440 C.3     1  UNL1       -0.0080
     24  C         25.8160  -23.2570  -10.5820 C.3     1  UNL1        0.3290
     25  N         26.6700  -22.1920  -11.1370 N.3     1  UNL1        0.0980
     26  C         25.9990  -20.8750  -11.0170 C.3     1  UNL1        0.2780
     27  C         26.1840  -19.9080  -12.2020 C.3     1  UNL1        0.0690
     28  C         25.7890  -20.6240  -13.4660 C.2     1  UNL1       -0.0490
     29  C         25.0320  -20.0290  -14.4770 C.2     1  UNL1        0.0070
     30  C         26.2280  -21.9530  -13.5970 C.2     1  UNL1       -0.0240
     31  C         24.6960  -20.7690  -15.6110 C.2     1  UNL1        0.0010
     32  C         25.1230  -22.0920  -15.7410 C.2     1  UNL1        0.0010
     33  C         25.8960  -22.6840  -14.7400 C.2     1  UNL1        0.0090
     34  C         27.1210  -22.5040  -12.5090 C.3     1  UNL1        0.3120
@<TRIPOS>BOND
     1    32    31    2
     2    32    33    1
     3    31    29    1
     4    33    30    2
     5    29    28    2
     6    30    28    1
     7    30    34    1
     8    28    27    1
     9    34    25    1
    10    27    26    1
    11     3     2    1
    12     3     4    2
    13     2     1    2
    14    10     9    2
    15    25    26    1
    16    25    24    1
    17     4    24    1
    18     4     5    1
    19     9     1    1
    20     9    11   am
    21     1     6    1
    22    11    13    1
    23    11    12    1
    24    13    14    1
    25     5     6   am
    26     5     8    1
    27     6     7    2
    28    14    15    1
    29    14    23    1
    30    15    16    1
    31    15    17    1
    32    16    18    1
    33    23    20    1
    34    23    22    1
    35    20    18    1
    36    17    21    1
    37    18    19    1
    38    22    21    1
    39    21    19    1
