@<TRIPOS>MOLECULE
7841_out_ligand_01.pdbqt
 33 35 0 0 0
SMALL
GASTEIGER

@<TRIPOS>ATOM
      1  C         19.1260  -22.4200  -10.2580 C.2     1  UNL1        0.0390
      2  C         18.8370  -21.2940  -11.0410 C.2     1  UNL1        0.0170
      3  C         19.8130  -20.7540  -11.8700 C.2     1  UNL1        0.0030
      4  C         21.0770  -21.3380  -11.9100 C.2     1  UNL1        0.0250
      5  C         21.3690  -22.4760  -11.1450 C.2     1  UNL1        0.0290
      6  C         20.3850  -23.0630  -10.3260 C.2     1  UNL1       -0.0240
      7  C         20.6530  -24.3130   -9.5320 C.3     1  UNL1        0.0510
      8  C         18.0360  -22.8850   -9.3660 C.2     1  UNL1        0.2520
      9  N         18.1810  -22.5340   -8.0450 N.am    1  UNL1       -0.3480
     10  H         18.9620  -21.9580   -7.7630 H       1  UNL1        0.1630
     11  O         17.0810  -23.4930   -9.8280 O.2     1  UNL1       -0.2680
     12  C         17.2540  -22.9790   -7.0170 C.3     1  UNL1        0.1160
     13  C         15.8110  -22.6190   -7.3910 C.3     1  UNL1        0.0370
     14  C         17.7010  -22.4200   -5.6710 C.2     1  UNL1       -0.0030
     15  C         18.5830  -21.3240   -5.6030 C.2     1  UNL1        0.0120
     16  C         19.0130  -20.8220   -4.3750 C.2     1  UNL1        0.0010
     17  C         18.5790  -21.4150   -3.1950 C.2     1  UNL1        0.0030
     18  C         17.7220  -22.5160   -3.2400 C.2     1  UNL1        0.0370
     19  C         17.2840  -23.0290   -4.4670 C.2     1  UNL1        0.0760
     20  O         16.4660  -24.1180   -4.5950 O.2     1  UNL1       -0.3550
     21  C         15.1700  -24.0500   -4.0150 C.3     1  UNL1        0.2100
     22  N         22.6960  -23.0200  -11.2600 N.pl3   1  UNL1       -0.1810
     23  H         23.0510  -22.9750  -12.2160 H       1  UNL1        0.1460
     24  S         23.8650  -22.2940  -10.2460 S.O2    1  UNL1        0.2450
     25  O         24.7340  -23.2970   -9.6720 O.2     1  UNL1       -0.2060
     26  O         23.1640  -21.3240   -9.4320 O.2     1  UNL1       -0.2060
     27  C         24.8170  -21.4040  -11.4560 C.2     1  UNL1        0.0740
     28  C         24.4300  -21.4640  -12.7980 C.2     1  UNL1        0.0250
     29  C         25.1760  -20.7790  -13.7580 C.2     1  UNL1        0.0080
     30  C         26.3020  -20.0330  -13.3830 C.2     1  UNL1       -0.0620
     31  C         27.1200  -19.3310  -14.4270 C.3     1  UNL1        0.0480
     32  C         26.6900  -20.0030  -12.0360 C.2     1  UNL1        0.0080
     33  C         25.9490  -20.6850  -11.0690 C.2     1  UNL1        0.0250
@<TRIPOS>BOND
     1    31    30    1
     2    29    30    2
     3    29    28    1
     4    30    32    1
     5    28    27    2
     6    23    22    1
     7    32    33    2
     8     4     3    2
     9     4     5    1
    10     3     2    1
    11    27    33    1
    12    27    24    1
    13    22     5    1
    14    22    24    1
    15     5     6    2
    16     2     1    2
    17     6     1    1
    18     6     7    1
    19     1     8    1
    20    24    25    2
    21    24    26    2
    22    11     8    2
    23     8     9   am
    24     9    10    1
    25     9    12    1
    26    13    12    1
    27    12    14    1
    28    14    15    2
    29    14    19    1
    30    15    16    1
    31    20    19    1
    32    20    21    1
    33    19    18    2
    34    16    17    2
    35    18    17    1
