@<TRIPOS>MOLECULE
78420_out_ligand_01.pdbqt
 34 38 0 0 0
SMALL
GASTEIGER

@<TRIPOS>ATOM
      1  C         16.9660  -21.9460  -10.2100 C.ar    1  UNL1        0.1520
      2  N         16.6480  -20.9640  -11.0330 N.ar    1  UNL1       -0.1330
      3  N         17.7490  -20.6660  -11.7890 N.ar    1  UNL1       -0.1350
      4  C         18.7250  -21.4710  -11.4300 C.ar    1  UNL1        0.1320
      5  N         18.2780  -22.3050  -10.4380 N.ar    1  UNL1       -0.3170
      6  C         19.0030  -23.3490   -9.7490 C.3     1  UNL1        0.1620
      7  C         20.5130  -23.4820  -10.0070 C.3     1  UNL1        0.2930
      8  N         21.2160  -22.2100   -9.8140 N.3     1  UNL1        0.0940
      9  C         21.2180  -21.3470  -11.0190 C.3     1  UNL1        0.2800
     10  C         20.0770  -21.5210  -12.0320 C.3     1  UNL1        0.1110
     11  C         16.0470  -22.5940   -9.2210 C.3     1  UNL1        0.1520
     12  C         15.7070  -24.0210   -9.6450 C.3     1  UNL1        0.0400
     13  N         16.7270  -22.6000   -7.9360 N.am    1  UNL1       -0.3460
     14  C         16.0510  -22.3570   -6.7630 C.2     1  UNL1        0.2550
     15  O         14.8240  -22.3150   -6.7020 O.2     1  UNL1       -0.2680
     16  H         17.7230  -22.4060   -7.9660 H       1  UNL1        0.1630
     17  C         16.8580  -22.1220   -5.5350 C.2     1  UNL1        0.0730
     18  C         18.0350  -21.3680   -5.6510 C.2     1  UNL1        0.0620
     19  C         18.8180  -21.1280   -4.5270 C.2     1  UNL1        0.1170
     20  F         19.9400  -20.4090   -4.6490 F       1  UNL1       -0.2060
     21  C         18.4570  -21.6230   -3.2790 C.2     1  UNL1        0.0450
     22  C         17.2890  -22.3730   -3.1530 C.2     1  UNL1        0.0460
     23  C         16.4980  -22.6170   -4.2770 C.2     1  UNL1        0.1320
     24  F         15.3840  -23.3440   -4.1110 F       1  UNL1       -0.2050
     25  C         22.5800  -22.4130   -9.2930 C.3     1  UNL1        0.3110
     26  C         23.6560  -22.3190  -10.3570 C.2     1  UNL1       -0.0290
     27  C         24.6250  -21.2890  -10.2970 C.2     1  UNL1        0.0120
     28  C         25.6260  -21.1840  -11.2650 C.2     1  UNL1        0.0380
     29  C         25.6480  -22.1250  -12.2720 C.2     1  UNL1        0.0750
     30  C         24.7100  -23.1410  -12.3480 C.2     1  UNL1       -0.0220
     31  O         26.5650  -22.1430  -13.2920 O.2     1  UNL1       -0.3500
     32  C         23.7030  -23.2540  -11.4050 C.2     1  UNL1        0.0190
     33  C         24.9530  -23.9340  -13.5740 C.3     1  UNL1        0.0680
     34  C         26.3620  -23.4390  -13.9030 C.3     1  UNL1        0.1800
@<TRIPOS>BOND
     1    34    33    1
     2    34    31    1
     3    33    30    1
     4    31    29    1
     5    30    29    2
     6    30    32    1
     7    29    28    1
     8    10     4    1
     9    10     9    1
    10     3     4   ar
    11     3     2   ar
    12     4     5   ar
    13    32    26    2
    14    28    27    2
    15     2     1   ar
    16     9     8    1
    17     5     1   ar
    18     5     6    1
    19    26    27    1
    20    26    25    1
    21     1    11    1
    22     7     8    1
    23     7     6    1
    24     8    25    1
    25    12    11    1
    26    11    13    1
    27    16    13    1
    28    13    14   am
    29    14    15    2
    30    14    17    1
    31    18    17    2
    32    18    19    1
    33    17    23    1
    34    20    19    1
    35    19    21    2
    36    23    24    1
    37    23    22    2
    38    21    22    1
