@<TRIPOS>MOLECULE
78451_out_ligand_01.pdbqt
 31 35 0 0 0
SMALL
GASTEIGER

@<TRIPOS>ATOM
      1  S         19.9100  -23.3030   -9.1600 S.O2    1  UNL1        0.2640
      2  O         18.9870  -23.0030  -10.2330 O.2     1  UNL1       -0.2000
      3  O         20.4290  -24.6420   -8.9760 O.2     1  UNL1       -0.2000
      4  N         21.2180  -22.2390   -9.3390 N.pl3   1  UNL1       -0.2810
      5  H         21.0290  -21.3710   -8.8340 H       1  UNL1        0.1790
      6  C         21.8070  -22.1320  -10.6300 C.2     1  UNL1        0.0430
      7  C         23.0480  -22.7270  -10.8680 C.2     1  UNL1        0.0480
      8  C         23.5980  -22.5400  -12.1200 C.2     1  UNL1        0.0500
      9  C         24.8580  -23.0240  -12.6830 C.2     1  UNL1        0.2590
     10  C         22.9660  -21.7940  -13.1010 C.2     1  UNL1        0.0480
     11  N         24.9210  -22.5410  -13.9530 N.am    1  UNL1       -0.2890
     12  O         25.6590  -23.7280  -12.1040 O.2     1  UNL1       -0.2670
     13  C         23.8270  -21.8030  -14.2830 C.2     1  UNL1        0.2590
     14  H         25.6850  -22.7250  -14.5840 H       1  UNL1        0.1720
     15  O         23.5800  -21.2520  -15.3370 O.2     1  UNL1       -0.2670
     16  C         21.7410  -21.1940  -12.8860 C.2     1  UNL1        0.0200
     17  C         21.1600  -21.3680  -11.6250 C.2     1  UNL1        0.0310
     18  C         19.1610  -22.7670   -7.6410 C.2     1  UNL1        0.0910
     19  C         19.8610  -21.8190   -6.8450 C.2     1  UNL1        0.0280
     20  C         19.3200  -21.3390   -5.6410 C.2     1  UNL1        0.0320
     21  C         18.0900  -21.8270   -5.2680 C.2     1  UNL1        0.0470
     22  C         17.4280  -22.7450   -6.0390 C.2     1  UNL1        0.0180
     23  N         17.3180  -21.5360   -4.1480 N.am    1  UNL1       -0.3220
     24  C         16.2340  -23.0640   -5.4440 C.2     1  UNL1        0.0450
     25  C         17.8910  -23.2750   -7.2410 C.2     1  UNL1        0.0010
     26  C         15.3720  -23.9720   -6.0200 C.2     1  UNL1        0.0180
     27  C         16.1460  -22.2750   -4.1960 C.2     1  UNL1        0.2570
     28  C         15.7680  -24.5540   -7.2320 C.2     1  UNL1        0.0020
     29  C         17.0030  -24.2170   -7.8380 C.2     1  UNL1        0.0140
     30  O         15.2310  -22.2850   -3.4000 O.2     1  UNL1       -0.2670
     31  H         17.5490  -20.8990   -3.4000 H       1  UNL1        0.1690
@<TRIPOS>BOND
     1    15    13    2
     2    14    11    1
     3    13    11   am
     4    13    10    1
     5    11     9   am
     6    10    16    2
     7    10     8    1
     8    16    17    1
     9     9     8    1
    10     9    12    2
    11     8     7    2
    12    17     6    2
    13     7     6    1
    14     6     4    1
    15     2     1    2
    16     4     1    1
    17     4     5    1
    18     1     3    2
    19     1    18    1
    20    29    25    1
    21    29    28    2
    22    18    25    2
    23    18    19    1
    24    25    22    1
    25    28    26    1
    26    19    20    2
    27    22    24    1
    28    22    21    2
    29    26    24    2
    30    20    21    1
    31    24    27    1
    32    21    23    1
    33    27    23   am
    34    27    30    2
    35    23    31    1
