@<TRIPOS>MOLECULE
78468_out_ligand_01.pdbqt
 33 35 0 0 0
SMALL
GASTEIGER

@<TRIPOS>ATOM
      1  C         20.7630  -22.0450  -11.0300 C.ar    1  UNL1        0.0800
      2  C         20.9660  -22.6850   -9.8120 C.ar    1  UNL1        0.0940
      3  S         22.5240  -23.3210   -9.6610 S.2     1  UNL1       -0.0650
      4  C         22.9860  -22.7880  -11.2100 C.ar    1  UNL1        0.0810
      5  C         21.9790  -22.0670  -11.8400 C.ar    1  UNL1       -0.0200
      6  C         22.1380  -21.3830  -13.1670 C.3     1  UNL1        0.0510
      7  N         20.0260  -22.8170   -8.7980 N.am    1  UNL1       -0.3160
      8  C         20.1090  -22.3440   -7.5020 C.2     1  UNL1        0.2560
      9  O         21.0140  -21.6920   -6.9960 O.2     1  UNL1       -0.2670
     10  H         19.1630  -23.2730   -9.0890 H       1  UNL1        0.1690
     11  C         18.9250  -22.6560   -6.6450 C.2     1  UNL1        0.0320
     12  C         18.1660  -23.8240   -6.8160 C.2     1  UNL1        0.0190
     13  C         17.0690  -24.0780   -5.9830 C.2     1  UNL1        0.0370
     14  C         16.7400  -23.1660   -4.9700 C.2     1  UNL1        0.1020
     15  C         17.5020  -22.0070   -4.7810 C.2     1  UNL1        0.0370
     16  C         18.5950  -21.7590   -5.6170 C.2     1  UNL1        0.0190
     17  N         15.5900  -23.4340   -4.0970 N.pl3   1  UNL1       -0.1160
     18  O         14.9420  -22.4620   -3.6850 O.2     1  UNL1       -0.5320
     19  O         15.3370  -24.6150   -3.8210 O.2     1  UNL1       -0.5320
     20  C         19.4610  -21.4500  -11.3640 C.2     1  UNL1        0.2960
     21  O         19.3470  -20.3070  -11.7990 O.2     1  UNL1       -0.2590
     22  O         18.4040  -22.2740  -11.1160 O.3     1  UNL1       -0.3180
     23  C         17.2000  -21.6020  -10.7280 C.3     1  UNL1        0.1740
     24  C         16.4620  -22.4920   -9.7460 C.3     1  UNL1        0.0340
     25  C         24.3250  -23.1220  -11.6710 C.2     1  UNL1        0.2590
     26  O         25.3490  -22.9120  -11.0270 O.2     1  UNL1       -0.2670
     27  N         24.3500  -23.7210  -12.9160 N.am    1  UNL1       -0.3520
     28  H         23.4740  -23.9080  -13.3820 H       1  UNL1        0.1630
     29  C         25.5970  -24.0920  -13.5640 C.3     1  UNL1        0.0840
     30  C         25.3560  -25.0050  -14.7620 C.3     1  UNL1        0.0250
     31  C         24.9650  -24.0610  -15.8970 C.3     1  UNL1        0.0020
     32  C         25.5680  -22.7010  -15.5440 C.3     1  UNL1        0.0020
     33  C         26.2800  -22.8860  -14.2040 C.3     1  UNL1        0.0250
@<TRIPOS>BOND
     1    31    32    1
     2    31    30    1
     3    32    33    1
     4    30    29    1
     5    33    29    1
     6    29    27    1
     7    28    27    1
     8     6     5    1
     9    27    25   am
    10     5     4   ar
    11     5     1   ar
    12    21    20    2
    13    25     4    1
    14    25    26    2
    15    20    22    1
    16    20     1    1
    17     4     3   ar
    18    22    23    1
    19     1     2   ar
    20    23    24    1
    21     2     3   ar
    22     2     7    1
    23    10     7    1
    24     7     8   am
    25     8     9    2
    26     8    11    1
    27    12    11    2
    28    12    13    1
    29    11    16    1
    30    13    14    2
    31    16    15    2
    32    14    15    1
    33    14    17    1
    34    17    19    2
    35    17    18    2
