@<TRIPOS>MOLECULE
78477_out_ligand_01.pdbqt
 33 36 0 0 0
SMALL
GASTEIGER

@<TRIPOS>ATOM
      1  C         19.3350  -21.6320  -11.0810 C.2     1  UNL1        0.0340
      2  C         18.4340  -21.4010  -12.1250 C.2     1  UNL1        0.0170
      3  C         17.0640  -21.4790  -11.8800 C.2     1  UNL1        0.0030
      4  C         16.5910  -21.7750  -10.5980 C.2     1  UNL1        0.0290
      5  C         17.4810  -21.9840   -9.5420 C.2     1  UNL1        0.0350
      6  C         18.8560  -21.9070   -9.7920 C.2     1  UNL1        0.0460
      7  N         17.0820  -22.2720   -8.2220 N.am    1  UNL1       -0.3230
      8  C         16.2830  -23.3160   -7.7950 C.2     1  UNL1        0.2570
      9  O         15.7610  -24.1870   -8.4770 O.2     1  UNL1       -0.2670
     10  H         17.3830  -21.6150   -7.5100 H       1  UNL1        0.1690
     11  C         16.0680  -23.3300   -6.3260 C.2     1  UNL1        0.0430
     12  C         14.9790  -24.0710   -5.8430 C.2     1  UNL1        0.0180
     13  C         14.7360  -24.1330   -4.4770 C.2     1  UNL1        0.0020
     14  C         15.5770  -23.4550   -3.5940 C.2     1  UNL1        0.0120
     15  C         16.6700  -22.7040   -4.0600 C.2     1  UNL1       -0.0250
     16  C         17.5050  -22.0300   -3.1530 C.2     1  UNL1        0.0120
     17  C         16.9310  -22.6250   -5.4500 C.2     1  UNL1       -0.0100
     18  C         18.5950  -21.2820   -3.5980 C.2     1  UNL1        0.0010
     19  C         18.8640  -21.1960   -4.9580 C.2     1  UNL1        0.0010
     20  C         18.0440  -21.8590   -5.8740 C.2     1  UNL1        0.0130
     21  C         20.8100  -21.5660  -11.2850 C.2     1  UNL1        0.2560
     22  N         21.2300  -21.7590  -12.5890 N.am    1  UNL1       -0.3230
     23  H         20.5270  -22.0350  -13.2620 H       1  UNL1        0.1690
     24  O         21.5220  -21.3890  -10.3030 O.2     1  UNL1       -0.2670
     25  C         22.5530  -21.7110  -13.0770 C.2     1  UNL1        0.0350
     26  C         22.8380  -20.7550  -14.0580 C.2     1  UNL1        0.0300
     27  C         24.1280  -20.6400  -14.5890 C.2     1  UNL1        0.0170
     28  C         25.1560  -21.4790  -14.1430 C.2     1  UNL1        0.0090
     29  C         24.8760  -22.4310  -13.1590 C.2     1  UNL1        0.0170
     30  C         23.5820  -22.5430  -12.6300 C.2     1  UNL1        0.0300
     31  C         26.5150  -21.3190  -14.7380 C.2     1  UNL1        0.1550
     32  C         27.1210  -19.9420  -14.8180 C.3     1  UNL1        0.0960
     33  O         27.1210  -22.3050  -15.1550 O.2     1  UNL1       -0.2930
@<TRIPOS>BOND
     1    33    31    2
     2    32    31    1
     3    31    28    1
     4    27    28    2
     5    27    26    1
     6    28    29    1
     7    26    25    2
     8    23    22    1
     9    29    30    2
    10    25    30    1
    11    25    22    1
    12    22    21   am
    13     2     3    1
    14     2     1    2
    15     3     4    2
    16    21     1    1
    17    21    24    2
    18     1     6    1
    19     4     5    1
    20     6     5    2
    21     5     7    1
    22     9     8    2
    23     7     8   am
    24     7    10    1
    25     8    11    1
    26    11    12    2
    27    11    17    1
    28    20    17    1
    29    20    19    2
    30    12    13    1
    31    17    15    2
    32    19    18    1
    33    13    14    2
    34    15    14    1
    35    15    16    1
    36    18    16    2
