@<TRIPOS>MOLECULE
7848_out_ligand_01.pdbqt
 35 37 0 0 0
SMALL
GASTEIGER

@<TRIPOS>ATOM
      1  C         17.0100  -21.0550  -11.3260 C.3     1  UNL1        0.0500
      2  C         18.4090  -21.4980  -10.9990 C.2     1  UNL1       -0.0390
      3  C         19.4690  -20.9830  -11.7650 C.2     1  UNL1        0.0090
      4  C         20.7900  -21.3620  -11.5130 C.2     1  UNL1        0.0170
      5  C         21.0840  -22.2540  -10.4780 C.2     1  UNL1        0.0330
      6  C         20.0440  -22.7850   -9.7100 C.2     1  UNL1        0.0420
      7  C         18.7130  -22.4130   -9.9710 C.2     1  UNL1        0.0860
      8  C         22.5020  -22.6440  -10.2540 C.2     1  UNL1        0.2510
      9  O         22.7570  -23.6790   -9.6490 O.2     1  UNL1       -0.2680
     10  N         23.4560  -21.7990  -10.7760 N.am    1  UNL1       -0.3530
     11  H         23.1810  -21.0510  -11.3960 H       1  UNL1        0.1630
     12  C         24.8680  -22.0940  -10.6650 C.3     1  UNL1        0.1610
     13  C         25.4340  -22.8430  -11.8480 C.2     1  UNL1       -0.0400
     14  C         26.5130  -23.7150  -11.6480 C.2     1  UNL1        0.0090
     15  C         27.0800  -24.4090  -12.7160 C.2     1  UNL1        0.0010
     16  C         26.5820  -24.2380  -14.0050 C.2     1  UNL1        0.0160
     17  C         25.5180  -23.3570  -14.2420 C.2     1  UNL1        0.0480
     18  C         24.9560  -22.6590  -13.1570 C.2     1  UNL1        0.0250
     19  C         24.9550  -23.1750  -15.6300 C.3     1  UNL1        0.4170
     20  F         24.6510  -24.3480  -16.2550 F       1  UNL1       -0.1660
     21  F         25.8150  -22.5240  -16.4640 F       1  UNL1       -0.1660
     22  F         23.8050  -22.4420  -15.6350 F       1  UNL1       -0.1660
     23  S         17.4500  -23.1550   -8.9470 S.O2    1  UNL1        0.2630
     24  O         16.3610  -23.5800   -9.8030 O.2     1  UNL1       -0.2000
     25  O         18.0890  -24.1050   -8.0640 O.2     1  UNL1       -0.2000
     26  N         16.9430  -21.8670   -7.9850 N.pl3   1  UNL1       -0.2800
     27  H         17.3970  -20.9910   -8.2420 H       1  UNL1        0.1790
     28  C         16.6660  -22.1050   -6.6080 C.2     1  UNL1        0.0490
     29  C         15.3890  -22.5650   -6.2750 C.2     1  UNL1        0.0310
     30  C         15.0670  -22.8390   -4.9510 C.2     1  UNL1        0.0030
     31  C         16.0260  -22.6670   -3.9560 C.2     1  UNL1        0.0070
     32  C         17.3200  -22.2210   -4.2710 C.2     1  UNL1       -0.0540
     33  C         18.3180  -22.0660   -3.1530 C.3     1  UNL1        0.0490
     34  C         17.6460  -21.9110   -5.6150 C.2     1  UNL1       -0.0290
     35  C         19.0350  -21.4510   -5.9760 C.3     1  UNL1        0.0510
@<TRIPOS>BOND
     1    21    19    1
     2    20    19    1
     3    22    19    1
     4    19    17    1
     5    17    16    2
     6    17    18    1
     7    16    15    1
     8    18    13    2
     9    15    14    2
    10    13    14    1
    11    13    12    1
    12     3     4    1
    13     3     2    2
    14     4     5    2
    15    11    10    1
    16     1     2    1
    17     2     7    1
    18    10    12    1
    19    10     8   am
    20     5     8    1
    21     5     6    1
    22     8     9    2
    23     7     6    2
    24     7    23    1
    25    24    23    2
    26    23    25    2
    27    23    26    1
    28    27    26    1
    29    26    28    1
    30    28    29    2
    31    28    34    1
    32    29    30    1
    33    35    34    1
    34    34    32    2
    35    30    31    2
    36    32    31    1
    37    32    33    1
