@<TRIPOS>MOLECULE
78489_out_ligand_01.pdbqt
 29 33 0 0 0
SMALL
GASTEIGER

@<TRIPOS>ATOM
      1  C         24.5150  -22.1720  -12.4470 C.2     1  UNL1        0.1440
      2  N         24.3240  -21.5950  -13.6560 N.2     1  UNL1       -0.2230
      3  C         23.0850  -21.2100  -14.0000 C.2     1  UNL1        0.2360
      4  N         21.9740  -21.2970  -13.2680 N.2     1  UNL1       -0.2400
      5  C         22.1580  -21.8460  -12.0400 C.ar    1  UNL1        0.0920
      6  C         23.4030  -22.2890  -11.6030 C.ar    1  UNL1        0.0820
      7  S         23.3080  -22.9360  -10.0120 S.2     1  UNL1       -0.0630
      8  C         21.6410  -22.6230   -9.9070 C.ar    1  UNL1        0.1120
      9  N         20.9630  -22.9310   -8.7800 N.ar    1  UNL1       -0.2390
     10  C         19.6390  -22.6480   -8.7920 C.ar    1  UNL1        0.0750
     11  C         19.0140  -22.0750   -9.8880 C.ar    1  UNL1       -0.0210
     12  C         19.7540  -21.7610  -11.0350 C.ar    1  UNL1       -0.0340
     13  C         21.1290  -22.0430  -11.0600 C.ar    1  UNL1        0.0370
     14  C         18.8880  -21.0880  -12.0630 C.3     1  UNL1        0.0400
     15  C         17.4890  -21.4640  -11.5680 C.3     1  UNL1        0.0090
     16  C         17.5940  -21.6200  -10.0450 C.3     1  UNL1        0.0420
     17  N         25.7680  -22.6120  -12.0750 N.pl3   1  UNL1       -0.3730
     18  H         25.8140  -23.5460  -11.6840 H       1  UNL1        0.1610
     19  C         26.8690  -21.7080  -11.8010 C.3     1  UNL1        0.1230
     20  C         26.4200  -20.4590  -11.0400 C.3     1  UNL1        0.0450
     21  C         26.8140  -19.1530  -11.7230 C.3     1  UNL1        0.1650
     22  O         26.7570  -18.0510  -10.8340 O.3     1  UNL1       -0.4010
     23  H         25.9190  -17.5820  -11.0250 H       1  UNL1        0.2090
     24  C         18.9340  -22.9740   -7.5450 C.2     1  UNL1       -0.0070
     25  C         18.2950  -24.2170   -7.3930 C.2     1  UNL1        0.0140
     26  C         17.6210  -24.5420   -6.2130 C.2     1  UNL1        0.0010
     27  C         17.5680  -23.6250   -5.1670 C.2     1  UNL1        0.0000
     28  C         18.1810  -22.3810   -5.3020 C.2     1  UNL1        0.0010
     29  C         18.8550  -22.0580   -6.4830 C.2     1  UNL1        0.0140
@<TRIPOS>BOND
     1     3     2    1
     2     3     4    2
     3     2     1    2
     4     4     5    1
     5     1    17    1
     6     1     6    1
     7    17    19    1
     8    17    18    1
     9    14    15    1
    10    14    12    1
    11     5     6   ar
    12     5    13   ar
    13    19    20    1
    14    21    20    1
    15    21    22    1
    16     6     7   ar
    17    15    16    1
    18    13    12   ar
    19    13     8   ar
    20    12    11   ar
    21    23    22    1
    22    16    11    1
    23     7     8   ar
    24     8     9   ar
    25    11    10   ar
    26    10     9   ar
    27    10    24    1
    28    24    25    2
    29    24    29    1
    30    25    26    1
    31    29    28    2
    32    26    27    2
    33    28    27    1
