@<TRIPOS>MOLECULE
78495_out_ligand_01.pdbqt
 37 42 0 0 0
SMALL
GASTEIGER

@<TRIPOS>ATOM
      1  C         20.9240  -21.9880  -11.7580 C.2     1  UNL1        0.0760
      2  C         21.5440  -21.3980  -12.8690 C.2     1  UNL1        0.0380
      3  C         22.9170  -21.5500  -13.0920 C.2     1  UNL1        0.0120
      4  C         23.7050  -22.2790  -12.1970 C.2     1  UNL1       -0.0190
      5  C         23.0860  -22.8020  -11.0500 C.2     1  UNL1        0.0210
      6  C         21.6990  -22.7090  -10.8340 C.2     1  UNL1        0.0040
      7  C         25.1940  -22.4800  -12.4760 C.3     1  UNL1        0.3030
      8  N         25.5130  -23.8960  -12.7750 N.3     1  UNL1        0.0980
      9  C         25.3240  -24.2540  -14.1970 C.3     1  UNL1        0.2750
     10  H         24.9190  -24.4860  -12.1960 H       1  UNL1        0.3170
     11  C         26.2090  -23.4340  -15.1700 C.3     1  UNL1        0.0710
     12  C         26.1580  -21.9890  -14.8100 C.ar    1  UNL1       -0.0190
     13  C         25.7190  -21.5900  -13.5620 C.ar    1  UNL1        0.0550
     14  C         26.4710  -20.8190  -15.5540 C.ar    1  UNL1       -0.0010
     15  N         25.7770  -20.2210  -13.5070 N.ar    1  UNL1       -0.3560
     16  C         26.2140  -19.7250  -14.7170 C.ar    1  UNL1        0.0430
     17  H         25.4960  -19.6440  -12.7210 H       1  UNL1        0.1660
     18  C         26.3910  -18.3980  -15.1310 C.2     1  UNL1        0.0300
     19  C         26.8510  -18.1820  -16.4340 C.2     1  UNL1        0.0020
     20  C         27.1210  -19.2540  -17.2870 C.2     1  UNL1        0.0010
     21  C         26.9370  -20.5750  -16.8620 C.2     1  UNL1        0.0140
     22  C         21.0970  -23.4030   -9.6210 C.3     1  UNL1        0.3140
     23  N         20.0670  -22.6710   -8.8720 N.3     1  UNL1        0.0950
     24  C         20.4550  -22.2370   -7.5140 C.3     1  UNL1        0.2920
     25  C         19.2540  -21.9360   -6.5810 C.3     1  UNL1        0.1530
     26  N         18.4170  -23.1460   -6.4110 N.pl3   1  UNL1       -0.3750
     27  C         18.2820  -24.0040   -7.6090 C.3     1  UNL1        0.1530
     28  C         18.7340  -23.2800   -8.9030 C.3     1  UNL1        0.2920
     29  C         17.4490  -23.2170   -5.4070 C.2     1  UNL1        0.0690
     30  C         17.7250  -23.8880   -4.1960 C.2     1  UNL1        0.0320
     31  C         16.7910  -23.9760   -3.1530 C.2     1  UNL1        0.0020
     32  C         15.5460  -23.3800   -3.2810 C.2     1  UNL1        0.0030
     33  C         15.2380  -22.6950   -4.4520 C.2     1  UNL1        0.0440
     34  C         16.1770  -22.6090   -5.4880 C.2     1  UNL1        0.1420
     35  F         15.8000  -21.9310   -6.5860 F       1  UNL1       -0.2040
     36  O         19.5880  -21.8660  -11.4770 O.2     1  UNL1       -0.3550
     37  C         18.9900  -20.6030  -11.7460 C.3     1  UNL1        0.2100
@<TRIPOS>BOND
     1    20    21    1
     2    20    19    2
     3    21    14    2
     4    19    18    1
     5    14    12   ar
     6    14    16   ar
     7    11    12    1
     8    11     9    1
     9    18    16    2
    10    12    13   ar
    11    16    15   ar
    12     9     8    1
    13    13    15   ar
    14    13     7    1
    15    15    17    1
    16     3     2    1
    17     3     4    2
    18     2     1    2
    19     8     7    1
    20     8    10    1
    21     7     4    1
    22     4     5    1
    23     1    36    1
    24     1     6    1
    25    37    36    1
    26     5     6    2
    27     6    22    1
    28    22    23    1
    29    28    23    1
    30    28    27    1
    31    23    24    1
    32    27    26    1
    33    24    25    1
    34    35    34    1
    35    25    26    1
    36    26    29    1
    37    34    29    2
    38    34    33    1
    39    29    30    1
    40    33    32    2
    41    30    31    2
    42    32    31    1
