@<TRIPOS>MOLECULE
784_out_ligand_01.pdbqt
 36 39 0 0 0
SMALL
GASTEIGER

@<TRIPOS>ATOM
      1  C         18.4810  -23.0330   -9.1550 C.2     1  UNL1        0.0800
      2  C         18.9690  -24.0360   -8.3500 C.2     1  UNL1        0.0260
      3  C         20.2990  -24.4030   -8.3320 C.2     1  UNL1        0.0090
      4  C         21.1710  -23.7050   -9.1830 C.2     1  UNL1       -0.0460
      5  C         22.6140  -24.0760   -9.1180 C.3     1  UNL1        0.0490
      6  C         20.7430  -22.7040  -10.0030 C.2     1  UNL1        0.0390
      7  C         19.3750  -22.3870   -9.9670 C.2     1  UNL1        0.0420
      8  C         21.5980  -21.9880  -10.9240 C.2     1  UNL1        0.2560
      9  O         21.3800  -20.7610  -11.0560 O.2     1  UNL1       -0.2670
     10  N         22.6330  -22.5830  -11.6600 N.am    1  UNL1       -0.3230
     11  H         22.7830  -23.6250  -11.5990 H       1  UNL1        0.1690
     12  C         23.5130  -21.8640  -12.5540 C.2     1  UNL1        0.0350
     13  C         24.8090  -21.5430  -12.2380 C.2     1  UNL1        0.0320
     14  C         25.6140  -20.8280  -13.1430 C.2     1  UNL1        0.0310
     15  C         25.1600  -20.4210  -14.3650 C.2     1  UNL1        0.0300
     16  C         23.8400  -20.7510  -14.6790 C.2     1  UNL1        0.0310
     17  C         23.0450  -21.4610  -13.7770 C.2     1  UNL1        0.0320
     18  N         25.9440  -19.6930  -15.3000 N.pl3   1  UNL1       -0.3810
     19  C         26.8040  -18.5960  -14.8900 C.3     1  UNL1        0.1230
     20  C         26.4940  -17.3570  -15.7240 C.3     1  UNL1        0.0200
     21  C         26.8280  -17.6840  -17.1460 C.3     1  UNL1        0.0030
     22  C         25.9790  -18.8210  -17.6180 C.3     1  UNL1        0.0200
     23  C         25.9490  -20.0120  -16.7050 C.3     1  UNL1        0.1230
     24  S         16.7720  -22.5580   -9.1410 S.O2    1  UNL1        0.2630
     25  O         15.9830  -23.8680   -9.2040 O.2     1  UNL1       -0.2000
     26  O         16.4290  -21.6760  -10.2590 O.2     1  UNL1       -0.2000
     27  N         16.4460  -21.8510   -7.6320 N.pl3   1  UNL1       -0.2780
     28  H         16.3310  -20.7720   -7.6460 H       1  UNL1        0.1790
     29  C         16.2970  -22.4330   -6.3750 C.2     1  UNL1        0.0750
     30  C         15.0390  -22.9710   -6.0150 C.2     1  UNL1        0.0330
     31  C         14.8620  -23.5720   -4.7920 C.2     1  UNL1        0.0020
     32  C         15.8840  -23.6820   -3.8680 C.2     1  UNL1        0.0030
     33  C         17.1070  -23.1610   -4.2150 C.2     1  UNL1        0.0390
     34  C         17.3000  -22.5420   -5.4670 C.2     1  UNL1        0.0950
     35  O         18.5560  -22.0430   -5.7390 O.2     1  UNL1       -0.3540
     36  C         18.9710  -20.8120   -5.1990 C.3     1  UNL1        0.2100
@<TRIPOS>BOND
     1    22    21    1
     2    22    23    1
     3    21    20    1
     4    23    18    1
     5    20    19    1
     6    18    19    1
     7    18    15    1
     8    16    15    2
     9    16    17    1
    10    15    14    1
    11    17    12    2
    12    14    13    2
    13    12    13    1
    14    12    10    1
    15    10    11    1
    16    10     8   am
    17     9     8    2
    18     8     6    1
    19    26    24    2
    20     6     7    1
    21     6     4    2
    22     7     1    2
    23    25    24    2
    24     4     5    1
    25     4     3    1
    26     1    24    1
    27     1     2    1
    28    24    27    1
    29     2     3    2
    30    28    27    1
    31    27    29    1
    32    29    30    2
    33    29    34    1
    34    30    31    1
    35    35    34    1
    36    35    36    1
    37    34    33    2
    38    31    32    2
    39    33    32    1
