@<TRIPOS>MOLECULE
78500_out_ligand_01.pdbqt
 31 34 0 0 0
SMALL
GASTEIGER

@<TRIPOS>ATOM
      1  S         23.0940  -22.7710   -9.6980 S.O2    1  UNL1        0.2460
      2  O         23.3760  -21.3510   -9.7090 O.2     1  UNL1       -0.2060
      3  O         23.7780  -23.6790   -8.8050 O.2     1  UNL1       -0.2060
      4  N         23.2490  -23.3040  -11.3130 N.pl3   1  UNL1       -0.1810
      5  H         22.4010  -23.0430  -11.8190 H       1  UNL1        0.1460
      6  C         24.4330  -22.8390  -11.9760 C.2     1  UNL1        0.0240
      7  C         25.6920  -23.2100  -11.4990 C.2     1  UNL1        0.0240
      8  C         26.8470  -22.7270  -12.1150 C.2     1  UNL1        0.0030
      9  C         26.7460  -21.8710  -13.2110 C.2     1  UNL1        0.0250
     10  C         25.4810  -21.5070  -13.6830 C.2     1  UNL1        0.0760
     11  C         24.3200  -21.9750  -13.0630 C.2     1  UNL1        0.0490
     12  S         25.3570  -20.3970  -15.0510 S.O2    1  UNL1        0.2390
     13  O         25.9290  -21.0210  -16.2200 O.2     1  UNL1       -0.2060
     14  O         25.7190  -19.0660  -14.6210 O.2     1  UNL1       -0.2060
     15  N         23.6980  -20.3500  -15.3100 N.3     1  UNL1       -0.2250
     16  H         23.4900  -20.6880  -16.2510 H       1  UNL1        0.1360
     17  H         23.2210  -20.8720  -14.5740 H       1  UNL1        0.1360
     18  C         21.3460  -22.9730   -9.4350 C.2     1  UNL1        0.0860
     19  C         20.9120  -23.8630   -8.4140 C.2     1  UNL1        0.0280
     20  C         19.5470  -24.0590   -8.1550 C.2     1  UNL1        0.0320
     21  C         18.6530  -23.3580   -8.9290 C.2     1  UNL1        0.0470
     22  C         19.0830  -22.5090   -9.9140 C.2     1  UNL1        0.0180
     23  N         17.2610  -23.3490   -8.9020 N.am    1  UNL1       -0.3220
     24  C         17.9990  -21.9430  -10.5360 C.2     1  UNL1        0.0450
     25  C         20.4130  -22.2560  -10.2390 C.2     1  UNL1        0.0000
     26  C         18.1590  -21.0460  -11.5700 C.2     1  UNL1        0.0180
     27  C         16.7900  -22.4870   -9.8810 C.2     1  UNL1        0.2570
     28  C         19.4720  -20.7430  -11.9580 C.2     1  UNL1        0.0020
     29  C         20.5840  -21.3330  -11.3090 C.2     1  UNL1        0.0140
     30  O         15.6380  -22.2220  -10.1570 O.2     1  UNL1       -0.2670
     31  H         16.6640  -23.8810   -8.2880 H       1  UNL1        0.1690
@<TRIPOS>BOND
     1    16    15    1
     2    13    12    2
     3    15    12    1
     4    15    17    1
     5    12    14    2
     6    12    10    1
     7    10     9    2
     8    10    11    1
     9     9     8    1
    10    11     6    2
    11     8     7    2
    12     6     7    1
    13     6     4    1
    14    28    26    1
    15    28    29    2
    16     5     4    1
    17    26    24    2
    18     4     1    1
    19    29    25    1
    20    24    22    1
    21    24    27    1
    22    25    22    1
    23    25    18    2
    24    30    27    2
    25    22    21    2
    26    27    23   am
    27     2     1    2
    28     1    18    1
    29     1     3    2
    30    18    19    1
    31    21    23    1
    32    21    20    1
    33    23    31    1
    34    19    20    2
