@<TRIPOS>MOLECULE
78520_out_ligand_01.pdbqt
 35 37 0 0 0
SMALL
GASTEIGER

@<TRIPOS>ATOM
      1  N         23.1910  -22.3100  -10.4130 N.3     1  UNL1       -0.1940
      2  S         24.8110  -22.0900  -10.9220 S.O2    1  UNL1        0.2440
      3  O         25.5830  -23.1940  -10.3900 O.2     1  UNL1       -0.2060
      4  O         25.1700  -20.7190  -10.6290 O.2     1  UNL1       -0.2060
      5  C         24.7270  -22.3030  -12.6800 C.2     1  UNL1        0.0740
      6  C         25.2040  -23.4890  -13.2440 C.2     1  UNL1        0.0250
      7  C         25.1260  -23.6740  -14.6230 C.2     1  UNL1        0.0080
      8  C         24.5800  -22.6770  -15.4440 C.2     1  UNL1       -0.0620
      9  C         24.5010  -22.8920  -16.9250 C.3     1  UNL1        0.0480
     10  C         24.1390  -21.4780  -14.8680 C.2     1  UNL1        0.0080
     11  C         24.2150  -21.2850  -13.4870 C.2     1  UNL1        0.0250
     12  C         23.0290  -23.1200   -9.1580 C.3     1  UNL1        0.2110
     13  C         22.0160  -22.4920   -8.2070 C.2     1  UNL1        0.2360
     14  O         22.2550  -21.4240   -7.6520 O.2     1  UNL1       -0.2720
     15  N         20.8900  -23.2770   -8.0390 N.am    1  UNL1       -0.3260
     16  H         20.9060  -24.1480   -8.5610 H       1  UNL1        0.1690
     17  C         19.7220  -22.9830   -7.3190 C.2     1  UNL1        0.0340
     18  C         18.6800  -23.9150   -7.3860 C.2     1  UNL1        0.0300
     19  C         17.4720  -23.6810   -6.7230 C.2     1  UNL1        0.0190
     20  C         17.2870  -22.5050   -5.9880 C.2     1  UNL1        0.0320
     21  C         18.3340  -21.5820   -5.9020 C.2     1  UNL1        0.0190
     22  C         19.5430  -21.8220   -6.5670 C.2     1  UNL1        0.0300
     23  C         15.9790  -22.2960   -5.3120 C.2     1  UNL1        0.2490
     24  N         15.9870  -22.1440   -3.9540 N.am    1  UNL1       -0.3660
     25  H         16.8280  -21.9180   -3.4410 H       1  UNL1        0.1590
     26  H         15.1050  -21.8780   -3.5350 H       1  UNL1        0.1590
     27  O         14.9320  -22.2220   -5.9450 O.2     1  UNL1       -0.2680
     28  C         22.3120  -22.7980  -11.5110 C.3     1  UNL1        0.1460
     29  C         20.9500  -22.1460  -11.4320 C.2     1  UNL1       -0.0440
     30  C         19.8480  -22.8920  -10.9740 C.2     1  UNL1        0.0110
     31  C         18.5810  -22.3120  -10.9120 C.2     1  UNL1        0.0430
     32  C         18.4120  -20.9910  -11.3080 C.2     1  UNL1        0.1160
     33  F         17.1970  -20.4330  -11.2410 F       1  UNL1       -0.2060
     34  C         19.4880  -20.2380  -11.7650 C.2     1  UNL1        0.0430
     35  C         20.7580  -20.8140  -11.8270 C.2     1  UNL1        0.0110
@<TRIPOS>BOND
     1     9     8    1
     2     8    10    2
     3     8     7    1
     4    10    11    1
     5     7     6    2
     6    11     5    2
     7     6     5    1
     8     5     2    1
     9    35    34    1
    10    35    29    2
    11    34    32    2
    12    28    29    1
    13    28     1    1
    14    29    30    1
    15    32    33    1
    16    32    31    1
    17    30    31    2
    18     2     4    2
    19     2     1    1
    20     2     3    2
    21     1    12    1
    22    12    13    1
    23    16    15    1
    24    13    15   am
    25    13    14    2
    26    15    17    1
    27    18    17    2
    28    18    19    1
    29    17    22    1
    30    19    20    2
    31    22    21    2
    32    20    21    1
    33    20    23    1
    34    27    23    2
    35    23    24   am
    36    24    26    1
    37    24    25    1
