@<TRIPOS>MOLECULE
7854_out_ligand_01.pdbqt
 36 39 0 0 0
SMALL
GASTEIGER

@<TRIPOS>ATOM
      1  C         21.6840  -22.1770   -7.9540 C.2     1  UNL1        0.0340
      2  C         21.9220  -21.1260   -7.0660 C.2     1  UNL1        0.0170
      3  C         20.9330  -20.7490   -6.1520 C.2     1  UNL1        0.0090
      4  C         19.6830  -21.3960   -6.1180 C.2     1  UNL1       -0.0390
      5  C         18.6820  -20.9420   -5.0940 C.3     1  UNL1        0.0500
      6  C         19.4530  -22.4470   -7.0270 C.2     1  UNL1        0.0860
      7  C         20.4520  -22.8350   -7.9350 C.2     1  UNL1        0.0420
      8  C         22.7040  -22.6060   -8.9500 C.2     1  UNL1        0.2570
      9  N         23.4210  -21.5760   -9.5110 N.am    1  UNL1       -0.3000
     10  H         23.3230  -20.6290   -9.1800 H       1  UNL1        0.1710
     11  O         22.8420  -23.8040   -9.1580 O.2     1  UNL1       -0.2670
     12  C         24.3810  -21.7990  -10.4600 C.ar    1  UNL1        0.1970
     13  N         25.6600  -22.0450  -10.3370 N.ar    1  UNL1       -0.1230
     14  N         26.2640  -22.2210  -11.5660 N.ar    1  UNL1       -0.1400
     15  C         25.4200  -22.1070  -12.5770 C.ar    1  UNL1        0.1330
     16  S         23.8070  -21.7650  -12.0640 S.2     1  UNL1       -0.0280
     17  C         25.7970  -22.2350  -13.9960 C.2     1  UNL1        0.0020
     18  C         26.7220  -21.3250  -14.5350 C.2     1  UNL1        0.0150
     19  C         27.1200  -21.3970  -15.8740 C.2     1  UNL1        0.0070
     20  C         26.6110  -22.3960  -16.7090 C.2     1  UNL1       -0.0620
     21  C         27.0120  -22.4580  -18.1530 C.3     1  UNL1        0.0480
     22  C         25.6820  -23.3020  -16.1900 C.2     1  UNL1        0.0070
     23  C         25.2840  -23.2250  -14.8490 C.2     1  UNL1        0.0150
     24  S         17.9200  -23.3740   -7.0650 S.O2    1  UNL1        0.2630
     25  O         16.8340  -22.4720   -6.7450 O.2     1  UNL1       -0.2000
     26  O         18.1080  -24.5820   -6.2890 O.2     1  UNL1       -0.2000
     27  N         17.7420  -23.7720   -8.6920 N.pl3   1  UNL1       -0.2800
     28  H         17.1700  -24.6000   -8.8360 H       1  UNL1        0.1790
     29  C         17.7610  -22.7630   -9.7020 C.2     1  UNL1        0.0490
     30  C         18.9740  -22.3630  -10.2740 C.2     1  UNL1        0.0370
     31  C         19.0200  -21.3350  -11.2240 C.2     1  UNL1       -0.0600
     32  C         20.3330  -20.9130  -11.8150 C.3     1  UNL1        0.0480
     33  C         17.8270  -20.7440  -11.6400 C.2     1  UNL1        0.0070
     34  C         16.6070  -21.1660  -11.1060 C.2     1  UNL1        0.0090
     35  C         16.5580  -22.1780  -10.1330 C.2     1  UNL1       -0.0350
     36  C         15.2230  -22.5840   -9.5790 C.3     1  UNL1        0.0500
@<TRIPOS>BOND
     1    21    20    1
     2    20    22    2
     3    20    19    1
     4    22    23    1
     5    19    18    2
     6    23    17    2
     7    18    17    1
     8    17    15    1
     9    15    16   ar
    10    15    14   ar
    11    16    12   ar
    12    32    31    1
    13    33    31    2
    14    33    34    1
    15    14    13   ar
    16    31    30    1
    17    34    35    2
    18    12    13   ar
    19    12     9    1
    20    30    29    2
    21    35    29    1
    22    35    36    1
    23    29    27    1
    24     9    10    1
    25     9     8   am
    26    11     8    2
    27     8     1    1
    28    28    27    1
    29    27    24    1
    30     1     7    2
    31     1     2    1
    32     7     6    1
    33     2     3    2
    34    24     6    1
    35    24    25    2
    36    24    26    2
    37     6     4    2
    38     3     4    1
    39     4     5    1
