@<TRIPOS>MOLECULE
78542_out_ligand_01.pdbqt
 27 29 0 0 0
SMALL
GASTEIGER

@<TRIPOS>ATOM
      1  C         20.0890  -23.2970   -9.3120 C.2     1  UNL1        0.2800
      2  O         20.0810  -24.4590   -8.9210 O.2     1  UNL1       -0.2650
      3  N         19.2560  -22.2990   -8.8260 N.am    1  UNL1       -0.3210
      4  H         19.2490  -21.4340   -9.3490 H       1  UNL1        0.1690
      5  C         18.3390  -22.3810   -7.7590 C.2     1  UNL1        0.0350
      6  C         18.6830  -22.2190   -6.4150 C.2     1  UNL1        0.0310
      7  C         17.7090  -22.3060   -5.4140 C.2     1  UNL1        0.0270
      8  C         16.3810  -22.5630   -5.7590 C.2     1  UNL1        0.0740
      9  C         16.0180  -22.7120   -7.0980 C.2     1  UNL1        0.0270
     10  C         16.9960  -22.6210   -8.0920 C.2     1  UNL1        0.0310
     11  S         15.1490  -22.6430   -4.4940 S.O2    1  UNL1        0.2390
     12  O         14.8410  -24.0280   -4.2190 O.2     1  UNL1       -0.2060
     13  O         14.1260  -21.6620   -4.7660 O.2     1  UNL1       -0.2060
     14  N         15.9890  -22.0850   -3.1540 N.3     1  UNL1       -0.2250
     15  H         16.1730  -21.0860   -3.2500 H       1  UNL1        0.1360
     16  H         16.8300  -22.6470   -3.0120 H       1  UNL1        0.1360
     17  C         20.9670  -22.8490  -10.3860 C.ar    1  UNL1        0.1500
     18  C         20.7900  -22.0160  -11.4910 C.ar    1  UNL1       -0.0090
     19  C         19.5720  -21.2570  -11.8800 C.3     1  UNL1        0.0520
     20  C         22.0470  -21.9990  -12.1780 C.ar    1  UNL1        0.0080
     21  C         22.5490  -21.3840  -13.3430 C.2     1  UNL1        0.0380
     22  C         22.9050  -22.7950  -11.4340 C.ar    1  UNL1        0.0870
     23  C         23.8860  -21.6100  -13.6950 C.2     1  UNL1        0.0350
     24  C         24.7190  -22.4200  -12.9200 C.2     1  UNL1        0.0260
     25 CL         24.5150  -20.8680  -15.1180 Cl      1  UNL1       -0.0840
     26  C         24.2380  -23.0350  -11.7590 C.2     1  UNL1        0.0400
     27  O         22.2600  -23.2980  -10.3540 O.2     1  UNL1       -0.3040
@<TRIPOS>BOND
     1    25    23    1
     2    23    21    1
     3    23    24    2
     4    21    20    2
     5    24    26    1
     6    20    18   ar
     7    20    22   ar
     8    19    18    1
     9    26    22    2
    10    18    17   ar
    11    22    27   ar
    12    17    27   ar
    13    17     1    1
    14     4     3    1
    15     1     2    2
    16     1     3   am
    17     3     5    1
    18    10     5    2
    19    10     9    1
    20     5     6    1
    21     9     8    2
    22     6     7    2
    23     8     7    1
    24     8    11    1
    25    13    11    2
    26    11    12    2
    27    11    14    1
    28    15    14    1
    29    14    16    1
