@<TRIPOS>MOLECULE
78553_out_ligand_01.pdbqt
 32 35 0 0 0
SMALL
GASTEIGER

@<TRIPOS>ATOM
      1  C         22.6430  -22.6290  -11.4070 C.2     1  UNL1        0.0320
      2  C         22.8560  -23.2800  -10.1860 C.2     1  UNL1        0.0190
      3  C         21.7970  -23.4270   -9.2810 C.2     1  UNL1        0.0300
      4  C         20.5230  -22.9250   -9.5790 C.2     1  UNL1        0.0350
      5  C         20.3230  -22.2640  -10.7930 C.2     1  UNL1        0.0300
      6  C         21.3790  -22.1090  -11.7000 C.2     1  UNL1        0.0190
      7  N         19.5150  -23.1200   -8.6150 N.am    1  UNL1       -0.3230
      8  C         18.1840  -22.7550   -8.7040 C.2     1  UNL1        0.2570
      9  O         17.6280  -22.1570   -9.6160 O.2     1  UNL1       -0.2670
     10  H         19.8010  -23.5630   -7.7490 H       1  UNL1        0.1690
     11  C         17.3900  -23.1020   -7.4990 C.2     1  UNL1        0.0430
     12  C         16.3630  -24.0370   -7.6860 C.2     1  UNL1        0.0180
     13  C         15.5310  -24.3700   -6.6240 C.2     1  UNL1        0.0020
     14  C         15.7270  -23.7740   -5.3790 C.2     1  UNL1        0.0120
     15  C         16.7670  -22.8520   -5.1680 C.2     1  UNL1       -0.0250
     16  C         16.9550  -22.2790   -3.8990 C.2     1  UNL1        0.0120
     17  C         17.6340  -22.5080   -6.2330 C.2     1  UNL1       -0.0100
     18  C         17.9970  -21.3820   -3.6640 C.2     1  UNL1        0.0010
     19  C         18.8720  -21.0530   -4.6910 C.2     1  UNL1        0.0010
     20  C         18.6960  -21.6120   -5.9590 C.2     1  UNL1        0.0130
     21  C         23.7400  -22.4450  -12.3970 C.2     1  UNL1        0.2560
     22  N         23.5250  -21.4290  -13.3110 N.am    1  UNL1       -0.3230
     23  H         22.7180  -20.8400  -13.1570 H       1  UNL1        0.1690
     24  O         24.7280  -23.1610  -12.3070 O.2     1  UNL1       -0.2670
     25  C         24.3600  -21.0540  -14.3870 C.2     1  UNL1        0.0370
     26  C         25.2480  -19.9780  -14.3420 C.2     1  UNL1        0.0290
     27  C         26.0470  -19.6760  -15.4450 C.2     1  UNL1        0.0050
     28  C         25.9640  -20.4480  -16.6010 C.2     1  UNL1        0.0370
     29  C         25.0840  -21.5280  -16.6650 C.2     1  UNL1        0.0700
     30  C         24.2860  -21.8290  -15.5580 C.2     1  UNL1        0.0660
     31  O         25.0990  -22.2040  -17.8540 O.2     1  UNL1       -0.3560
     32  C         24.1780  -23.2770  -18.0030 C.3     1  UNL1        0.2100
@<TRIPOS>BOND
     1    32    31    1
     2    31    29    1
     3    29    28    2
     4    29    30    1
     5    28    27    1
     6    30    25    2
     7    27    26    2
     8    25    26    1
     9    25    22    1
    10    22    23    1
    11    22    21   am
    12    21    24    2
    13    21     1    1
    14     6     1    2
    15     6     5    1
    16     1     2    1
    17     5     4    2
    18     2     3    2
    19     9     8    2
    20     4     3    1
    21     4     7    1
    22     8     7   am
    23     8    11    1
    24     7    10    1
    25    12    11    2
    26    12    13    1
    27    11    17    1
    28    13    14    2
    29    17    20    1
    30    17    15    2
    31    20    19    2
    32    14    15    1
    33    15    16    1
    34    19    18    1
    35    16    18    2
