@<TRIPOS>MOLECULE
78551_out_ligand_01.pdbqt
 28 32 0 0 0
SMALL
GASTEIGER

@<TRIPOS>ATOM
      1  C         24.4970  -22.2140  -12.2660 C.2     1  UNL1        0.1440
      2  N         24.3060  -21.7370  -13.5130 N.2     1  UNL1       -0.2230
      3  C         23.0710  -21.3840  -13.8940 C.2     1  UNL1        0.2360
      4  N         21.9490  -21.4470  -13.1730 N.2     1  UNL1       -0.2400
      5  C         22.1260  -21.9230  -11.9130 C.ar    1  UNL1        0.0920
      6  C         23.3740  -22.3110  -11.4330 C.ar    1  UNL1        0.0820
      7  S         23.2650  -22.8750   -9.8120 S.2     1  UNL1       -0.0630
      8  C         21.5880  -22.6060   -9.7540 C.ar    1  UNL1        0.1120
      9  N         20.8920  -22.9080   -8.6360 N.ar    1  UNL1       -0.2390
     10  C         19.5630  -22.6560   -8.6840 C.ar    1  UNL1        0.0750
     11  C         18.9480  -22.1280   -9.8080 C.ar    1  UNL1       -0.0210
     12  C         19.7040  -21.8410  -10.9520 C.ar    1  UNL1       -0.0340
     13  C         21.0860  -22.0840  -10.9390 C.ar    1  UNL1        0.0370
     14  C         18.8230  -21.3460  -12.0660 C.3     1  UNL1        0.0400
     15  C         17.5610  -20.9480  -11.2940 C.3     1  UNL1        0.0090
     16  C         17.4940  -21.8680  -10.0670 C.3     1  UNL1        0.0420
     17  N         25.7650  -22.5780  -11.8340 N.pl3   1  UNL1       -0.3740
     18  H         26.0370  -23.5190  -12.0940 H       1  UNL1        0.1610
     19  C         26.8260  -21.5850  -11.8070 C.3     1  UNL1        0.1210
     20  C         26.4080  -20.3210  -11.0490 C.3     1  UNL1        0.0190
     21  C         26.9670  -19.0310  -11.6510 C.3     1  UNL1       -0.0030
     22  C         26.8770  -19.0450  -13.1700 C.3     1  UNL1        0.0050
     23  C         18.8300  -23.0110   -7.4610 C.2     1  UNL1       -0.0070
     24  C         18.7620  -22.1370   -6.3640 C.2     1  UNL1        0.0140
     25  C         18.0600  -22.4870   -5.2060 C.2     1  UNL1        0.0010
     26  C         17.4220  -23.7210   -5.1250 C.2     1  UNL1        0.0000
     27  C         17.4910  -24.6100   -6.1950 C.2     1  UNL1        0.0010
     28  C         18.1920  -24.2580   -7.3510 C.2     1  UNL1        0.0140
@<TRIPOS>BOND
     1     3     2    1
     2     3     4    2
     3     2     1    2
     4     4     5    1
     5    22    21    1
     6     1    17    1
     7     1     6    1
     8    18    17    1
     9    14    15    1
    10    14    12    1
    11     5     6   ar
    12     5    13   ar
    13    17    19    1
    14    19    20    1
    15    21    20    1
    16     6     7   ar
    17    15    16    1
    18    12    13   ar
    19    12    11   ar
    20    13     8   ar
    21    16    11    1
    22     7     8   ar
    23    11    10   ar
    24     8     9   ar
    25    10     9   ar
    26    10    23    1
    27    23    28    2
    28    23    24    1
    29    28    27    1
    30    24    25    2
    31    27    26    2
    32    25    26    1
