@<TRIPOS>MOLECULE
78564_out_ligand_01.pdbqt
 35 39 0 0 0
SMALL
GASTEIGER

@<TRIPOS>ATOM
      1  C         23.4700  -22.5460  -11.5580 C.2     1  UNL1        0.2110
      2  N         23.0140  -21.8010  -12.6060 N.2     1  UNL1       -0.1220
      3  N         21.7370  -21.4430  -12.6860 N.pl3   1  UNL1       -0.1430
      4  C         20.9340  -21.8460  -11.6710 C.ar    1  UNL1        0.1370
      5  C         19.5480  -21.6690  -11.4400 C.ar    1  UNL1        0.0250
      6  C         18.5140  -21.0230  -12.1480 C.2     1  UNL1        0.0160
      7  C         17.2140  -21.0280  -11.6260 C.2     1  UNL1        0.0010
      8  C         16.9390  -21.6630  -10.4170 C.2     1  UNL1        0.0020
      9  C         17.9480  -22.3110   -9.6970 C.2     1  UNL1        0.0300
     10  C         19.2500  -22.3090  -10.2270 C.ar    1  UNL1        0.0490
     11  N         20.4340  -22.8550   -9.7540 N.ar    1  UNL1       -0.3290
     12  C         21.4580  -22.5840  -10.6250 C.ar    1  UNL1        0.1650
     13  N         22.7420  -22.9680  -10.5080 N.pl3   1  UNL1       -0.2010
     14  S         25.1490  -23.1250  -11.6530 S.3     1  UNL1       -0.0790
     15  C         25.9600  -21.8250  -10.6660 C.3     1  UNL1        0.1850
     16  C         26.1710  -20.5640  -11.4940 C.2     1  UNL1        0.2330
     17  N         26.1280  -20.7970  -12.8550 N.am    1  UNL1       -0.3040
     18  H         26.0700  -21.7400  -13.2220 H       1  UNL1        0.1710
     19  O         26.3720  -19.4830  -10.9490 O.2     1  UNL1       -0.2720
     20  C         26.3890  -19.8140  -13.7690 C.ar    1  UNL1        0.1960
     21  N         26.9640  -18.6470  -13.6280 N.ar    1  UNL1       -0.1230
     22  N         27.0500  -17.9740  -14.8370 N.ar    1  UNL1       -0.1440
     23  C         26.5250  -18.6570  -15.8320 C.ar    1  UNL1        0.1040
     24  S         25.8840  -20.1860  -15.3570 S.2     1  UNL1       -0.0330
     25  C         26.4760  -18.1620  -17.2540 C.3     1  UNL1        0.0390
     26  C         25.6000  -19.0390  -18.1450 C.3     1  UNL1        0.0160
     27  C         26.0520  -16.6930  -17.3310 C.3     1  UNL1        0.0160
     28  C         20.5970  -23.6380   -8.5390 C.3     1  UNL1        0.1350
     29  C         19.2690  -24.0060   -7.8620 C.3     1  UNL1        0.0580
     30  C         18.9420  -23.1120   -6.6870 C.2     1  UNL1       -0.0570
     31  C         19.5940  -21.8820   -6.5280 C.2     1  UNL1        0.0070
     32  C         19.2570  -21.0330   -5.4730 C.2     1  UNL1        0.0010
     33  C         18.2700  -21.4060   -4.5650 C.2     1  UNL1        0.0000
     34  C         17.6190  -22.6290   -4.7090 C.2     1  UNL1        0.0010
     35  C         17.9520  -23.4790   -5.7650 C.2     1  UNL1        0.0070
@<TRIPOS>BOND
     1    26    25    1
     2    27    25    1
     3    25    23    1
     4    23    24   ar
     5    23    22   ar
     6    24    20   ar
     7    22    21   ar
     8    20    21   ar
     9    20    17    1
    10    18    17    1
    11    17    16   am
    12     3     2    1
    13     3     4    1
    14     2     1    2
    15     6     7    1
    16     6     5    2
    17     4     5   ar
    18     4    12   ar
    19    14     1    1
    20    14    15    1
    21     7     8    2
    22     1    13    1
    23    16    19    2
    24    16    15    1
    25     5    10   ar
    26    12    13    1
    27    12    11   ar
    28     8     9    1
    29    10    11   ar
    30    10     9    2
    31    11    28    1
    32    28    29    1
    33    29    30    1
    34    30    31    2
    35    30    35    1
    36    31    32    1
    37    35    34    2
    38    32    33    2
    39    34    33    1
