@<TRIPOS>MOLECULE
78583_out_ligand_01.pdbqt
 37 41 0 0 0
SMALL
GASTEIGER

@<TRIPOS>ATOM
      1  N         23.6930  -22.0390  -10.6010 N.3     1  UNL1        0.0940
      2  C         25.0150  -21.3950  -10.5540 C.3     1  UNL1        0.2800
      3  C         26.2570  -22.2720  -10.7530 C.3     1  UNL1        0.1110
      4  C         26.2490  -23.2150  -11.9070 C.ar    1  UNL1        0.1320
      5  N         27.1210  -24.1860  -12.0840 N.ar    1  UNL1       -0.1350
      6  N         26.8030  -24.8480  -13.2370 N.ar    1  UNL1       -0.1330
      7  C         25.7370  -24.2760  -13.7600 C.ar    1  UNL1        0.1480
      8  N         25.3510  -23.2390  -12.9450 N.ar    1  UNL1       -0.3170
      9  C         24.2340  -22.3400  -13.1180 C.3     1  UNL1        0.1620
     10  C         23.2340  -22.4020  -11.9540 C.3     1  UNL1        0.2930
     11  C         23.5310  -23.1620   -9.6570 C.3     1  UNL1        0.3110
     12  C         22.1670  -23.2350   -9.0040 C.2     1  UNL1       -0.0300
     13  C         21.7130  -22.1980   -8.1760 C.2     1  UNL1        0.0100
     14  C         20.4410  -22.2550   -7.6000 C.2     1  UNL1        0.0130
     15  C         19.5940  -23.3460   -7.8370 C.2     1  UNL1       -0.0250
     16  C         20.0520  -24.3810   -8.6650 C.2     1  UNL1        0.0130
     17  C         21.3220  -24.3260   -9.2440 C.2     1  UNL1        0.0100
     18  C         18.2470  -23.3960   -7.2520 C.2     1  UNL1       -0.0200
     19  C         18.0960  -23.8740   -5.9360 C.2     1  UNL1        0.0130
     20  C         16.8420  -23.9300   -5.3280 C.2     1  UNL1        0.0010
     21  C         15.7150  -23.5090   -6.0260 C.2     1  UNL1        0.0010
     22  C         15.8410  -23.0350   -7.3310 C.2     1  UNL1        0.0070
     23  C         17.0970  -22.9760   -7.9580 C.2     1  UNL1       -0.0510
     24  C         17.1890  -22.4490   -9.3660 C.3     1  UNL1        0.0490
     25  C         25.1000  -24.6810  -15.0410 C.3     1  UNL1        0.2030
     26  N         25.6000  -23.8130  -16.0850 N.am    1  UNL1       -0.3540
     27  C         24.7640  -23.0950  -16.9060 C.2     1  UNL1        0.2180
     28  O         23.5450  -23.2270  -16.8990 O.2     1  UNL1       -0.2740
     29  H         26.5780  -23.5530  -16.0180 H       1  UNL1        0.1620
     30  C         25.5110  -22.1580  -17.8360 C.3     1  UNL1        0.1070
     31  C         26.8810  -21.7410  -17.3020 C.3     1  UNL1        0.0490
     32  C         26.8140  -20.5680  -16.3600 C.2     1  UNL1       -0.0400
     33  C         27.0390  -20.7180  -14.9890 C.2     1  UNL1        0.0100
     34  C         26.9720  -19.6070  -14.1530 C.2     1  UNL1        0.0200
     35  C         26.6870  -18.3760  -14.7180 C.2     1  UNL1        0.1160
     36  N         26.4720  -18.1880  -16.0380 N.2     1  UNL1       -0.2730
     37  C         26.5380  -19.2840  -16.8250 C.2     1  UNL1        0.1230
@<TRIPOS>BOND
     1    30    31    1
     2    30    27    1
     3    31    32    1
     4    27    28    2
     5    27    26   am
     6    37    32    2
     7    37    36    1
     8    32    33    1
     9    26    29    1
    10    26    25    1
    11    36    35    2
    12    25     7    1
    13    33    34    2
    14    35    34    1
    15     7     6   ar
    16     7     8   ar
    17     6     5   ar
    18     9     8    1
    19     9    10    1
    20     8     4   ar
    21     5     4   ar
    22    10     1    1
    23     4     3    1
    24     3     2    1
    25     1     2    1
    26     1    11    1
    27    11    12    1
    28    24    23    1
    29    17    12    2
    30    17    16    1
    31    12    13    1
    32    16    15    2
    33    13    14    2
    34    23    22    1
    35    23    18    2
    36    15    14    1
    37    15    18    1
    38    22    21    2
    39    18    19    1
    40    21    20    1
    41    19    20    2
