@<TRIPOS>MOLECULE
78592_out_ligand_01.pdbqt
 34 37 0 0 0
SMALL
GASTEIGER

@<TRIPOS>ATOM
      1  C         19.0280  -22.2270  -10.3690 C.2     1  UNL1        0.0090
      2  C         19.0320  -21.1560  -11.2830 C.2     1  UNL1        0.0150
      3  C         17.8420  -20.5100  -11.6680 C.2     1  UNL1        0.0020
      4  C         16.6140  -20.9150  -11.1460 C.2     1  UNL1        0.0100
      5  C         16.6020  -21.9750  -10.2600 C.2     1  UNL1       -0.0210
      6  C         17.7800  -22.6160   -9.8880 C.2     1  UNL1        0.0860
      7  O         17.5690  -23.6450   -8.9990 O.2     1  UNL1       -0.3430
      8  C         16.1280  -23.8460   -9.0300 C.3     1  UNL1        0.1510
      9  C         15.4630  -22.5510   -9.5070 C.3     1  UNL1        0.0750
     10  C         15.6490  -24.3600   -7.6680 C.3     1  UNL1        0.1550
     11  N         15.5850  -23.3320   -6.6420 N.am    1  UNL1       -0.3590
     12  C         14.7800  -23.4350   -5.5330 C.2     1  UNL1        0.2170
     13  O         14.0900  -24.4190   -5.2920 O.2     1  UNL1       -0.2740
     14  H         16.0050  -22.4360   -6.8620 H       1  UNL1        0.1620
     15  C         14.8780  -22.2330   -4.6130 C.3     1  UNL1        0.1030
     16  C         15.6940  -22.5050   -3.3490 C.3     1  UNL1        0.0140
     17  C         17.0380  -23.1990   -3.6080 C.3     1  UNL1        0.0390
     18  C         17.9970  -22.3830   -4.4410 C.2     1  UNL1       -0.0580
     19  C         18.4850  -22.8730   -5.6600 C.2     1  UNL1        0.0070
     20  C         19.3540  -22.1030   -6.4360 C.2     1  UNL1        0.0010
     21  C         19.7500  -20.8410   -5.9980 C.2     1  UNL1        0.0000
     22  C         19.2810  -20.3490   -4.7820 C.2     1  UNL1        0.0010
     23  C         18.4110  -21.1160   -4.0080 C.2     1  UNL1        0.0070
     24  C         20.2750  -22.8750   -9.9440 C.2     1  UNL1       -0.0050
     25  C         20.2720  -24.0830   -9.2430 C.2     1  UNL1        0.1280
     26  N         21.3820  -24.7240   -8.8000 N.2     1  UNL1       -0.2710
     27  C         22.5700  -24.1350   -9.0750 C.2     1  UNL1        0.1330
     28  C         22.6980  -22.9470   -9.7810 C.2     1  UNL1        0.0500
     29  C         21.5310  -22.3050  -10.2080 C.2     1  UNL1        0.0320
     30  C         24.0550  -22.4110  -10.0250 C.2     1  UNL1        0.2500
     31  N         25.0860  -23.3050  -10.1150 N.am    1  UNL1       -0.3660
     32  H         26.0140  -22.9000  -10.1590 H       1  UNL1        0.1590
     33  H         25.0160  -24.2520   -9.7710 H       1  UNL1        0.1590
     34  O         24.2600  -21.2080  -10.1160 O.2     1  UNL1       -0.2680
@<TRIPOS>BOND
     1     3     2    1
     2     3     4    2
     3     2     1    2
     4     4     5    1
     5     1    24    1
     6     1     6    1
     7     5     6    2
     8     5     9    1
     9    29    24    2
    10    29    28    1
    11    32    31    1
    12    34    30    2
    13    31    30   am
    14    31    33    1
    15    30    28    1
    16    24    25    1
    17     6     7    1
    18    28    27    2
    19     9     8    1
    20    25    26    2
    21    27    26    1
    22     8     7    1
    23     8    10    1
    24    10    11    1
    25    14    11    1
    26    11    12   am
    27    20    21    2
    28    20    19    1
    29    21    22    1
    30    19    18    2
    31    12    13    2
    32    12    15    1
    33    22    23    2
    34    15    16    1
    35    18    23    1
    36    18    17    1
    37    17    16    1
