@<TRIPOS>MOLECULE
78617_out_ligand_01.pdbqt
 34 39 0 0 0
SMALL
GASTEIGER

@<TRIPOS>ATOM
      1  C         20.0140  -23.4430   -8.9560 C.2     1  UNL1        0.0760
      2  C         20.8900  -24.5140   -8.6880 C.2     1  UNL1        0.1590
      3  N         22.0530  -24.4200   -9.3230 N.2     1  UNL1       -0.1640
      4  N         22.0020  -23.2010   -9.9530 N.pl3   1  UNL1       -0.0630
      5  C         20.7240  -22.6630   -9.8560 C.2     1  UNL1        0.0760
      6  C         23.1920  -22.6310  -10.5420 C.cat   1  UNL1        0.7500
      7  N         23.7890  -21.6290   -9.8650 N.2     1  UNL1       -0.0730
      8  C         24.8030  -21.0050  -10.4770 C.2     1  UNL1        0.1460
      9  C         25.2620  -21.3280  -11.7390 C.2     1  UNL1       -0.0100
     10  C         24.6390  -22.4000  -12.3570 C.2     1  UNL1        0.0940
     11  C         26.3080  -20.4850  -12.3910 C.3     1  UNL1        0.0430
     12  N         23.6020  -23.0540  -11.7570 N.2     1  UNL1       -0.0600
     13  C         25.0440  -22.9560  -13.6760 C.2     1  UNL1        0.0000
     14  C         24.9400  -24.3620  -13.8380 C.2     1  UNL1        0.0140
     15  C         25.5440  -22.2270  -14.7820 C.2     1  UNL1       -0.0460
     16  C         25.2670  -25.0270  -15.0200 C.2     1  UNL1        0.0010
     17  C         25.7200  -24.2980  -16.1010 C.2     1  UNL1        0.0010
     18  C         25.8570  -22.9190  -15.9810 C.2     1  UNL1        0.0080
     19  C         25.8200  -20.7390  -14.8600 C.3     1  UNL1        0.0400
     20  C         25.6970  -19.8520  -13.6300 C.3     1  UNL1        0.0090
     21  C         20.1790  -21.4020  -10.5920 C.3     1  UNL1        0.0390
     22  C         20.6270  -21.1370  -12.0090 C.3     1  UNL1        0.0110
     23  C         19.2240  -21.5790  -11.7490 C.3     1  UNL1        0.0110
     24  C         18.6910  -23.2010   -8.4090 C.2     1  UNL1        0.2550
     25  O         17.7000  -23.0100   -9.1040 O.2     1  UNL1       -0.2680
     26  N         18.6300  -23.1840   -7.0270 N.am    1  UNL1       -0.3510
     27  H         19.4700  -23.3720   -6.4960 H       1  UNL1        0.1630
     28  C         17.3900  -22.8760   -6.3350 C.3     1  UNL1        0.0990
     29  C         17.6460  -22.2460   -4.9580 C.3     1  UNL1        0.0410
     30  C         16.2830  -22.1500   -4.2920 C.3     1  UNL1        0.1420
     31  S         15.4290  -23.6430   -4.7720 S.O2    1  UNL1        0.1460
     32  O         15.5540  -24.6160   -3.7050 O.2     1  UNL1       -0.2280
     33  O         14.1530  -23.2850   -5.3480 O.2     1  UNL1       -0.2280
     34  C         16.5370  -24.1160   -6.0850 C.3     1  UNL1        0.1650
@<TRIPOS>BOND
     1    17    18    2
     2    17    16    1
     3    18    15    1
     4    16    14    2
     5    19    15    1
     6    19    20    1
     7    15    13    2
     8    14    13    1
     9    13    10    1
    10    20    11    1
    11    11     9    1
    12    10    12    2
    13    10     9    1
    14    22    23    1
    15    22    21    1
    16    12     6    1
    17    23    21    1
    18     9     8    2
    19    21     5    1
    20     6     4    1
    21     6     7    2
    22     8     7    1
    23     4     5    1
    24     4     3    1
    25     5     1    2
    26     3     2    2
    27    25    24    2
    28     1     2    1
    29     1    24    1
    30    24    26   am
    31    26    27    1
    32    26    28    1
    33    28    34    1
    34    28    29    1
    35    34    31    1
    36    33    31    2
    37    29    30    1
    38    31    30    1
    39    31    32    2
