@<TRIPOS>MOLECULE
78626_out_ligand_01.pdbqt
 34 39 0 0 0
SMALL
GASTEIGER

@<TRIPOS>ATOM
      1  C         21.3390  -21.8400  -11.1300 C.2     1  UNL1        0.0760
      2  C         20.3500  -21.3130  -11.9820 C.2     1  UNL1        0.1590
      3  N         19.1160  -21.4630  -11.5120 N.2     1  UNL1       -0.1640
      4  N         19.2800  -22.0510  -10.2840 N.pl3   1  UNL1       -0.0630
      5  C         20.6170  -22.3660  -10.0740 C.2     1  UNL1        0.0760
      6  C         18.1530  -22.2640   -9.4080 C.cat   1  UNL1        0.7500
      7  N         16.9730  -22.5880   -9.9690 N.2     1  UNL1       -0.0730
      8  C         15.9510  -22.8040   -9.1280 C.2     1  UNL1        0.1460
      9  C         16.0380  -22.7110   -7.7480 C.2     1  UNL1       -0.0100
     10  C         17.2680  -22.3320   -7.2430 C.2     1  UNL1        0.0940
     11  C         14.8520  -23.0630   -6.9140 C.3     1  UNL1        0.0430
     12  N         18.3210  -22.1170   -8.0780 N.2     1  UNL1       -0.0600
     13  C         17.5830  -22.0860   -5.8030 C.2     1  UNL1        0.0000
     14  C         18.6190  -21.1510   -5.5260 C.2     1  UNL1        0.0140
     15  C         16.9620  -22.6840   -4.6830 C.2     1  UNL1       -0.0460
     16  C         19.0470  -20.8330   -4.2340 C.2     1  UNL1        0.0010
     17  C         18.4440  -21.4380   -3.1530 C.2     1  UNL1        0.0010
     18  C         17.4130  -22.3450   -3.3770 C.2     1  UNL1        0.0080
     19  C         15.8140  -23.6700   -4.6710 C.3     1  UNL1        0.0400
     20  C         15.2290  -24.1900   -5.9700 C.3     1  UNL1        0.0090
     21  C         21.2370  -23.1480   -8.8740 C.3     1  UNL1        0.0390
     22  C         22.3240  -24.1620   -9.1510 C.3     1  UNL1        0.0110
     23  C         20.9700  -24.6260   -8.7190 C.3     1  UNL1        0.0110
     24  C         22.7820  -21.8330  -11.3070 C.2     1  UNL1        0.2550
     25  O         23.5370  -21.1980  -10.5790 O.2     1  UNL1       -0.2680
     26  N         23.2230  -22.6200  -12.3500 N.am    1  UNL1       -0.3520
     27  H         22.5690  -23.2760  -12.7540 H       1  UNL1        0.1630
     28  C         24.6310  -22.8840  -12.5400 C.3     1  UNL1        0.1620
     29  C         24.9960  -22.8660  -13.9970 C.2     1  UNL1       -0.0230
     30  C         24.8500  -21.7100  -14.7750 C.2     1  UNL1        0.0120
     31  C         25.2380  -21.7200  -16.1100 C.2     1  UNL1        0.0200
     32  C         25.7750  -22.8830  -16.6270 C.2     1  UNL1        0.1160
     33  N         25.9350  -24.0230  -15.9100 N.2     1  UNL1       -0.2730
     34  C         25.5450  -23.9870  -14.6160 C.2     1  UNL1        0.1240
@<TRIPOS>BOND
     1    32    31    2
     2    32    33    1
     3    31    30    1
     4    33    34    2
     5    30    29    2
     6    34    29    1
     7    29    28    1
     8    27    26    1
     9    28    26    1
    10    26    24   am
    11     2     3    2
    12     2     1    1
    13     3     4    1
    14    24     1    1
    15    24    25    2
    16     1     5    2
    17     4     5    1
    18     4     6    1
    19     5    21    1
    20     7     6    2
    21     7     8    1
    22     6    12    1
    23    22    21    1
    24    22    23    1
    25     8     9    2
    26    21    23    1
    27    12    10    2
    28     9    10    1
    29     9    11    1
    30    10    13    1
    31    11    20    1
    32    20    19    1
    33    13    14    2
    34    13    15    1
    35    14    16    1
    36    15    19    1
    37    15    18    2
    38    16    17    2
    39    18    17    1
