@<TRIPOS>MOLECULE
78658_out_ligand_01.pdbqt
 35 38 0 0 0
SMALL
GASTEIGER

@<TRIPOS>ATOM
      1  C         20.9450  -22.3070   -7.4450 C.ar    1  UNL1        0.0840
      2  N         20.0650  -21.7690   -6.5190 N.ar    1  UNL1       -0.2240
      3  C         19.0360  -22.5980   -6.5190 C.ar    1  UNL1        0.1820
      4  O         19.1810  -23.6510   -7.3880 O.2     1  UNL1       -0.2940
      5  C         20.4010  -23.4570   -7.9720 C.ar    1  UNL1        0.0780
      6  C         20.8340  -24.4470   -8.9730 C.3     1  UNL1        0.0790
      7  C         17.7950  -22.5250   -5.7320 C.2     1  UNL1        0.0440
      8  C         17.9300  -22.6400   -4.3320 C.2     1  UNL1        0.0180
      9  C         16.8250  -22.5870   -3.4850 C.2     1  UNL1        0.0010
     10  C         15.5590  -22.4160   -4.0250 C.2     1  UNL1        0.0020
     11  C         15.3980  -22.3010   -5.4080 C.2     1  UNL1        0.0300
     12  C         16.4970  -22.3530   -6.2790 C.2     1  UNL1        0.0490
     13  N         16.3320  -22.2440   -7.6830 N.am    1  UNL1       -0.3260
     14  C         15.8880  -23.1950   -8.5850 C.2     1  UNL1        0.2220
     15  O         15.5280  -24.3370   -8.3270 O.2     1  UNL1       -0.2730
     16  H         16.5740  -21.3380   -8.0730 H       1  UNL1        0.1690
     17  C         15.8770  -22.6410  -10.0040 C.3     1  UNL1        0.1070
     18  C         17.1170  -21.8150  -10.3460 C.3     1  UNL1       -0.0060
     19  C         18.3310  -22.6910  -10.6550 C.3     1  UNL1        0.0050
     20  C         19.2830  -21.7680  -11.4110 C.3     1  UNL1        0.0000
     21  C         18.4170  -20.6570  -12.0050 C.3     1  UNL1        0.0000
     22  C         16.9790  -21.0000  -11.6320 C.3     1  UNL1        0.0050
     23  C         22.2540  -21.6660   -7.7460 C.3     1  UNL1        0.1840
     24  N         22.3870  -21.5200   -9.1750 N.am    1  UNL1       -0.3510
     25  C         23.3240  -22.2380   -9.8770 C.2     1  UNL1        0.2530
     26  O         24.0420  -23.0860   -9.3670 O.2     1  UNL1       -0.2680
     27  H         21.8920  -20.7420   -9.5990 H       1  UNL1        0.1630
     28  C         23.4020  -21.9090  -11.3220 C.2     1  UNL1        0.0480
     29  C         22.1850  -21.7940  -12.0190 C.2     1  UNL1        0.0180
     30  C         22.1790  -21.5180  -13.3860 C.2     1  UNL1        0.0010
     31  C         23.3850  -21.3640  -14.0640 C.2     1  UNL1        0.0010
     32  C         24.5950  -21.4810  -13.3740 C.2     1  UNL1        0.0190
     33  C         24.6240  -21.7450  -11.9950 C.2     1  UNL1        0.0150
     34  S         26.2490  -21.8340  -11.2470 S.3     1  UNL1       -0.1330
     35  C         26.7100  -23.5280  -11.6930 C.3     1  UNL1        0.0950
@<TRIPOS>BOND
     1    31    30    2
     2    31    32    1
     3    30    29    1
     4    32    33    2
     5    29    28    2
     6    21    22    1
     7    21    20    1
     8    33    28    1
     9    33    34    1
    10    35    34    1
    11    22    18    1
    12    20    19    1
    13    28    25    1
    14    19    18    1
    15    18    17    1
    16    17    14    1
    17    25    26    2
    18    25    24   am
    19    27    24    1
    20    24    23    1
    21     6     5    1
    22    14    15    2
    23    14    13   am
    24    16    13    1
    25     5     1   ar
    26     5     4   ar
    27    23     1    1
    28    13    12    1
    29     1     2   ar
    30     4     3   ar
    31     3     2   ar
    32     3     7    1
    33    12     7    2
    34    12    11    1
    35     7     8    1
    36    11    10    2
    37     8     9    2
    38    10     9    1
