@<TRIPOS>MOLECULE
78670_out_ligand_01.pdbqt
 34 37 0 0 0
SMALL
GASTEIGER

@<TRIPOS>ATOM
      1  C         23.4100  -22.0250  -12.6060 C.ar    1  UNL1        0.1820
      2  N         23.4550  -22.7930  -11.5320 N.ar    1  UNL1       -0.2240
      3  C         22.1990  -22.6690  -10.9670 C.ar    1  UNL1        0.0840
      4  C         21.4310  -21.8210  -11.7420 C.ar    1  UNL1        0.0780
      5  C         20.0510  -21.3040  -11.6710 C.3     1  UNL1        0.0790
      6  O         22.2010  -21.3950  -12.7880 O.2     1  UNL1       -0.2940
      7  C         21.8560  -23.3600   -9.6980 C.3     1  UNL1        0.1840
      8  N         20.4840  -23.0370   -9.3780 N.am    1  UNL1       -0.3540
      9  C         19.7600  -23.8230   -8.5090 C.2     1  UNL1        0.2310
     10  O         20.2100  -24.8770   -8.0640 O.2     1  UNL1       -0.2720
     11  H         20.2380  -22.0540   -9.4450 H       1  UNL1        0.1620
     12  C         18.3330  -23.2870   -8.1740 C.3     1  UNL1        0.0680
     13  C         17.3460  -24.4960   -8.1600 C.3     1  UNL1        0.0240
     14  C         15.8770  -24.0760   -8.1020 C.3     1  UNL1        0.0020
     15  C         15.5170  -23.1930   -9.2870 C.3     1  UNL1        0.0000
     16  C         16.4310  -21.9800   -9.3730 C.3     1  UNL1        0.0020
     17  C         17.9120  -22.3700   -9.3630 C.3     1  UNL1        0.0240
     18  C         18.3920  -22.5980   -6.7890 C.2     1  UNL1       -0.0400
     19  C         17.6620  -23.1370   -5.7100 C.2     1  UNL1        0.0080
     20  C         17.7140  -22.5650   -4.4360 C.2     1  UNL1        0.0010
     21  C         18.5090  -21.4490   -4.2030 C.2     1  UNL1        0.0000
     22  C         19.2550  -20.9100   -5.2450 C.2     1  UNL1        0.0010
     23  C         19.2010  -21.4820   -6.5230 C.2     1  UNL1        0.0080
     24  C         24.4510  -21.7870  -13.6140 C.2     1  UNL1        0.0440
     25  C         24.0250  -21.2780  -14.8600 C.2     1  UNL1        0.0180
     26  C         24.9310  -21.0140  -15.8850 C.2     1  UNL1        0.0010
     27  C         26.2830  -21.2580  -15.6830 C.2     1  UNL1        0.0020
     28  C         26.7260  -21.7740  -14.4610 C.2     1  UNL1        0.0300
     29  C         25.8320  -22.0490  -13.4170 C.2     1  UNL1        0.0490
     30  N         26.2730  -22.5920  -12.1830 N.am    1  UNL1       -0.3270
     31  C         26.7580  -23.8580  -11.9210 C.2     1  UNL1        0.2180
     32  C         27.1210  -24.0310  -10.4650 C.3     1  UNL1        0.1170
     33  O         26.9100  -24.7750  -12.7220 O.2     1  UNL1       -0.2740
     34  H         26.2210  -21.9590  -11.3890 H       1  UNL1        0.1690
@<TRIPOS>BOND
     1    26    27    2
     2    26    25    1
     3    27    28    1
     4    25    24    2
     5    28    29    2
     6    24    29    1
     7    24     1    1
     8    29    30    1
     9     6     1   ar
    10     6     4   ar
    11    33    31    2
    12     1     2   ar
    13    30    31   am
    14    30    34    1
    15    31    32    1
    16     4     5    1
    17     4     3   ar
    18     2     3   ar
    19     3     7    1
    20     7     8    1
    21    11     8    1
    22     8     9   am
    23    16    17    1
    24    16    15    1
    25    17    12    1
    26    15    14    1
    27     9    12    1
    28     9    10    2
    29    12    13    1
    30    12    18    1
    31    13    14    1
    32    18    23    2
    33    18    19    1
    34    23    22    1
    35    19    20    2
    36    22    21    2
    37    20    21    1
