@<TRIPOS>MOLECULE
78679_out_ligand_01.pdbqt
 32 36 0 0 0
SMALL
GASTEIGER

@<TRIPOS>ATOM
      1  N         20.6290  -21.8990  -11.1750 N.pl3   1  UNL1       -0.0630
      2  N         20.0230  -21.1300  -12.1350 N.3     1  UNL1       -0.1640
      3  C         18.7470  -21.0790  -11.7730 C.3     1  UNL1        0.1590
      4  C         18.4640  -21.8720  -10.6490 C.2     1  UNL1        0.0760
      5  C         19.6640  -22.5230  -10.3770 C.2     1  UNL1        0.0760
      6  C         22.0710  -21.9060  -11.0920 C.cat   1  UNL1        0.7500
      7  N         22.6700  -21.4260   -9.9880 N.2     1  UNL1       -0.0730
      8  C         24.0170  -21.4130   -9.9780 C.2     1  UNL1        0.1450
      9  C         24.8100  -21.8530  -11.0170 C.2     1  UNL1       -0.0130
     10  C         26.2980  -21.8210  -10.8950 C.3     1  UNL1        0.0520
     11  C         24.1080  -22.2810  -12.1310 C.2     1  UNL1        0.1000
     12  N         22.7600  -22.3290  -12.1720 N.2     1  UNL1       -0.0590
     13  C         24.7210  -22.7620  -13.3750 C.2     1  UNL1        0.0340
     14  C         25.2050  -24.0290  -13.6490 C.2     1  UNL1        0.0220
     15  C         25.6930  -24.1560  -14.9820 C.2     1  UNL1        0.0080
     16  C         25.5450  -22.9890  -15.6960 C.2     1  UNL1        0.0500
     17  S         24.8190  -21.7530  -14.7620 S.3     1  UNL1       -0.1000
     18  C         19.7110  -23.7980   -9.4620 C.3     1  UNL1        0.0390
     19  C         20.9590  -24.5130   -9.0530 C.3     1  UNL1        0.0110
     20  C         20.1850  -23.7090   -8.0420 C.3     1  UNL1        0.0110
     21  C         17.1600  -22.0180  -10.0270 C.2     1  UNL1        0.2550
     22  O         16.1630  -21.4490  -10.4600 O.2     1  UNL1       -0.2680
     23  N         17.1460  -22.7960   -8.8930 N.am    1  UNL1       -0.3560
     24  H         18.0270  -23.1460   -8.5330 H       1  UNL1        0.1620
     25  C         15.9330  -23.0320   -8.1380 C.3     1  UNL1        0.1270
     26  C         16.1160  -24.1430   -7.1020 C.3     1  UNL1        0.0600
     27  C         16.2280  -23.5910   -5.7080 C.2     1  UNL1       -0.0390
     28  C         17.4050  -23.7210   -4.9680 C.2     1  UNL1        0.0100
     29  C         17.4650  -23.2180   -3.6720 C.2     1  UNL1        0.0200
     30  C         16.3380  -22.6060   -3.1530 C.2     1  UNL1        0.1160
     31  N         15.1790  -22.4670   -3.8350 N.2     1  UNL1       -0.2730
     32  C         15.1520  -22.9590   -5.0940 C.2     1  UNL1        0.1230
@<TRIPOS>BOND
     1    16    15    2
     2    16    17    1
     3    15    14    1
     4    17    13    1
     5    14    13    2
     6    13    11    1
     7    12    11    2
     8    12     6    1
     9     2     3    1
    10     2     1    1
    11    11     9    1
    12     3     4    1
    13     1     6    1
    14     1     5    1
    15     6     7    2
    16     9    10    1
    17     9     8    2
    18     4     5    2
    19     4    21    1
    20    22    21    2
    21     5    18    1
    22    21    23   am
    23     7     8    1
    24    18    19    1
    25    18    20    1
    26    19    20    1
    27    23    24    1
    28    23    25    1
    29    25    26    1
    30    26    27    1
    31    27    32    2
    32    27    28    1
    33    32    31    1
    34    28    29    2
    35    31    30    2
    36    29    30    1
