@<TRIPOS>MOLECULE
78687_out_ligand_01.pdbqt
 33 38 0 0 0
SMALL
GASTEIGER

@<TRIPOS>ATOM
      1  C         21.4230  -21.8740  -10.9880 C.2     1  UNL1        0.0760
      2  C         20.4570  -21.3070  -11.8300 C.2     1  UNL1        0.1590
      3  N         19.2160  -21.4430  -11.3670 N.2     1  UNL1       -0.1640
      4  N         19.3590  -22.1320  -10.1910 N.pl3   1  UNL1       -0.0630
      5  C         20.6950  -22.4380   -9.9580 C.2     1  UNL1        0.0760
      6  C         18.2170  -22.4300   -9.3630 C.cat   1  UNL1        0.7500
      7  N         17.1150  -22.9410   -9.9250 N.2     1  UNL1       -0.0730
      8  C         16.0870  -23.1720   -9.0910 C.2     1  UNL1        0.1460
      9  C         16.0910  -22.9450   -7.7170 C.2     1  UNL1       -0.0100
     10  C         17.2760  -22.4400   -7.2070 C.2     1  UNL1        0.0940
     11  C         14.8150  -23.2840   -7.0040 C.3     1  UNL1        0.0430
     12  N         18.3220  -22.1930   -8.0390 N.2     1  UNL1       -0.0600
     13  C         17.6090  -22.1140   -5.7870 C.2     1  UNL1        0.0000
     14  C         18.6560  -21.1860   -5.5380 C.2     1  UNL1        0.0140
     15  C         16.9960  -22.6820   -4.6480 C.2     1  UNL1       -0.0460
     16  C         19.0830  -20.8490   -4.2520 C.2     1  UNL1        0.0010
     17  C         18.4720  -21.4280   -3.1540 C.2     1  UNL1        0.0010
     18  C         17.4400  -22.3410   -3.3500 C.2     1  UNL1        0.0080
     19  C         15.8510  -23.6510   -4.7430 C.3     1  UNL1        0.0400
     20  C         14.7020  -23.0260   -5.5120 C.3     1  UNL1        0.0090
     21  C         21.2780  -23.2310   -8.7530 C.3     1  UNL1        0.0390
     22  C         21.0580  -24.7260   -8.7050 C.3     1  UNL1        0.0110
     23  C         22.4330  -24.1820   -8.9450 C.3     1  UNL1        0.0110
     24  C         22.8540  -21.8450  -11.1720 C.2     1  UNL1        0.2550
     25  O         23.5960  -21.1330  -10.5030 O.2     1  UNL1       -0.2680
     26  N         23.2850  -22.7200  -12.1430 N.am    1  UNL1       -0.3540
     27  H         22.6000  -23.3120  -12.6010 H       1  UNL1        0.1620
     28  C         24.6920  -22.9440  -12.4180 C.3     1  UNL1        0.1550
     29  C         25.1970  -22.2010  -13.6590 C.3     1  UNL1        0.1390
     30  C         24.1420  -21.9480  -14.7230 C.3     1  UNL1        0.0350
     31  C         24.6800  -20.7150  -15.4020 C.3     1  UNL1        0.0290
     32  C         25.2270  -19.9360  -14.2270 C.3     1  UNL1        0.1680
     33  O         25.7050  -20.9040  -13.2810 O.3     1  UNL1       -0.3840
@<TRIPOS>BOND
     1    31    30    1
     2    31    32    1
     3    30    29    1
     4    32    33    1
     5    29    33    1
     6    29    28    1
     7    27    26    1
     8    28    26    1
     9    26    24   am
    10     2     3    2
    11     2     1    1
    12     3     4    1
    13    24     1    1
    14    24    25    2
    15     1     5    2
    16     4     5    1
    17     4     6    1
    18     5    21    1
    19     7     6    2
    20     7     8    1
    21     6    12    1
    22     8     9    2
    23    23    21    1
    24    23    22    1
    25    21    22    1
    26    12    10    2
    27     9    10    1
    28     9    11    1
    29    10    13    1
    30    11    20    1
    31    13    14    2
    32    13    15    1
    33    14    16    1
    34    20    19    1
    35    19    15    1
    36    15    18    2
    37    16    17    2
    38    18    17    1
