@<TRIPOS>MOLECULE
78694_out_ligand_01.pdbqt
 36 41 0 0 0
SMALL
GASTEIGER

@<TRIPOS>ATOM
      1  N         18.8510  -22.2640  -10.0460 N.pl3   1  UNL1       -0.0630
      2  N         18.8070  -21.5370  -11.2030 N.2     1  UNL1       -0.1640
      3  C         20.0790  -21.2280  -11.4490 C.2     1  UNL1        0.1590
      4  C         20.9820  -21.7600  -10.5030 C.2     1  UNL1        0.0760
      5  C         20.1690  -22.5190   -9.6750 C.2     1  UNL1        0.0760
      6  C         22.4210  -21.5470  -10.5090 C.2     1  UNL1        0.2550
      7  O         22.9950  -21.0160   -9.5650 O.2     1  UNL1       -0.2680
      8  N         23.0750  -22.0160  -11.6220 N.am    1  UNL1       -0.3530
      9  H         22.5440  -22.5060  -12.3270 H       1  UNL1        0.1630
     10  C         24.5070  -21.9420  -11.7840 C.3     1  UNL1        0.1610
     11  C         24.9020  -21.4140  -13.1410 C.2     1  UNL1       -0.0400
     12  C         25.6730  -20.2580  -13.2780 C.2     1  UNL1        0.0110
     13  C         26.0670  -19.8050  -14.5450 C.2     1  UNL1        0.0300
     14  C         25.7170  -20.4850  -15.7260 C.2     1  UNL1        0.0360
     15  C         24.9720  -21.6750  -15.5760 C.2     1  UNL1       -0.0310
     16  N         26.1410  -20.0510  -16.9920 N.pl3   1  UNL1       -0.3850
     17  C         24.5570  -22.1150  -14.3020 C.2     1  UNL1        0.0180
     18  C         24.5610  -22.4950  -16.7740 C.3     1  UNL1        0.0420
     19  C         25.4180  -22.1740  -17.9870 C.3     1  UNL1        0.0240
     20  C         25.4880  -20.6660  -18.1530 C.3     1  UNL1        0.1230
     21  C         26.5320  -18.6540  -17.1640 C.3     1  UNL1        0.1490
     22  C         20.6270  -23.5100   -8.5560 C.3     1  UNL1        0.0390
     23  C         20.4530  -24.9920   -8.7990 C.3     1  UNL1        0.0110
     24  C         21.8270  -24.3970   -8.7940 C.3     1  UNL1        0.0110
     25  C         17.6470  -22.6430   -9.3470 C.cat   1  UNL1        0.7500
     26  N         16.6550  -23.2300  -10.0550 N.2     1  UNL1       -0.0730
     27  C         15.5720  -23.6230   -9.3650 C.2     1  UNL1        0.1390
     28  C         15.4280  -23.4490   -8.0100 C.2     1  UNL1        0.0550
     29  C         16.4800  -22.8350   -7.3650 C.2     1  UNL1        0.1110
     30  N         17.5890  -22.4340   -8.0130 N.2     1  UNL1       -0.0580
     31  C         16.4400  -22.5730   -5.9270 C.2     1  UNL1        0.1050
     32  C         15.4510  -22.6250   -4.9590 C.2     1  UNL1        0.0420
     33  C         16.0500  -22.2330   -3.7360 C.2     1  UNL1        0.0350
     34  C         17.3700  -21.9670   -4.0220 C.2     1  UNL1        0.0500
     35  C         18.5220  -21.5270   -3.2090 C.3     1  UNL1        0.0760
     36  O         17.6130  -22.1750   -5.3450 O.2     1  UNL1       -0.3130
@<TRIPOS>BOND
     1    20    19    1
     2    20    16    1
     3    19    18    1
     4    21    16    1
     5    16    14    1
     6    18    15    1
     7    14    15    2
     8    14    13    1
     9    15    17    1
    10    13    12    2
    11    17    11    2
    12    12    11    1
    13    11    10    1
    14     9     8    1
    15    10     8    1
    16     8     6   am
    17     3     2    2
    18     3     4    1
    19     2     1    1
    20     6     4    1
    21     6     7    2
    22     4     5    2
    23    26    27    1
    24    26    25    2
    25     1     5    1
    26     1    25    1
    27     5    22    1
    28    27    28    2
    29    25    30    1
    30    23    24    1
    31    23    22    1
    32    24    22    1
    33    30    29    2
    34    28    29    1
    35    29    31    1
    36    31    36    1
    37    31    32    2
    38    36    34    1
    39    32    33    1
    40    34    33    2
    41    34    35    1
