@<TRIPOS>MOLECULE
78696_out_ligand_01.pdbqt
 36 40 0 0 0
SMALL
GASTEIGER

@<TRIPOS>ATOM
      1  C         24.1930  -22.6920  -10.6550 C.2     1  UNL1       -0.0230
      2  C         23.8770  -23.4640   -9.5170 C.2     1  UNL1        0.0130
      3  C         22.5580  -23.6770   -9.0920 C.2     1  UNL1        0.0390
      4  C         21.5620  -23.0790   -9.8500 C.2     1  UNL1        0.0860
      5  O         20.2290  -23.1560   -9.6010 O.2     1  UNL1       -0.3040
      6  C         19.5820  -22.4520  -10.5780 C.2     1  UNL1        0.1440
      7  C         20.5200  -21.8930  -11.4300 C.2     1  UNL1        0.0570
      8  C         21.7990  -22.3060  -10.9740 C.2     1  UNL1        0.0010
      9  C         23.1320  -22.1020  -11.3800 C.2     1  UNL1        0.0240
     10  C         18.1320  -22.3130  -10.5710 C.2     1  UNL1        0.2770
     11  O         17.5390  -21.9770  -11.5990 O.2     1  UNL1       -0.2650
     12  N         17.4150  -22.5460   -9.3880 N.am    1  UNL1       -0.3460
     13  C         15.9870  -22.2700   -9.3880 C.3     1  UNL1        0.1530
     14  C         17.9150  -23.3530   -8.2670 C.3     1  UNL1        0.1660
     15  C         18.1170  -22.6000   -6.9660 C.2     1  UNL1       -0.0110
     16  C         19.2180  -21.7460   -6.7590 C.2     1  UNL1        0.0110
     17  C         19.3960  -21.0940   -5.5440 C.2     1  UNL1        0.0020
     18  C         18.4810  -21.2920   -4.5180 C.2     1  UNL1        0.0140
     19  C         17.3840  -22.1460   -4.7030 C.2     1  UNL1       -0.0070
     20  C         16.4590  -22.3620   -3.6730 C.2     1  UNL1        0.0150
     21  C         17.1890  -22.8140   -5.9350 C.2     1  UNL1        0.0740
     22  C         15.3840  -23.2160   -3.8730 C.2     1  UNL1        0.0200
     23  C         15.2680  -23.8270   -5.1050 C.2     1  UNL1        0.1170
     24  N         16.1380  -23.6420   -6.1220 N.2     1  UNL1       -0.2600
     25  C         25.6570  -22.4620  -11.0680 C.3     1  UNL1        0.0880
     26  C         25.9520  -23.0030  -12.4820 C.3     1  UNL1        0.0730
     27  C         27.1120  -22.2350  -13.1170 C.3     1  UNL1        0.2760
     28  N         26.8420  -20.8000  -13.2950 N.3     1  UNL1        0.0890
     29  C         25.9720  -20.2310  -12.2570 C.3     1  UNL1        0.2760
     30  C         26.0490  -20.9760  -10.9240 C.3     1  UNL1        0.0730
     31  C         26.3820  -20.5040  -14.6650 C.3     1  UNL1        0.2760
     32  C         25.2130  -21.3430  -15.2370 C.3     1  UNL1        0.0060
     33  C         25.2680  -21.4570  -16.7610 C.3     1  UNL1        0.0110
     34  C         23.8270  -20.8970  -14.7720 C.3     1  UNL1        0.0110
     35  O         26.4970  -23.2020  -10.1570 O.3     1  UNL1       -0.3850
     36  H         25.9420  -23.5160   -9.4250 H       1  UNL1        0.2110
@<TRIPOS>BOND
     1    33    32    1
     2    32    34    1
     3    32    31    1
     4    31    28    1
     5    28    27    1
     6    28    29    1
     7    27    26    1
     8    26    25    1
     9    29    30    1
    10    11    10    2
    11     7     8    1
    12     7     6    2
    13     9     8    1
    14     9     1    2
    15    25    30    1
    16    25     1    1
    17    25    35    1
    18     8     4    2
    19     1     2    1
    20     6    10    1
    21     6     5    1
    22    10    12   am
    23    35    36    1
    24     4     5    1
    25     4     3    1
    26     2     3    2
    27    13    12    1
    28    12    14    1
    29    14    15    1
    30    15    16    2
    31    15    21    1
    32    16    17    1
    33    24    21    1
    34    24    23    2
    35    21    19    2
    36    17    18    2
    37    23    22    1
    38    19    18    1
    39    19    20    1
    40    22    20    2
