@<TRIPOS>MOLECULE
78698_out_ligand_01.pdbqt
 36 40 0 0 0
SMALL
GASTEIGER

@<TRIPOS>ATOM
      1  C         19.2990  -22.8180   -9.6590 C.2     1  UNL1       -0.0090
      2  C         18.2080  -22.1290  -10.2150 C.2     1  UNL1        0.0380
      3  C         16.8410  -22.1640   -9.5920 C.3     1  UNL1        0.0710
      4  N         18.3030  -21.3980  -11.3530 N.2     1  UNL1       -0.2650
      5  C         19.5040  -21.3320  -11.9590 C.2     1  UNL1        0.1260
      6  C         20.6460  -21.9810  -11.5080 C.2     1  UNL1       -0.0160
      7  C         20.5320  -22.7670  -10.3490 C.2     1  UNL1       -0.0370
      8  C         21.7610  -23.4840   -9.8290 C.3     1  UNL1        0.0600
      9  C         22.8370  -23.6280  -10.9030 C.3     1  UNL1        0.1310
     10  N         23.1110  -22.3750  -11.6010 N.am    1  UNL1       -0.3450
     11  C         23.9830  -21.4850  -10.9720 C.2     1  UNL1        0.2510
     12  O         24.1140  -21.4870   -9.7420 O.2     1  UNL1       -0.2700
     13  C         21.9370  -21.8290  -12.2810 C.3     1  UNL1        0.1660
     14  C         19.1490  -23.6370   -8.3990 C.3     1  UNL1        0.1640
     15  N         18.1300  -23.0660   -7.5460 N.am    1  UNL1       -0.3520
     16  C         17.4640  -23.8020   -6.5970 C.2     1  UNL1        0.2530
     17  O         17.7460  -24.9670   -6.3340 O.2     1  UNL1       -0.2680
     18  H         17.7570  -22.1610   -7.8020 H       1  UNL1        0.1630
     19  C         16.3700  -23.1120   -5.8430 C.2     1  UNL1        0.0480
     20  C         15.2580  -22.7370   -6.6210 C.2     1  UNL1        0.0180
     21  C         14.1620  -22.0970   -6.0460 C.2     1  UNL1        0.0010
     22  C         14.1670  -21.8090   -4.6860 C.2     1  UNL1        0.0010
     23  C         15.2690  -22.1560   -3.9040 C.2     1  UNL1        0.0190
     24  C         16.3810  -22.8160   -4.4630 C.2     1  UNL1        0.0150
     25  S         17.7810  -23.1270   -3.3790 S.3     1  UNL1       -0.1330
     26  C         18.4950  -21.4630   -3.2780 C.3     1  UNL1        0.0950
     27  C         24.9520  -20.6550  -11.8580 C.3     1  UNL1        0.2450
     28  C         26.4570  -20.7210  -11.6360 C.3     1  UNL1        0.2180
     29  O         27.0670  -21.9190  -12.1260 O.2     1  UNL1       -0.3450
     30  C         26.4870  -22.3800  -13.2780 C.2     1  UNL1        0.1020
     31  C         27.1210  -23.4490  -13.9130 C.2     1  UNL1        0.0390
     32  C         25.3120  -21.8520  -13.8130 C.2     1  UNL1        0.1030
     33  C         26.5790  -23.9870  -15.0800 C.2     1  UNL1        0.0030
     34  C         25.4100  -23.4510  -15.6200 C.2     1  UNL1        0.0030
     35  C         24.7760  -22.3790  -14.9890 C.2     1  UNL1        0.0400
     36  O         24.6370  -20.8060  -13.2480 O.2     1  UNL1       -0.3310
@<TRIPOS>BOND
     1    34    33    2
     2    34    35    1
     3    33    31    1
     4    35    32    2
     5    31    30    2
     6    32    30    1
     7    32    36    1
     8    30    29    1
     9    36    27    1
    10    13    10    1
    11    13     6    1
    12    29    28    1
    13     5     6    2
    14     5     4    1
    15    27    28    1
    16    27    11    1
    17    10    11   am
    18    10     9    1
    19     6     7    1
    20     4     2    2
    21    11    12    2
    22     9     8    1
    23     7     8    1
    24     7     1    2
    25     2     1    1
    26     2     3    1
    27     1    14    1
    28    14    15    1
    29    18    15    1
    30    15    16   am
    31    20    21    1
    32    20    19    2
    33    16    17    2
    34    16    19    1
    35    21    22    2
    36    19    24    1
    37    22    23    1
    38    24    23    2
    39    24    25    1
    40    25    26    1
