@<TRIPOS>MOLECULE
78716_out_ligand_01.pdbqt
 35 40 0 0 0
SMALL
GASTEIGER

@<TRIPOS>ATOM
      1  C         22.3730  -21.9970  -11.4560 C.2     1  UNL1        0.0760
      2  C         21.4390  -21.5480  -12.4090 C.2     1  UNL1        0.1590
      3  N         20.1850  -21.5800  -11.9700 N.2     1  UNL1       -0.1640
      4  N         20.2730  -22.0700  -10.6900 N.pl3   1  UNL1       -0.0630
      5  C         21.6030  -22.2920  -10.3440 C.2     1  UNL1        0.0760
      6  C         19.0770  -22.3010   -9.9180 C.cat   1  UNL1        0.7500
      7  N         17.9530  -22.5860  -10.5950 N.2     1  UNL1       -0.0730
      8  C         16.8690  -22.8890   -9.8630 C.2     1  UNL1        0.1460
      9  C         16.8160  -22.8850   -8.4780 C.2     1  UNL1       -0.0100
     10  C         17.9850  -22.4700   -7.8620 C.2     1  UNL1        0.0940
     11  C         15.5130  -23.2950   -7.8550 C.3     1  UNL1        0.0430
     12  N         19.1220  -22.2270   -8.5750 N.2     1  UNL1       -0.0600
     13  C         18.1330  -22.1920   -6.4150 C.2     1  UNL1        0.0000
     14  C         18.8580  -21.0470   -6.0140 C.2     1  UNL1        0.0140
     15  C         17.5810  -22.9930   -5.3970 C.2     1  UNL1       -0.0460
     16  C         19.0620  -20.7210   -4.6710 C.2     1  UNL1        0.0010
     17  C         18.5400  -21.5420   -3.6820 C.2     1  UNL1        0.0010
     18  C         17.8060  -22.6700   -4.0410 C.2     1  UNL1        0.0080
     19  C         16.6790  -24.1540   -5.7140 C.3     1  UNL1        0.0400
     20  C         15.4090  -23.6260   -6.3690 C.3     1  UNL1        0.0090
     21  C         22.1530  -22.8880   -9.0090 C.3     1  UNL1        0.0390
     22  C         21.9090  -24.3490   -8.7050 C.3     1  UNL1        0.0110
     23  C         23.2900  -23.8760   -9.0180 C.3     1  UNL1        0.0110
     24  C         23.8080  -22.1480  -11.6210 C.2     1  UNL1        0.2550
     25  N         24.1710  -23.3040  -12.2840 N.am    1  UNL1       -0.3550
     26  H         23.4280  -23.7680  -12.7980 H       1  UNL1        0.1620
     27  O         24.6230  -21.3160  -11.2330 O.2     1  UNL1       -0.2680
     28  C         25.5300  -23.4640  -12.7790 C.3     1  UNL1        0.1430
     29  C         25.5580  -23.7330  -14.2810 C.3     1  UNL1        0.1490
     30  N         25.3680  -22.5340  -15.0690 N.pl3   1  UNL1       -0.3430
     31  C         25.7650  -21.2800  -14.6910 C.2     1  UNL1        0.1110
     32  C         25.2970  -20.4470  -15.6820 C.2     1  UNL1        0.1360
     33  N         24.6440  -21.1610  -16.6480 N.2     1  UNL1       -0.2460
     34  C         24.6860  -22.4210  -16.2600 C.2     1  UNL1        0.1010
     35  C         24.0780  -23.5610  -16.9910 C.3     1  UNL1        0.0910
@<TRIPOS>BOND
     1    35    34    1
     2    33    34    2
     3    33    32    1
     4    34    30    1
     5    32    31    2
     6    30    31    1
     7    30    29    1
     8    29    28    1
     9    26    25    1
    10    28    25    1
    11     2     3    2
    12     2     1    1
    13    25    24   am
    14     3     4    1
    15    24     1    1
    16    24    27    2
    17     1     5    2
    18     4     5    1
    19     4     6    1
    20     7     6    2
    21     7     8    1
    22     5    21    1
    23     6    12    1
    24     8     9    2
    25    23    21    1
    26    23    22    1
    27    21    22    1
    28    12    10    2
    29     9    10    1
    30     9    11    1
    31    10    13    1
    32    11    20    1
    33    13    14    2
    34    13    15    1
    35    20    19    1
    36    14    16    1
    37    19    15    1
    38    15    18    2
    39    16    17    2
    40    18    17    1
