@<TRIPOS>MOLECULE
78713_out_ligand_01.pdbqt
 29 32 0 0 0
SMALL
GASTEIGER

@<TRIPOS>ATOM
      1  C         17.9360  -21.8200  -10.6810 C.2     1  UNL1        0.1580
      2  C         19.2380  -22.2080  -10.4400 C.2     1  UNL1        0.1460
      3  N         19.9730  -21.4530  -11.3000 N.pl3   1  UNL1       -0.2800
      4  N         19.1920  -20.6430  -12.0360 N.2     1  UNL1        0.0050
      5  N         17.9370  -20.8600  -11.6690 N.2     1  UNL1       -0.1530
      6  C         16.7280  -22.3100  -10.0330 C.2     1  UNL1        0.2730
      7  O         15.6240  -21.8120  -10.2260 O.2     1  UNL1       -0.2660
      8  N         16.9560  -23.3790   -9.1950 N.am    1  UNL1       -0.3560
      9  H         17.9180  -23.6880   -9.0970 H       1  UNL1        0.1620
     10  C         15.9210  -24.0270   -8.4160 C.3     1  UNL1        0.1230
     11  C         16.4350  -24.4640   -7.0450 C.3     1  UNL1        0.0240
     12  C         17.9320  -24.2090   -6.8300 C.3     1  UNL1        0.0400
     13  C         18.2120  -23.0090   -5.9590 C.2     1  UNL1       -0.0580
     14  C         19.0390  -21.9740   -6.4120 C.2     1  UNL1        0.0070
     15  C         19.3060  -20.8710   -5.5980 C.2     1  UNL1        0.0010
     16  C         18.7470  -20.7920   -4.3240 C.2     1  UNL1        0.0000
     17  C         17.9200  -21.8140   -3.8630 C.2     1  UNL1        0.0010
     18  C         17.6550  -22.9180   -4.6760 C.2     1  UNL1        0.0070
     19  C         21.4040  -21.4530  -11.4840 C.3     1  UNL1        0.1800
     20  C         22.1180  -22.5500  -10.6860 C.3     1  UNL1        0.1720
     21  C         22.8360  -22.0460   -9.4360 C.3     1  UNL1        0.2100
     22  O         23.8480  -21.0920   -9.7740 O.2     1  UNL1       -0.3460
     23  C         24.6550  -21.5780  -10.7710 C.2     1  UNL1        0.1020
     24  C         25.8950  -20.9640  -10.9340 C.2     1  UNL1        0.0390
     25  C         24.2710  -22.6220  -11.6190 C.2     1  UNL1        0.1020
     26  C         26.7670  -21.4160  -11.9250 C.2     1  UNL1        0.0030
     27  C         26.3960  -22.4760  -12.7540 C.2     1  UNL1        0.0030
     28  C         25.1470  -23.0790  -12.6010 C.2     1  UNL1        0.0390
     29  O         23.0460  -23.2360  -11.5510 O.2     1  UNL1       -0.3390
@<TRIPOS>BOND
     1    27    28    2
     2    27    26    1
     3    28    25    1
     4     4     5    2
     5     4     3    1
     6    26    24    2
     7     5     1    1
     8    25    29    1
     9    25    23    2
    10    29    20    1
    11    19     3    1
    12    19    20    1
    13     3     2    1
    14    24    23    1
    15    23    22    1
    16    20    21    1
    17     1     2    2
    18     1     6    1
    19     7     6    2
    20     6     8   am
    21    22    21    1
    22     8     9    1
    23     8    10    1
    24    10    11    1
    25    11    12    1
    26    12    13    1
    27    14    13    2
    28    14    15    1
    29    13    18    1
    30    15    16    2
    31    18    17    2
    32    16    17    1
