@<TRIPOS>MOLECULE
78738_out_ligand_01.pdbqt
 38 42 0 0 0
SMALL
GASTEIGER

@<TRIPOS>ATOM
      1  C         22.6740  -22.4240  -10.8240 C.3     1  UNL1        0.1480
      2  C         21.3010  -21.9020  -11.1420 C.2     1  UNL1       -0.0260
      3  C         20.8910  -21.2640  -12.3060 C.2     1  UNL1        0.0100
      4  C         19.5530  -20.8900  -12.4280 C.2     1  UNL1        0.0010
      5  C         18.6420  -21.1710  -11.4020 C.2     1  UNL1        0.0010
      6  C         19.0570  -21.8290  -10.2400 C.2     1  UNL1        0.0090
      7  C         20.3930  -22.1840  -10.1070 C.2     1  UNL1       -0.0380
      8  C         21.0700  -22.9530   -8.9790 C.3     1  UNL1        0.0190
      9  C         20.7970  -24.4740   -9.1390 C.3     1  UNL1        0.0470
     10  C         19.9700  -25.0730   -7.9970 C.3     1  UNL1        0.2740
     11  N         18.8690  -24.1730   -7.6630 N.3     1  UNL1        0.0920
     12  C         19.3570  -22.9450   -7.0300 C.3     1  UNL1        0.2740
     13  C         20.7150  -22.4670   -7.5600 C.3     1  UNL1        0.0470
     14  C         22.5610  -22.5690   -9.2810 C.3     1  UNL1        0.1580
     15  O         23.4960  -23.5090   -8.7570 O.3     1  UNL1       -0.3920
     16  H         23.9600  -23.0880   -8.0150 H       1  UNL1        0.2100
     17  N         23.7100  -21.4870  -11.2090 N.am    1  UNL1       -0.3480
     18  C         25.0480  -21.7910  -11.1210 C.2     1  UNL1        0.2420
     19  O         25.4830  -22.9170  -10.9010 O.2     1  UNL1       -0.2710
     20  H         23.4730  -20.5030  -11.2810 H       1  UNL1        0.1630
     21  C         25.9790  -20.6040  -11.3750 C.3     1  UNL1        0.2780
     22  O         26.8190  -20.8500  -12.5030 O.2     1  UNL1       -0.3420
     23  C         26.1960  -21.1210  -13.6900 C.2     1  UNL1        0.0690
     24  C         25.2570  -20.3100  -14.3290 C.2     1  UNL1        0.0370
     25  C         24.6970  -20.7110  -15.5460 C.2     1  UNL1        0.0030
     26  C         25.0710  -21.9210  -16.1280 C.2     1  UNL1        0.0000
     27  C         26.0070  -22.7330  -15.4930 C.2     1  UNL1        0.0030
     28  C         26.5670  -22.3330  -14.2780 C.2     1  UNL1        0.0370
     29  C         17.8220  -24.8050   -6.8510 C.3     1  UNL1        0.3170
     30  C         16.8200  -23.8110   -6.3290 C.2     1  UNL1        0.0500
     31  C         15.8900  -23.2060   -7.1770 C.2     1  UNL1        0.1270
     32  F         15.8700  -23.5200   -8.4790 F       1  UNL1       -0.2050
     33  C         14.9690  -22.2690   -6.7030 C.2     1  UNL1        0.0460
     34  C         14.9690  -21.9230   -5.3540 C.2     1  UNL1        0.0480
     35  C         15.8870  -22.5220   -4.4970 C.2     1  UNL1        0.1550
     36  F         15.8780  -22.1950   -3.1970 F       1  UNL1       -0.2030
     37  C         16.8020  -23.4570   -4.9770 C.2     1  UNL1        0.1650
     38  F         17.6620  -24.0310   -4.1220 F       1  UNL1       -0.2020
@<TRIPOS>BOND
     1    26    25    2
     2    26    27    1
     3    25    24    1
     4    27    28    2
     5    24    23    2
     6    28    23    1
     7    23    22    1
     8    22    21    1
     9     4     3    1
    10     4     5    2
    11     3     2    2
    12     5     6    1
    13    21    18    1
    14    20    17    1
    15    17    18   am
    16    17     1    1
    17     2     1    1
    18     2     7    1
    19    18    19    2
    20     1    14    1
    21     6     7    2
    22     7     8    1
    23    14     8    1
    24    14    15    1
    25     9     8    1
    26     9    10    1
    27     8    13    1
    28    15    16    1
    29    32    31    1
    30    10    11    1
    31    11    12    1
    32    11    29    1
    33    13    12    1
    34    31    33    1
    35    31    30    2
    36    29    30    1
    37    33    34    2
    38    30    37    1
    39    34    35    1
    40    37    35    2
    41    37    38    1
    42    35    36    1
