@<TRIPOS>MOLECULE
78735_out_ligand_01.pdbqt
 33 37 0 0 0
SMALL
GASTEIGER

@<TRIPOS>ATOM
      1  C         17.6530  -22.0860  -10.3320 C.ar    1  UNL1        0.1480
      2  N         17.1810  -21.1140  -11.0870 N.ar    1  UNL1       -0.1330
      3  N         18.1970  -20.6530  -11.8780 N.ar    1  UNL1       -0.1350
      4  C         19.2860  -21.3420  -11.5990 C.ar    1  UNL1        0.1320
      5  N         18.9870  -22.2580  -10.6190 N.ar    1  UNL1       -0.3170
      6  C         19.8750  -23.2710  -10.1040 C.3     1  UNL1        0.1620
      7  C         21.1790  -22.7410   -9.4880 C.3     1  UNL1        0.2930
      8  N         21.9310  -21.7230  -10.2420 N.3     1  UNL1        0.0940
      9  C         21.8160  -21.8860  -11.6960 C.3     1  UNL1        0.2800
     10  C         20.6100  -21.1260  -12.2570 C.3     1  UNL1        0.1110
     11  C         16.8510  -22.8860   -9.3680 C.3     1  UNL1        0.2030
     12  N         17.1460  -22.4210   -8.0330 N.am    1  UNL1       -0.3500
     13  C         17.7170  -23.2100   -7.0660 C.2     1  UNL1        0.2540
     14  O         18.1390  -24.3370   -7.3070 O.2     1  UNL1       -0.2680
     15  H         16.6850  -21.5650   -7.7350 H       1  UNL1        0.1630
     16  C         17.8160  -22.6450   -5.6790 C.2     1  UNL1        0.0650
     17  C         18.6770  -21.5430   -5.5200 C.2     1  UNL1        0.0200
     18  C         18.8460  -20.9380   -4.2750 C.2     1  UNL1        0.0010
     19  C         18.1550  -21.4280   -3.1730 C.2     1  UNL1        0.0030
     20  C         17.3020  -22.5260   -3.3100 C.2     1  UNL1        0.0380
     21  C         17.1270  -23.1510   -4.5550 C.2     1  UNL1        0.0840
     22  O         16.3060  -24.2330   -4.7430 O.2     1  UNL1       -0.3550
     23  C         14.9010  -24.0040   -4.8220 C.3     1  UNL1        0.2100
     24  C         23.3250  -21.6580   -9.7730 C.3     1  UNL1        0.3110
     25  C         24.3330  -21.9690  -10.8620 C.2     1  UNL1       -0.0270
     26  C         25.3810  -21.0610  -11.1470 C.2     1  UNL1        0.0120
     27  C         26.3270  -21.3350  -12.1400 C.2     1  UNL1        0.0400
     28  C         26.2060  -22.5230  -12.8260 C.2     1  UNL1        0.1050
     29  C         25.1970  -23.4160  -12.5530 C.2     1  UNL1        0.1050
     30  O         27.0280  -22.9550  -13.8180 O.2     1  UNL1       -0.3230
     31  C         24.2500  -23.1730  -11.5800 C.2     1  UNL1        0.0480
     32  O         25.2590  -24.5230  -13.3410 O.2     1  UNL1       -0.3230
     33  C         26.4190  -24.2210  -14.1430 C.3     1  UNL1        0.3520
@<TRIPOS>BOND
     1    33    30    1
     2    33    32    1
     3    30    28    1
     4    32    29    1
     5    28    29    2
     6    28    27    1
     7    29    31    1
     8    10     9    1
     9    10     4    1
    10    27    26    2
    11     3     4   ar
    12     3     2   ar
    13     9     8    1
    14     4     5   ar
    15    31    25    2
    16    26    25    1
    17     2     1   ar
    18    25    24    1
    19     5     1   ar
    20     5     6    1
    21     1    11    1
    22     8    24    1
    23     8     7    1
    24     6     7    1
    25    11    12    1
    26    12    15    1
    27    12    13   am
    28    14    13    2
    29    13    16    1
    30    16    17    2
    31    16    21    1
    32    17    18    1
    33    23    22    1
    34    22    21    1
    35    21    20    2
    36    18    19    2
    37    20    19    1
