@<TRIPOS>MOLECULE
78744_out_ligand_01.pdbqt
 33 37 0 0 0
SMALL
GASTEIGER

@<TRIPOS>ATOM
      1  C         17.5750  -22.1850  -10.2820 C.ar    1  UNL1        0.1480
      2  N         17.0230  -21.4190  -11.2010 N.ar    1  UNL1       -0.1330
      3  N         18.0170  -20.7200  -11.8290 N.ar    1  UNL1       -0.1350
      4  C         19.1720  -21.0650  -11.2930 C.ar    1  UNL1        0.1320
      5  N         18.9340  -21.9870  -10.3020 N.ar    1  UNL1       -0.3170
      6  C         19.9160  -22.5280   -9.3940 C.3     1  UNL1        0.1620
      7  C         21.0820  -23.2710  -10.0660 C.3     1  UNL1        0.2930
      8  N         21.7550  -22.6110  -11.2000 N.3     1  UNL1        0.0940
      9  C         21.7550  -21.1450  -11.1010 C.3     1  UNL1        0.2800
     10  C         20.4970  -20.5310  -11.7280 C.3     1  UNL1        0.1110
     11  C         16.8370  -23.0840   -9.3550 C.3     1  UNL1        0.2030
     12  N         17.0260  -22.6080   -8.0050 N.am    1  UNL1       -0.3500
     13  C         17.6300  -23.3410   -7.0140 C.2     1  UNL1        0.2540
     14  O         18.0020  -24.4990   -7.1900 O.2     1  UNL1       -0.2680
     15  H         16.8420  -21.6240   -7.8300 H       1  UNL1        0.1630
     16  C         17.8320  -22.6790   -5.6820 C.2     1  UNL1        0.0650
     17  C         18.6730  -21.5500   -5.6720 C.2     1  UNL1        0.0200
     18  C         18.9330  -20.8570   -4.4890 C.2     1  UNL1        0.0010
     19  C         18.3530  -21.2830   -3.3010 C.2     1  UNL1        0.0030
     20  C         17.5110  -22.3990   -3.2920 C.2     1  UNL1        0.0380
     21  C         17.2360  -23.1050   -4.4740 C.2     1  UNL1        0.0840
     22  O         16.4080  -24.1980   -4.5230 O.2     1  UNL1       -0.3550
     23  C         15.0010  -23.9750   -4.5450 C.3     1  UNL1        0.2100
     24  C         23.1000  -23.1780  -11.3970 C.3     1  UNL1        0.3110
     25  C         24.1390  -22.1430  -11.7790 C.2     1  UNL1       -0.0290
     26  C         25.0440  -21.6500  -10.8090 C.2     1  UNL1        0.0120
     27  C         25.9900  -20.6760  -11.1360 C.2     1  UNL1        0.0380
     28  C         26.0210  -20.2170  -12.4340 C.2     1  UNL1        0.0750
     29  C         25.1420  -20.6840  -13.3970 C.2     1  UNL1       -0.0220
     30  O         26.8860  -19.2590  -12.8960 O.2     1  UNL1       -0.3500
     31  C         24.1870  -21.6380  -13.0890 C.2     1  UNL1        0.0190
     32  C         25.3760  -19.9560  -14.6630 C.3     1  UNL1        0.0680
     33  C         26.7300  -19.3250  -14.3320 C.3     1  UNL1        0.1800
@<TRIPOS>BOND
     1    32    33    1
     2    32    29    1
     3    33    30    1
     4    29    31    1
     5    29    28    2
     6    31    25    2
     7    30    28    1
     8    28    27    1
     9     3     4   ar
    10     3     2   ar
    11    25    24    1
    12    25    26    1
    13    10     4    1
    14    10     9    1
    15    24     8    1
    16     4     5   ar
    17     2     1   ar
    18     8     9    1
    19     8     7    1
    20    27    26    2
    21     5     1   ar
    22     5     6    1
    23     1    11    1
    24     7     6    1
    25    11    12    1
    26    12    15    1
    27    12    13   am
    28    14    13    2
    29    13    16    1
    30    16    17    2
    31    16    21    1
    32    17    18    1
    33    23    22    1
    34    22    21    1
    35    18    19    2
    36    21    20    2
    37    19    20    1
