@<TRIPOS>MOLECULE
7875_out_ligand_01.pdbqt
 37 40 0 0 0
SMALL
GASTEIGER

@<TRIPOS>ATOM
      1  C         21.1790  -21.7860  -11.6000 C.2     1  UNL1        0.0330
      2  C         20.0180  -21.4520  -12.3030 C.2     1  UNL1        0.0190
      3  C         18.7670  -21.5590  -11.6860 C.2     1  UNL1        0.0260
      4  C         18.6650  -21.9960  -10.3600 C.2     1  UNL1        0.0570
      5 CL         17.0660  -22.1210   -9.7090 Cl      1  UNL1       -0.0830
      6  C         19.8300  -22.2990   -9.6460 C.2     1  UNL1        0.0970
      7  C         21.0880  -22.1930  -10.2650 C.2     1  UNL1        0.0430
      8  C         22.4780  -21.7310  -12.3200 C.2     1  UNL1        0.2520
      9  N         23.5010  -22.4490  -11.7520 N.am    1  UNL1       -0.3480
     10  H         23.3330  -23.0150  -10.9330 H       1  UNL1        0.1630
     11  O         22.5690  -21.1290  -13.3830 O.2     1  UNL1       -0.2680
     12  C         24.7780  -22.6600  -12.4240 C.3     1  UNL1        0.1230
     13  C         24.5260  -23.0970  -13.8670 C.3     1  UNL1        0.0680
     14  C         25.7900  -22.9420  -14.7350 C.3     1  UNL1        0.0690
     15  O         26.2060  -21.5590  -14.7470 O.2     1  UNL1       -0.3400
     16  C         26.2420  -20.9210  -13.5370 C.2     1  UNL1        0.0780
     17  C         26.9750  -19.7330  -13.5040 C.2     1  UNL1        0.0370
     18  C         25.6040  -21.3950  -12.3860 C.2     1  UNL1       -0.0020
     19  C         27.1210  -19.0290  -12.3080 C.2     1  UNL1        0.0030
     20  C         26.5310  -19.5130  -11.1440 C.2     1  UNL1        0.0010
     21  C         25.7830  -20.6920  -11.1800 C.2     1  UNL1        0.0120
     22  C         26.9590  -23.8420  -14.2240 C.3     1  UNL1        0.0340
     23  C         26.9810  -25.2560  -14.8020 C.3     1  UNL1        0.0080
     24  C         25.4830  -23.3090  -16.2150 C.3     1  UNL1        0.0340
     25  C         25.7750  -22.2120  -17.2390 C.3     1  UNL1        0.0080
     26  S         19.7720  -22.8700   -7.9660 S.O2    1  UNL1        0.2470
     27  O         19.6010  -24.3070   -8.0140 O.2     1  UNL1       -0.2050
     28  O         20.8890  -22.2620   -7.2760 O.2     1  UNL1       -0.2050
     29  N         18.3230  -22.1770   -7.3920 N.pl3   1  UNL1       -0.1810
     30  H         17.5660  -22.6920   -7.8570 H       1  UNL1        0.1460
     31  C         18.1490  -22.2640   -5.9680 C.2     1  UNL1        0.0280
     32  C         18.7110  -21.2810   -5.1450 C.2     1  UNL1        0.0250
     33  C         18.5750  -21.3670   -3.7610 C.2     1  UNL1        0.0020
     34  C         17.8690  -22.4280   -3.1990 C.2     1  UNL1        0.0010
     35  C         17.2870  -23.3950   -4.0200 C.2     1  UNL1        0.0080
     36  C         17.4240  -23.3270   -5.4180 C.2     1  UNL1       -0.0400
     37  C         16.7620  -24.3680   -6.2760 C.3     1  UNL1        0.0500
@<TRIPOS>BOND
     1    25    24    1
     2    24    14    1
     3    23    22    1
     4    15    14    1
     5    15    16    1
     6    14    22    1
     7    14    13    1
     8    13    12    1
     9    16    17    2
    10    16    18    1
    11    17    19    1
    12    11     8    2
    13    12    18    1
    14    12     9    1
    15    18    21    2
    16     8     9   am
    17     8     1    1
    18    19    20    2
    19     2     3    1
    20     2     1    2
    21     9    10    1
    22     3     4    2
    23     1     7    1
    24    21    20    1
    25     4     5    1
    26     4     6    1
    27     7     6    2
    28     6    26    1
    29    27    26    2
    30    26    29    1
    31    26    28    2
    32    30    29    1
    33    29    31    1
    34    37    36    1
    35    31    36    2
    36    31    32    1
    37    36    35    1
    38    32    33    2
    39    35    34    2
    40    33    34    1
