@<TRIPOS>MOLECULE
78758_out_ligand_01.pdbqt
 35 38 0 0 0
SMALL
GASTEIGER

@<TRIPOS>ATOM
      1  C         19.6810  -21.8780  -10.7140 C.2     1  UNL1        0.0390
      2  C         19.1160  -21.0880  -11.7370 C.2     1  UNL1        0.0180
      3  C         17.7400  -20.8660  -11.8110 C.2     1  UNL1        0.0010
      4  C         16.8950  -21.4320  -10.8620 C.2     1  UNL1        0.0020
      5  C         17.4280  -22.2200   -9.8430 C.2     1  UNL1        0.0250
      6  C         18.8110  -22.4390   -9.7570 C.2     1  UNL1        0.0370
      7  C         21.1360  -22.0570  -10.7140 C.ar    1  UNL1        0.1820
      8  O         21.6740  -22.8580   -9.7400 O.2     1  UNL1       -0.2940
      9  C         23.0120  -22.8730  -10.0040 C.ar    1  UNL1        0.0780
     10  C         23.8600  -23.7010   -9.1260 C.3     1  UNL1        0.0790
     11  C         23.2390  -22.0650  -11.0940 C.ar    1  UNL1        0.0840
     12  N         22.0380  -21.5290  -11.5240 N.ar    1  UNL1       -0.2240
     13  C         24.5150  -21.7160  -11.7670 C.3     1  UNL1        0.1850
     14  N         24.4080  -22.1150  -13.1500 N.am    1  UNL1       -0.3500
     15  C         24.5900  -21.1990  -14.1630 C.2     1  UNL1        0.2720
     16  O         24.6970  -19.9910  -13.9830 O.2     1  UNL1       -0.2660
     17  H         24.5570  -23.1030  -13.3430 H       1  UNL1        0.1630
     18  C         24.6420  -21.7810  -15.5230 C.2     1  UNL1        0.1410
     19  C         24.8320  -23.1450  -15.6710 C.2     1  UNL1        0.1530
     20  N         24.9400  -23.7300  -16.8910 N.2     1  UNL1       -0.2690
     21  C         24.8360  -22.8820  -17.9460 C.2     1  UNL1        0.1350
     22  C         24.6460  -21.5170  -17.7910 C.2     1  UNL1        0.1360
     23  N         24.5520  -20.9290  -16.5780 N.2     1  UNL1       -0.2530
     24  N         19.2720  -23.2970   -8.7030 N.pl3   1  UNL1       -0.1800
     25  H         19.8060  -24.1150   -9.0140 H       1  UNL1        0.1460
     26  S         18.1060  -23.8430   -7.5940 S.O2    1  UNL1        0.2460
     27  O         16.7820  -23.6610   -8.1490 O.2     1  UNL1       -0.2060
     28  O         18.5610  -25.1390   -7.1360 O.2     1  UNL1       -0.2060
     29  C         18.3120  -22.7180   -6.2380 C.2     1  UNL1        0.0770
     30  C         17.5800  -22.9210   -5.0600 C.2     1  UNL1        0.0250
     31  C         17.7220  -22.0270   -3.9980 C.2     1  UNL1        0.0050
     32  C         18.5840  -20.9360   -4.1210 C.2     1  UNL1        0.0420
     33  C         19.2960  -20.7450   -5.3040 C.2     1  UNL1        0.1170
     34  F         20.1140  -19.6920   -5.4150 F       1  UNL1       -0.2060
     35  C         19.1680  -21.6240   -6.3710 C.2     1  UNL1        0.0670
@<TRIPOS>BOND
     1    21    22    2
     2    21    20    1
     3    22    23    1
     4    20    19    2
     5    23    18    2
     6    19    18    1
     7    18    15    1
     8    15    16    2
     9    15    14   am
    10    17    14    1
    11    14    13    1
    12     3     2    1
    13     3     4    2
    14    13    11    1
    15     2     1    2
    16    12    11   ar
    17    12     7   ar
    18    11     9   ar
    19     4     5    1
    20     7     1    1
    21     7     8   ar
    22     1     6    1
    23     9     8   ar
    24     9    10    1
    25     5     6    2
    26     6    24    1
    27    25    24    1
    28    24    26    1
    29    27    26    2
    30    26    28    2
    31    26    29    1
    32    35    29    2
    33    35    33    1
    34    29    30    1
    35    34    33    1
    36    33    32    2
    37    30    31    2
    38    32    31    1
