@<TRIPOS>MOLECULE
7878_out_ligand_01.pdbqt
 36 39 0 0 0
SMALL
GASTEIGER

@<TRIPOS>ATOM
      1  C         23.3340  -22.4840  -11.6090 C.2     1  UNL1        0.0290
      2  C         22.5270  -21.8050  -12.5320 C.2     1  UNL1        0.0250
      3  C         21.2170  -21.4570  -12.2160 C.2     1  UNL1        0.0030
      4  C         20.7040  -21.7930  -10.9690 C.2     1  UNL1        0.0170
      5  C         21.4990  -22.4870  -10.0410 C.2     1  UNL1        0.0390
      6  C         22.8290  -22.8580  -10.3490 C.2     1  UNL1       -0.0240
      7  C         23.6620  -23.5910   -9.3320 C.3     1  UNL1        0.0510
      8  C         20.8950  -22.8030   -8.7170 C.2     1  UNL1        0.2520
      9  O         21.3020  -22.2690   -7.6940 O.2     1  UNL1       -0.2680
     10  N         19.8770  -23.7320   -8.7520 N.am    1  UNL1       -0.3560
     11  H         19.7810  -24.2900   -9.5950 H       1  UNL1        0.1620
     12  C         19.3130  -24.2820   -7.5310 C.3     1  UNL1        0.1370
     13  C         17.9610  -23.6090   -7.1330 C.3     1  UNL1        0.0070
     14  C         17.5180  -22.6660   -8.2750 C.3     1  UNL1        0.0420
     15  C         16.1180  -22.0930   -8.0410 C.3     1  UNL1        0.1680
     16  O         15.2790  -22.9370   -7.2530 O.3     1  UNL1       -0.3910
     17  C         15.4990  -24.3180   -7.4930 C.3     1  UNL1        0.1680
     18  C         16.8970  -24.7490   -7.0460 C.3     1  UNL1        0.0420
     19  C         18.1440  -22.7700   -5.8430 C.2     1  UNL1       -0.0480
     20  C         17.6710  -23.2550   -4.6060 C.2     1  UNL1        0.0080
     21  C         17.8110  -22.5170   -3.4280 C.2     1  UNL1        0.0010
     22  C         18.4390  -21.2770   -3.4530 C.2     1  UNL1        0.0000
     23  C         18.9360  -20.7850   -4.6540 C.2     1  UNL1        0.0010
     24  C         18.7950  -21.5240   -5.8320 C.2     1  UNL1        0.0080
     25  N         24.6620  -22.8240  -12.0420 N.pl3   1  UNL1       -0.1810
     26  H         24.7060  -23.0310  -13.0400 H       1  UNL1        0.1460
     27  S         25.8470  -21.6500  -11.6740 S.O2    1  UNL1        0.2450
     28  O         25.2540  -20.7290  -10.7270 O.2     1  UNL1       -0.2060
     29  O         27.1200  -22.2910  -11.4260 O.2     1  UNL1       -0.2060
     30  C         25.9710  -20.8210  -13.2400 C.2     1  UNL1        0.0740
     31  C         25.7530  -21.5510  -14.4110 C.2     1  UNL1        0.0250
     32  C         25.8560  -20.9140  -15.6490 C.2     1  UNL1        0.0080
     33  C         26.1850  -19.5530  -15.7200 C.2     1  UNL1       -0.0620
     34  C         26.2960  -18.8570  -17.0450 C.3     1  UNL1        0.0480
     35  C         26.4090  -18.8360  -14.5350 C.2     1  UNL1        0.0080
     36  C         26.3080  -19.4670  -13.2940 C.2     1  UNL1        0.0250
@<TRIPOS>BOND
     1    34    33    1
     2    33    32    2
     3    33    35    1
     4    32    31    1
     5    35    36    2
     6    31    30    2
     7    36    30    1
     8    30    27    1
     9    26    25    1
    10     2     3    1
    11     2     1    2
    12     3     4    2
    13    25    27    1
    14    25     1    1
    15    27    29    2
    16    27    28    2
    17     1     6    1
    18     4     5    1
    19     6     5    2
    20     6     7    1
    21     5     8    1
    22    11    10    1
    23    10     8   am
    24    10    12    1
    25     8     9    2
    26    14    15    1
    27    14    13    1
    28    15    16    1
    29    12    13    1
    30    17    16    1
    31    17    18    1
    32    13    18    1
    33    13    19    1
    34    19    24    2
    35    19    20    1
    36    24    23    1
    37    23    22    2
    38    20    21    2
    39    22    21    1
