@<TRIPOS>MOLECULE
787_out_ligand_01.pdbqt
 33 37 0 0 0
SMALL
GASTEIGER

@<TRIPOS>ATOM
      1  C         17.5790  -21.0350  -11.4500 C.3     1  UNL1        0.0490
      2  C         19.0030  -21.4290  -11.1760 C.2     1  UNL1       -0.0460
      3  C         20.0120  -21.0200  -12.0630 C.2     1  UNL1        0.0090
      4  C         21.3490  -21.3490  -11.8250 C.2     1  UNL1        0.0250
      5  C         21.6880  -22.0920  -10.6930 C.2     1  UNL1        0.0750
      6  C         20.7020  -22.5350   -9.8110 C.2     1  UNL1        0.0420
      7  C         19.3650  -22.2100  -10.0620 C.2     1  UNL1        0.0390
      8  C         18.3660  -22.7060   -9.0920 C.2     1  UNL1        0.2520
      9  O         17.4540  -23.4180   -9.4900 O.2     1  UNL1       -0.2680
     10  N         18.5520  -22.2630   -7.8030 N.am    1  UNL1       -0.3480
     11  H         19.2980  -21.6000   -7.6400 H       1  UNL1        0.1630
     12  C         17.6780  -22.5960   -6.6750 C.3     1  UNL1        0.0340
     13  C         18.1220  -21.8840   -5.3730 C.3     1  UNL1        0.0350
     14  C         17.2120  -22.2870   -4.1980 C.3     1  UNL1       -0.0120
     15  C         17.3010  -23.8080   -3.9870 C.3     1  UNL1        0.0090
     16  C         15.7580  -21.9060   -4.5290 C.3     1  UNL1        0.0090
     17  C         16.8460  -24.5430   -5.2590 C.3     1  UNL1       -0.0120
     18  C         15.3950  -24.1550   -5.5800 C.3     1  UNL1        0.0090
     19  C         17.7500  -24.1290   -6.4320 C.3     1  UNL1        0.0350
     20  C         15.2940  -22.6360   -5.8010 C.3     1  UNL1       -0.0120
     21  C         16.2030  -22.2310   -6.9760 C.3     1  UNL1        0.0350
     22  S         23.3830  -22.5290  -10.3930 S.O2    1  UNL1        0.2450
     23  O         24.1500  -21.3010  -10.3660 O.2     1  UNL1       -0.2060
     24  O         23.4080  -23.4690   -9.2960 O.2     1  UNL1       -0.2060
     25  N         23.7590  -23.3330  -11.8500 N.pl3   1  UNL1       -0.1810
     26  H         22.8790  -23.5500  -12.3210 H       1  UNL1        0.1460
     27  C         24.6350  -22.5920  -12.7080 C.2     1  UNL1        0.0230
     28  C         26.0190  -22.7500  -12.6030 C.2     1  UNL1        0.0270
     29  C         26.8610  -22.0560  -13.4730 C.2     1  UNL1        0.0440
     30  C         26.3120  -21.2260  -14.4460 C.2     1  UNL1        0.1160
     31  F         27.1210  -20.5670  -15.2840 F       1  UNL1       -0.2060
     32  C         24.9340  -21.0820  -14.5690 C.2     1  UNL1        0.0440
     33  C         24.0900  -21.7730  -13.7000 C.2     1  UNL1        0.0270
@<TRIPOS>BOND
     1    31    30    1
     2    32    30    2
     3    32    33    1
     4    30    29    1
     5    33    27    2
     6    29    28    2
     7    27    28    1
     8    27    25    1
     9    26    25    1
    10     3     4    1
    11     3     2    2
    12    25    22    1
    13     4     5    2
    14     1     2    1
    15     2     7    1
    16     5    22    1
    17     5     6    1
    18    22    23    2
    19    22    24    2
    20     7     6    2
    21     7     8    1
    22     9     8    2
    23     8    10   am
    24    10    11    1
    25    10    12    1
    26    21    12    1
    27    21    20    1
    28    12    19    1
    29    12    13    1
    30    19    17    1
    31    20    18    1
    32    20    16    1
    33    18    17    1
    34    13    14    1
    35    17    15    1
    36    16    14    1
    37    14    15    1
