@<TRIPOS>MOLECULE
78806_out_ligand_01.pdbqt
 29 32 0 0 0
SMALL
GASTEIGER

@<TRIPOS>ATOM
      1  C         22.8780  -22.1820  -12.2590 C.2     1  UNL1       -0.0300
      2  C         22.9110  -22.9070  -11.0570 C.2     1  UNL1        0.0100
      3  C         21.7830  -22.9770  -10.2350 C.2     1  UNL1        0.0170
      4  C         20.6040  -22.3150  -10.5970 C.2     1  UNL1        0.0320
      5  C         20.5600  -21.5950  -11.8000 C.2     1  UNL1        0.0170
      6  C         21.6930  -21.5220  -12.6160 C.2     1  UNL1        0.0100
      7  C         19.4200  -22.4380   -9.6960 C.2     1  UNL1        0.2560
      8  O         18.3330  -22.0600  -10.1180 O.2     1  UNL1       -0.2670
      9  N         19.6760  -23.0110   -8.4620 N.am    1  UNL1       -0.3220
     10  H         20.5920  -23.4080   -8.3230 H       1  UNL1        0.1690
     11  C         18.7670  -23.2010   -7.4000 C.2     1  UNL1        0.0410
     12  C         17.7960  -24.2060   -7.3770 C.2     1  UNL1        0.0300
     13  C         16.9250  -24.3530   -6.2820 C.2     1  UNL1        0.0030
     14  C         17.0010  -23.4920   -5.1900 C.2     1  UNL1        0.0080
     15  C         17.9440  -22.4810   -5.2210 C.2     1  UNL1       -0.0500
     16  C         18.8180  -22.3320   -6.3100 C.2     1  UNL1       -0.0250
     17  C         18.2180  -21.4620   -4.1570 C.3     1  UNL1        0.0390
     18  C         19.7530  -21.1850   -6.0570 C.3     1  UNL1        0.0420
     19  C         19.0220  -20.4230   -4.9420 C.3     1  UNL1        0.0090
     20  C         24.1010  -22.1300  -13.1550 C.3     1  UNL1        0.3110
     21  N         24.7510  -20.8200  -13.3070 N.3     1  UNL1        0.0960
     22  C         25.9690  -20.6930  -12.5130 C.3     1  UNL1        0.3100
     23  C         24.9570  -20.4440  -14.7160 C.3     1  UNL1        0.3600
     24  C         25.1020  -21.6070  -15.6390 C.ar    1  UNL1        0.1970
     25  N         26.1280  -22.4120  -15.8310 N.ar    1  UNL1       -0.1250
     26  N         25.7440  -23.3040  -16.8120 N.ar    1  UNL1       -0.1270
     27  C         24.5160  -22.9750  -17.1530 C.ar    1  UNL1        0.1650
     28  C         23.6260  -23.5840  -18.1530 C.3     1  UNL1        0.1020
     29  O         24.0380  -21.8970  -16.4610 O.2     1  UNL1       -0.2760
@<TRIPOS>BOND
     1    28    27    1
     2    27    26   ar
     3    27    29   ar
     4    26    25   ar
     5    29    24   ar
     6    25    24   ar
     7    24    23    1
     8    23    21    1
     9    21    20    1
    10    21    22    1
    11    20     1    1
    12     6     1    2
    13     6     5    1
    14     1     2    1
    15     5     4    2
    16     2     3    2
    17     4     3    1
    18     4     7    1
    19     8     7    2
    20     7     9   am
    21     9    10    1
    22     9    11    1
    23    11    12    2
    24    11    16    1
    25    12    13    1
    26    16    18    1
    27    16    15    2
    28    13    14    2
    29    18    19    1
    30    15    14    1
    31    15    17    1
    32    19    17    1
