@<TRIPOS>MOLECULE
78810_out_ligand_01.pdbqt
 29 32 0 0 0
SMALL
GASTEIGER

@<TRIPOS>ATOM
      1  C         22.7260  -22.7930  -10.6170 C.2     1  UNL1        0.1580
      2  C         22.2990  -23.5550   -9.5500 C.2     1  UNL1        0.1470
      3  N         20.9400  -23.4730   -9.6080 N.pl3   1  UNL1       -0.2780
      4  N         20.5360  -22.7490  -10.6690 N.2     1  UNL1        0.0050
      5  N         21.6240  -22.3120  -11.2880 N.2     1  UNL1       -0.1530
      6  C         24.0960  -22.4940  -11.0060 C.2     1  UNL1        0.2730
      7  N         24.6880  -23.5040  -11.7310 N.am    1  UNL1       -0.3470
      8  H         24.0720  -24.2560  -12.0220 H       1  UNL1        0.1630
      9  O         24.6490  -21.4360  -10.7220 O.2     1  UNL1       -0.2660
     10  C         25.9170  -23.3030  -12.4710 C.3     1  UNL1        0.1170
     11  C         27.0460  -24.1270  -11.8580 C.3     1  UNL1        0.0370
     12  C         25.6310  -23.6490  -13.9030 C.2     1  UNL1        0.0070
     13  C         24.9000  -22.9200  -14.8330 C.2     1  UNL1        0.0360
     14  C         24.2150  -21.6060  -14.7210 C.3     1  UNL1        0.0700
     15  N         24.8850  -23.6760  -15.9770 N.pl3   1  UNL1       -0.2780
     16  N         25.5630  -24.8300  -15.8650 N.2     1  UNL1       -0.1840
     17  C         24.2380  -23.3610  -17.2290 C.3     1  UNL1        0.1790
     18  C         26.0060  -24.8160  -14.6100 C.2     1  UNL1        0.1500
     19  C         19.9660  -24.1000   -8.7240 C.3     1  UNL1        0.1850
     20  C         19.4380  -23.1870   -7.6290 C.2     1  UNL1       -0.0280
     21  C         20.2400  -22.1430   -7.1280 C.2     1  UNL1        0.0100
     22  C         19.7760  -21.2950   -6.1280 C.2     1  UNL1        0.0020
     23  C         18.4920  -21.4580   -5.6200 C.2     1  UNL1        0.0120
     24  C         17.6470  -22.4580   -6.1170 C.2     1  UNL1       -0.0250
     25  C         16.3450  -22.5820   -5.6050 C.2     1  UNL1        0.0120
     26  C         18.1020  -23.3320   -7.1400 C.2     1  UNL1       -0.0180
     27  C         15.4710  -23.5500   -6.0910 C.2     1  UNL1        0.0010
     28  C         15.8870  -24.4030   -7.1010 C.2     1  UNL1        0.0010
     29  C         17.1810  -24.2960   -7.6200 C.2     1  UNL1        0.0130
@<TRIPOS>BOND
     1    17    15    1
     2    15    16    1
     3    15    13    1
     4    16    18    2
     5    13    14    1
     6    13    12    2
     7    18    12    1
     8    12    10    1
     9    10    11    1
    10    10     7    1
    11     8     7    1
    12     7     6   am
    13     5     4    2
    14     5     1    1
    15     6     9    2
    16     6     1    1
    17     4     3    1
    18     1     2    2
    19     3     2    1
    20     3    19    1
    21    19    20    1
    22    20    26    2
    23    20    21    1
    24    29    26    1
    25    29    28    2
    26    26    24    1
    27    21    22    2
    28    28    27    1
    29    22    23    1
    30    24    23    2
    31    24    25    1
    32    27    25    2
