@<TRIPOS>MOLECULE
78811_out_ligand_01.pdbqt
 37 41 0 0 0
SMALL
GASTEIGER

@<TRIPOS>ATOM
      1  N         19.0730  -24.3060   -7.0290 N.3     1  UNL1        0.0920
      2  C         19.2050  -22.8570   -6.9040 C.3     1  UNL1        0.2740
      3  C         20.5180  -22.3410   -7.5000 C.3     1  UNL1        0.0470
      4  C         20.8330  -22.8590   -8.9170 C.3     1  UNL1        0.0190
      5  C         20.5650  -24.3800   -8.9860 C.3     1  UNL1        0.0470
      6  C         19.2010  -24.7650   -8.4110 C.3     1  UNL1        0.2740
      7  C         20.1320  -22.1360  -10.0620 C.2     1  UNL1       -0.0380
      8  C         18.7960  -21.7690  -10.1850 C.2     1  UNL1        0.0090
      9  C         18.3550  -21.1750  -11.3710 C.2     1  UNL1        0.0010
     10  C         19.2370  -20.9610  -12.4350 C.2     1  UNL1        0.0010
     11  C         20.5750  -21.3320  -12.3220 C.2     1  UNL1        0.0100
     12  C         21.0160  -21.8970  -11.1290 C.2     1  UNL1       -0.0260
     13  C         22.4030  -22.3780  -10.8110 C.3     1  UNL1        0.1480
     14  C         22.3230  -22.5120   -9.2630 C.3     1  UNL1        0.1580
     15  O         23.2370  -23.4850   -8.7600 O.3     1  UNL1       -0.3920
     16  H         22.7370  -24.3290   -8.6770 H       1  UNL1        0.2100
     17  N         23.4310  -21.4380  -11.2310 N.am    1  UNL1       -0.3460
     18  C         24.3520  -21.7750  -12.1960 C.2     1  UNL1        0.2520
     19  O         24.3910  -22.8870  -12.7110 O.2     1  UNL1       -0.2680
     20  H         23.3480  -20.4780  -10.9310 H       1  UNL1        0.1630
     21  C         25.3050  -20.7130  -12.6150 C.2     1  UNL1        0.0320
     22  C         26.1660  -20.1770  -11.6490 C.2     1  UNL1        0.0170
     23  C         27.0770  -19.1780  -11.9960 C.2     1  UNL1        0.0010
     24  C         27.1210  -18.7010  -13.3060 C.2     1  UNL1        0.0000
     25  C         26.2530  -19.2180  -14.2680 C.2     1  UNL1        0.0010
     26  C         25.3430  -20.2220  -13.9270 C.2     1  UNL1        0.0170
     27  C         17.8990  -24.8510   -6.3330 C.3     1  UNL1        0.3110
     28  C         16.7800  -23.8770   -6.0200 C.2     1  UNL1       -0.0270
     29  C         15.8550  -23.5120   -7.0080 C.2     1  UNL1        0.0120
     30  C         14.8130  -22.6200   -6.7250 C.2     1  UNL1        0.0400
     31  C         14.6760  -22.0770   -5.4460 C.2     1  UNL1        0.1010
     32  C         15.6040  -22.4390   -4.4610 C.2     1  UNL1        0.0990
     33  C         16.6480  -23.3230   -4.7390 C.2     1  UNL1        0.0480
     34  O         13.6920  -21.2030   -5.0620 O.2     1  UNL1       -0.3530
     35  C         12.8350  -20.6980   -6.0770 C.3     1  UNL1        0.2100
     36  O         15.4770  -21.9140   -3.2010 O.2     1  UNL1       -0.3580
     37  H         16.3580  -21.8390   -2.8020 H       1  UNL1        0.2170
@<TRIPOS>BOND
     1    25    26    1
     2    25    24    2
     3    26    21    2
     4    24    23    1
     5    19    18    2
     6    21    18    1
     7    21    22    1
     8    10    11    2
     9    10     9    1
    10    11    12    1
    11    18    17   am
    12    23    22    2
    13     9     8    2
    14    17    20    1
    15    17    13    1
    16    12    13    1
    17    12     7    2
    18    13    14    1
    19     8     7    1
    20     7     4    1
    21    14     4    1
    22    14    15    1
    23     5     4    1
    24     5     6    1
    25     4     3    1
    26    15    16    1
    27     6     1    1
    28     3     2    1
    29     1     2    1
    30     1    27    1
    31    29    30    1
    32    29    28    2
    33    30    31    2
    34    27    28    1
    35    35    34    1
    36    28    33    1
    37    31    34    1
    38    31    32    1
    39    33    32    2
    40    32    36    1
    41    36    37    1
