@<TRIPOS>MOLECULE
78823_out_ligand_01.pdbqt
 35 40 0 0 0
SMALL
GASTEIGER

@<TRIPOS>ATOM
      1  C         25.1560  -21.6620  -14.6380 C.ar    1  UNL1        0.1310
      2  N         24.1580  -21.5110  -15.4840 N.ar    1  UNL1       -0.1350
      3  N         22.9970  -21.3890  -14.7660 N.ar    1  UNL1       -0.1350
      4  C         23.2990  -21.4640  -13.4910 C.ar    1  UNL1        0.1320
      5  N         24.6530  -21.6420  -13.3620 N.ar    1  UNL1       -0.3190
      6  C         25.3670  -21.6880  -12.1090 C.3     1  UNL1        0.1620
      7  C         24.8770  -22.7770  -11.1450 C.3     1  UNL1        0.2930
      8  N         23.6080  -22.4410  -10.4790 N.3     1  UNL1        0.0940
      9  C         22.4420  -22.5250  -11.3760 C.3     1  UNL1        0.2800
     10  C         22.3580  -21.3420  -12.3500 C.3     1  UNL1        0.1110
     11  C         23.4110  -23.1730   -9.2120 C.3     1  UNL1        0.3110
     12  C         21.9920  -23.3100   -8.7030 C.2     1  UNL1       -0.0300
     13  C         21.2200  -24.4410   -9.0700 C.2     1  UNL1        0.0100
     14  C         19.9130  -24.6210   -8.6010 C.2     1  UNL1        0.0130
     15  C         19.3780  -23.6600   -7.7630 C.2     1  UNL1       -0.0190
     16  C         20.1400  -22.5280   -7.3960 C.2     1  UNL1       -0.0420
     17  C         18.0790  -23.5750   -7.1280 C.3     1  UNL1       -0.0190
     18  C         21.4380  -22.3430   -7.8510 C.2     1  UNL1        0.0170
     19  C         19.3370  -21.6300   -6.4760 C.2     1  UNL1        0.0780
     20  C         18.0270  -22.3850   -6.3660 C.2     1  UNL1       -0.0430
     21  C         16.8990  -22.0380   -5.6430 C.2     1  UNL1        0.0080
     22  C         15.8040  -22.9060   -5.6830 C.2     1  UNL1        0.0010
     23  C         15.8520  -24.0950   -6.4350 C.2     1  UNL1        0.0010
     24  C         16.9950  -24.4370   -7.1650 C.2     1  UNL1        0.0130
     25  C         26.5950  -21.7580  -15.0210 C.3     1  UNL1        0.1000
     26  C         26.8030  -21.3340  -16.4800 C.3     1  UNL1        0.1300
     27  N         27.0450  -19.9050  -16.6100 N.am    1  UNL1       -0.3560
     28  C         26.1880  -19.1160  -17.3530 C.2     1  UNL1        0.2530
     29  O         25.3090  -19.5910  -18.0640 O.2     1  UNL1       -0.2680
     30  H         27.5270  -19.4590  -15.8400 H       1  UNL1        0.1620
     31  C         26.3850  -17.6820  -17.2340 C.2     1  UNL1        0.0560
     32  C         26.9890  -16.9900  -16.1430 C.2     1  UNL1        0.0430
     33  C         26.9590  -15.6540  -16.4520 C.2     1  UNL1        0.1420
     34  O         26.3600  -15.4620  -17.6510 O.2     1  UNL1       -0.3340
     35  C         26.0170  -16.6880  -18.1200 C.2     1  UNL1        0.1580
@<TRIPOS>BOND
     1    35    34    1
     2    35    31    2
     3    29    28    2
     4    34    33    1
     5    28    31    1
     6    28    27   am
     7    31    32    1
     8    27    26    1
     9    27    30    1
    10    26    25    1
    11    33    32    2
    12     2     3   ar
    13     2     1   ar
    14    25     1    1
    15     3     4   ar
    16     1     5   ar
    17     4     5   ar
    18     4    10    1
    19     5     6    1
    20    10     9    1
    21     6     7    1
    22     9     8    1
    23     7     8    1
    24     8    11    1
    25    11    12    1
    26    13    12    2
    27    13    14    1
    28    12    18    1
    29    14    15    2
    30    18    16    2
    31    15    16    1
    32    15    17    1
    33    16    19    1
    34    24    17    1
    35    24    23    2
    36    17    20    1
    37    19    20    2
    38    23    22    1
    39    20    21    1
    40    22    21    2
