@<TRIPOS>MOLECULE
78834_out_ligand_01.pdbqt
 30 34 0 0 0
SMALL
GASTEIGER

@<TRIPOS>ATOM
      1  C         22.1630  -22.9320   -9.0530 C.2     1  UNL1        0.0340
      2  C         21.6540  -24.2200   -9.3080 C.2     1  UNL1        0.0200
      3  C         20.4610  -24.6640   -8.7210 C.2     1  UNL1        0.0410
      4  C         19.8250  -23.7530   -7.8860 C.ar    1  UNL1        0.1060
      5  O         18.6610  -23.9350   -7.1970 O.2     1  UNL1       -0.2890
      6  C         18.4760  -22.7440   -6.5370 C.ar    1  UNL1        0.1810
      7  N         19.4200  -21.8450   -6.7560 N.ar    1  UNL1       -0.2210
      8  C         20.2830  -22.4740   -7.6170 C.ar    1  UNL1        0.0940
      9  C         21.4720  -22.0380   -8.2120 C.2     1  UNL1        0.0510
     10  C         23.4270  -22.4510   -9.6760 C.2     1  UNL1        0.2520
     11  O         23.6970  -21.2570   -9.6800 O.2     1  UNL1       -0.2680
     12  N         24.2520  -23.4080  -10.2040 N.am    1  UNL1       -0.3510
     13  H         24.0720  -24.4020  -10.1260 H       1  UNL1        0.1630
     14  C         25.5200  -23.0660  -10.8060 C.3     1  UNL1        0.1830
     15  C         25.4360  -23.2560  -12.2910 C.2     1  UNL1        0.0740
     16  C         24.7570  -22.4240  -13.2170 C.2     1  UNL1        0.0570
     17  C         24.9920  -23.0010  -14.4380 C.2     1  UNL1        0.0340
     18  N         25.7490  -24.1090  -14.2060 N.pl3   1  UNL1       -0.2820
     19  N         26.0500  -24.2870  -12.9050 N.2     1  UNL1       -0.1780
     20  H         26.1010  -24.7760  -14.8850 H       1  UNL1        0.1890
     21  C         24.4780  -22.5010  -15.8060 C.3     1  UNL1        0.0370
     22  C         24.5850  -23.3980  -17.0110 C.3     1  UNL1        0.0110
     23  C         25.4890  -22.2060  -16.8840 C.3     1  UNL1        0.0110
     24  C         17.2920  -22.6370   -5.6900 C.2     1  UNL1        0.0200
     25  C         17.4170  -22.8120   -4.2990 C.2     1  UNL1        0.0160
     26  C         16.3030  -22.7230   -3.4590 C.2     1  UNL1        0.0040
     27  C         15.0490  -22.4540   -3.9990 C.2     1  UNL1        0.0420
     28  C         14.9210  -22.2780   -5.3720 C.2     1  UNL1        0.1170
     29  F         13.7140  -22.0160   -5.8910 F       1  UNL1       -0.2060
     30  C         16.0230  -22.3670   -6.2180 C.2     1  UNL1        0.0580
@<TRIPOS>BOND
     1    22    23    1
     2    22    21    1
     3    23    21    1
     4    21    17    1
     5    20    18    1
     6    17    18    1
     7    17    16    2
     8    18    19    1
     9    16    15    1
    10    19    15    2
    11    15    14    1
    12    14    12    1
    13    12    13    1
    14    12    10   am
    15    11    10    2
    16    10     1    1
    17     2     1    2
    18     2     3    1
    19     1     9    1
    20     3     4    2
    21     9     8    2
    22     4     8   ar
    23     4     5   ar
    24     8     7   ar
    25     5     6   ar
    26     7     6   ar
    27     6    24    1
    28    30    24    2
    29    30    28    1
    30    29    28    1
    31    24    25    1
    32    28    27    2
    33    25    26    2
    34    27    26    1
