@<TRIPOS>MOLECULE
78870_out_ligand_01.pdbqt
 34 39 0 0 0
SMALL
GASTEIGER

@<TRIPOS>ATOM
      1  C         23.2460  -22.5890  -10.1300 C.2     1  UNL1        0.0760
      2  C         23.1860  -23.6560   -9.2100 C.2     1  UNL1        0.1590
      3  N         21.9490  -23.9440   -8.8160 N.2     1  UNL1       -0.1640
      4  N         21.1700  -22.9810   -9.4080 N.pl3   1  UNL1       -0.0630
      5  C         21.9180  -22.2430  -10.3170 C.2     1  UNL1        0.0760
      6  C         19.7870  -22.8150   -9.0270 C.cat   1  UNL1        0.7500
      7  N         18.8550  -22.9840   -9.9840 N.2     1  UNL1       -0.0730
      8  C         17.5760  -22.9610   -9.5910 C.2     1  UNL1        0.1460
      9  C         17.1690  -22.7760   -8.2810 C.2     1  UNL1       -0.0100
     10  C         18.1760  -22.5630   -7.3550 C.2     1  UNL1        0.0940
     11  C         15.7230  -22.8910   -7.9280 C.3     1  UNL1        0.0430
     12  N         19.4860  -22.5790   -7.7310 N.2     1  UNL1       -0.0600
     13  C         17.9520  -22.2680   -5.9100 C.2     1  UNL1        0.0000
     14  C         18.8890  -21.4070   -5.2810 C.2     1  UNL1        0.0140
     15  C         16.8930  -22.7470   -5.1020 C.2     1  UNL1       -0.0460
     16  C         18.8170  -21.0370   -3.9350 C.2     1  UNL1        0.0010
     17  C         17.7880  -21.5250   -3.1530 C.2     1  UNL1        0.0010
     18  C         16.8420  -22.3670   -3.7300 C.2     1  UNL1        0.0080
     19  C         15.7430  -23.6430   -5.5150 C.3     1  UNL1        0.0400
     20  C         15.5580  -24.0570   -6.9670 C.3     1  UNL1        0.0090
     21  C         21.3650  -21.2300  -11.3700 C.3     1  UNL1        0.0390
     22  C         21.8480  -21.2670  -12.7980 C.3     1  UNL1        0.0110
     23  C         20.4900  -21.7900  -12.4670 C.3     1  UNL1        0.0110
     24  C         24.4290  -22.0010  -10.7300 C.2     1  UNL1        0.2550
     25  O         24.8840  -20.9130  -10.3950 O.2     1  UNL1       -0.2680
     26  N         24.9950  -22.7720  -11.7180 N.am    1  UNL1       -0.3510
     27  H         24.4080  -23.4640  -12.1700 H       1  UNL1        0.1630
     28  C         26.0710  -22.2340  -12.5220 C.3     1  UNL1        0.1820
     29  C         25.5770  -21.8690  -13.8980 C.2     1  UNL1        0.0540
     30  C         24.8890  -22.7860  -14.6720 C.2     1  UNL1        0.0480
     31  C         24.4520  -22.3390  -15.8990 C.2     1  UNL1        0.1200
     32  N         24.6610  -21.0900  -16.3530 N.2     1  UNL1       -0.2540
     33  C         25.3260  -20.2740  -15.5240 C.2     1  UNL1        0.2320
     34  N         25.7910  -20.5950  -14.3060 N.2     1  UNL1       -0.2450
@<TRIPOS>BOND
     1    32    31    2
     2    32    33    1
     3    31    30    1
     4    33    34    2
     5    30    29    2
     6    34    29    1
     7    29    28    1
     8    22    23    1
     9    22    21    1
    10    28    26    1
    11    23    21    1
    12    27    26    1
    13    26    24   am
    14    21     5    1
    15    24    25    2
    16    24     1    1
    17     5     1    2
    18     5     4    1
    19     1     2    1
    20     7     8    1
    21     7     6    2
    22     8     9    2
    23     4     6    1
    24     4     3    1
    25     2     3    2
    26     6    12    1
    27     9    11    1
    28     9    10    1
    29    11    20    1
    30    12    10    2
    31    10    13    1
    32    20    19    1
    33    13    14    2
    34    13    15    1
    35    19    15    1
    36    14    16    1
    37    15    18    2
    38    16    17    2
    39    18    17    1
