@<TRIPOS>MOLECULE
7887_out_ligand_01.pdbqt
 27 29 0 0 0
SMALL
GASTEIGER

@<TRIPOS>ATOM
      1  N         20.2270  -23.0640   -9.5400 N.am    1  UNL1       -0.3250
      2  C         20.1980  -24.2620   -8.8490 C.2     1  UNL1        0.2460
      3  O         20.9550  -25.2160   -9.0030 O.2     1  UNL1       -0.2710
      4  H         19.5530  -22.3720   -9.2250 H       1  UNL1        0.1690
      5  C         19.0540  -24.3270   -7.8280 C.3     1  UNL1        0.2780
      6  O         18.3030  -23.1280   -7.6950 O.2     1  UNL1       -0.3420
      7  C         18.3660  -22.4390   -6.5110 C.2     1  UNL1        0.0760
      8  C         19.3050  -21.4450   -6.2180 C.2     1  UNL1        0.0370
      9  C         19.2800  -20.7940   -4.9860 C.2     1  UNL1        0.0030
     10  C         18.3220  -21.1310   -4.0360 C.2     1  UNL1        0.0080
     11  C         17.3730  -22.1260   -4.3050 C.2     1  UNL1       -0.0490
     12  C         17.3770  -22.7700   -5.5600 C.2     1  UNL1       -0.0180
     13  C         16.3360  -22.4370   -3.2510 C.3     1  UNL1        0.0390
     14  C         16.3700  -23.8600   -5.8690 C.3     1  UNL1        0.0420
     15  C         15.1700  -23.8790   -4.9250 C.3     1  UNL1        0.0050
     16  C         15.6280  -23.7690   -3.4780 C.3     1  UNL1        0.0050
     17  C         21.1160  -22.6680  -10.5550 C.2     1  UNL1        0.0340
     18  C         20.6070  -21.8380  -11.5600 C.2     1  UNL1        0.0300
     19  C         21.4250  -21.4000  -12.6060 C.2     1  UNL1        0.0190
     20  C         22.7700  -21.7840  -12.6570 C.2     1  UNL1        0.0320
     21  C         23.2770  -22.6270  -11.6640 C.2     1  UNL1        0.0190
     22  C         22.4530  -23.0630  -10.6180 C.2     1  UNL1        0.0300
     23  C         23.6020  -21.2930  -13.7880 C.2     1  UNL1        0.2490
     24  N         23.0240  -20.4240  -14.6700 N.am    1  UNL1       -0.3660
     25  H         22.0230  -20.3060  -14.7330 H       1  UNL1        0.1590
     26  H         23.5680  -20.2070  -15.4940 H       1  UNL1        0.1590
     27  O         24.7540  -21.6770  -13.9520 O.2     1  UNL1       -0.2680
@<TRIPOS>BOND
     1    26    24    1
     2    25    24    1
     3    24    23   am
     4    27    23    2
     5    23    20    1
     6    20    19    2
     7    20    21    1
     8    19    18    1
     9    21    22    2
    10    18    17    2
    11    22    17    1
    12    17     1    1
    13     1     4    1
    14     1     2   am
    15     3     2    2
    16     2     5    1
    17     5     6    1
    18     6     7    1
    19     7     8    2
    20     7    12    1
    21     8     9    1
    22    14    12    1
    23    14    15    1
    24    12    11    2
    25     9    10    2
    26    15    16    1
    27    11    10    1
    28    11    13    1
    29    16    13    1
