@<TRIPOS>MOLECULE
78875_out_ligand_01.pdbqt
 35 39 0 0 0
SMALL
GASTEIGER

@<TRIPOS>ATOM
      1  C         17.4120  -21.9660  -10.6160 C.ar    1  UNL1        0.1480
      2  N         17.2520  -20.8420  -11.2920 N.ar    1  UNL1       -0.1320
      3  N         18.4920  -20.3580  -11.6180 N.ar    1  UNL1       -0.1220
      4  C         19.3860  -21.1910  -11.1410 C.ar    1  UNL1        0.1920
      5  N         18.7620  -22.2240  -10.4970 N.ar    1  UNL1       -0.3060
      6  C         16.3320  -22.8210  -10.0560 C.3     1  UNL1        0.2030
      7  N         16.2370  -22.6000   -8.6360 N.am    1  UNL1       -0.3500
      8  C         16.0950  -23.6520   -7.7650 C.2     1  UNL1        0.2520
      9  O         15.9320  -24.8120   -8.1220 O.2     1  UNL1       -0.2680
     10  H         16.3600  -21.6520   -8.2920 H       1  UNL1        0.1630
     11  C         16.0800  -23.2930   -6.3270 C.2     1  UNL1        0.0430
     12  C         15.0050  -23.8000   -5.5820 C.2     1  UNL1        0.0180
     13  C         14.8820  -23.4820   -4.2360 C.2     1  UNL1        0.0020
     14  C         15.8330  -22.6630   -3.6290 C.2     1  UNL1        0.0120
     15  C         16.9320  -22.1660   -4.3520 C.2     1  UNL1       -0.0250
     16  C         17.8870  -21.3570   -3.7110 C.2     1  UNL1        0.0120
     17  C         17.0810  -22.4850   -5.7240 C.2     1  UNL1       -0.0100
     18  C         18.9970  -20.8720   -4.4010 C.2     1  UNL1        0.0010
     19  C         19.1730  -21.1940   -5.7390 C.2     1  UNL1        0.0010
     20  C         18.2320  -21.9950   -6.3920 C.2     1  UNL1        0.0130
     21  C         19.3640  -23.3860   -9.8650 C.3     1  UNL1        0.1710
     22  C         20.7520  -23.0970   -9.3500 C.2     1  UNL1       -0.0400
     23  C         21.8640  -23.7970   -9.8440 C.2     1  UNL1        0.0090
     24  C         23.1460  -23.5210   -9.3680 C.2     1  UNL1        0.0010
     25  C         23.3330  -22.5490   -8.3880 C.2     1  UNL1        0.0000
     26  C         22.2370  -21.8560   -7.8790 C.2     1  UNL1        0.0010
     27  C         20.9530  -22.1310   -8.3530 C.2     1  UNL1        0.0090
     28  S         21.1000  -21.0240  -11.2900 S.3     1  UNL1       -0.0860
     29  C         21.3170  -21.4440  -13.0470 C.3     1  UNL1        0.1210
     30  C         22.7760  -21.4610  -13.4250 C.2     1  UNL1       -0.0460
     31  C         23.2500  -20.6870  -14.4890 C.2     1  UNL1        0.0270
     32  C         24.6020  -20.7240  -14.7890 C.2     1  UNL1        0.1160
     33  N         25.5020  -21.4670  -14.1100 N.2     1  UNL1       -0.2730
     34  C         25.0280  -22.1970  -13.0790 C.2     1  UNL1        0.1160
     35  C         23.6950  -22.2260  -12.7000 C.2     1  UNL1        0.0270
@<TRIPOS>BOND
     1    32    31    1
     2    32    33    2
     3    31    30    2
     4    33    34    1
     5    30    29    1
     6    30    35    1
     7    34    35    2
     8    29    28    1
     9     3     2   ar
    10     3     4   ar
    11     2     1   ar
    12    28     4    1
    13     4     5   ar
    14     1     5   ar
    15     1     6    1
    16     5    21    1
    17     6     7    1
    18    21    22    1
    19    23    24    1
    20    23    22    2
    21    24    25    2
    22    22    27    1
    23     7    10    1
    24     7     8   am
    25    25    26    1
    26    27    26    2
    27     9     8    2
    28     8    11    1
    29    20    19    2
    30    20    17    1
    31    11    17    2
    32    11    12    1
    33    19    18    1
    34    17    15    1
    35    12    13    2
    36    18    16    2
    37    15    16    1
    38    15    14    2
    39    13    14    1
