@<TRIPOS>MOLECULE
7888_out_ligand_01.pdbqt
 37 40 0 0 0
SMALL
GASTEIGER

@<TRIPOS>ATOM
      1  C         21.0210  -22.2100  -11.4340 C.2     1  UNL1        0.0320
      2  C         21.3750  -23.2140  -10.5230 C.2     1  UNL1        0.0190
      3  C         20.4470  -23.6670   -9.5830 C.2     1  UNL1        0.0310
      4  C         19.1660  -23.1190   -9.5510 C.2     1  UNL1        0.0450
      5  C         18.8210  -22.0870  -10.4280 C.2     1  UNL1        0.0310
      6  C         19.7450  -21.6360  -11.3740 C.2     1  UNL1        0.0190
      7  C         22.0340  -21.7730  -12.4330 C.2     1  UNL1        0.2520
      8  N         23.1790  -22.5390  -12.4950 N.am    1  UNL1       -0.3480
      9  H         23.3390  -23.2020  -11.7490 H       1  UNL1        0.1630
     10  O         21.8250  -20.7690  -13.1010 O.2     1  UNL1       -0.2680
     11  C         24.3530  -22.1870  -13.2920 C.3     1  UNL1        0.1230
     12  C         24.0050  -21.8210  -14.7340 C.3     1  UNL1        0.0680
     13  C         25.2470  -21.3420  -15.5130 C.3     1  UNL1        0.0690
     14  O         25.8810  -20.2330  -14.8410 O.2     1  UNL1       -0.3400
     15  C         25.9430  -20.2500  -13.4760 C.2     1  UNL1        0.0780
     16  C         26.7750  -19.2810  -12.9090 C.2     1  UNL1        0.0370
     17  C         25.2390  -21.1440  -12.6630 C.2     1  UNL1       -0.0020
     18  C         26.9380  -19.2120  -11.5270 C.2     1  UNL1        0.0030
     19  C         26.2670  -20.1140  -10.7070 C.2     1  UNL1        0.0010
     20  C         25.4280  -21.0770  -11.2710 C.2     1  UNL1        0.0120
     21  C         24.7950  -20.7520  -16.8780 C.3     1  UNL1        0.0340
     22  C         25.8320  -20.7740  -17.9920 C.3     1  UNL1        0.0080
     23  C         26.2930  -22.4790  -15.6910 C.3     1  UNL1        0.0340
     24  C         25.6950  -23.8660  -15.9110 C.3     1  UNL1        0.0080
     25  N         18.2430  -23.5720   -8.5610 N.pl3   1  UNL1       -0.2720
     26  C         18.7740  -23.9520   -7.2350 C.3     1  UNL1        0.1830
     27  C         18.7420  -22.8410   -6.2190 C.2     1  UNL1       -0.0010
     28  C         19.4880  -21.6670   -6.4040 C.2     1  UNL1        0.0120
     29  C         19.4340  -20.6380   -5.4600 C.2     1  UNL1        0.0010
     30  C         18.6400  -20.7690   -4.3220 C.2     1  UNL1        0.0030
     31  C         17.8980  -21.9320   -4.1270 C.2     1  UNL1        0.0430
     32  C         17.9540  -22.9530   -5.0710 C.2     1  UNL1        0.1240
     33  F         17.2370  -24.0640   -4.8570 F       1  UNL1       -0.2050
     34  S         16.6200  -23.1340   -8.7140 S.O2    1  UNL1        0.2290
     35  C         15.8360  -24.4200   -7.7670 C.3     1  UNL1        0.1860
     36  O         16.4050  -21.8810   -8.0190 O.2     1  UNL1       -0.2060
     37  O         16.1900  -23.2960  -10.0890 O.2     1  UNL1       -0.2060
@<TRIPOS>BOND
     1    22    21    1
     2    21    13    1
     3    24    23    1
     4    23    13    1
     5    13    14    1
     6    13    12    1
     7    14    15    1
     8    12    11    1
     9    15    16    2
    10    15    17    1
    11    11    17    1
    12    11     8    1
    13    10     7    2
    14    16    18    1
    15    17    20    2
    16     8     7   am
    17     8     9    1
    18     7     1    1
    19    18    19    2
    20     1     6    2
    21     1     2    1
    22     6     5    1
    23    20    19    1
    24     2     3    2
    25     5     4    2
    26    37    34    2
    27     3     4    1
    28     4    25    1
    29    34    25    1
    30    34    36    2
    31    34    35    1
    32    25    26    1
    33    26    27    1
    34    28    27    2
    35    28    29    1
    36    27    32    1
    37    29    30    2
    38    32    33    1
    39    32    31    2
    40    30    31    1
