@<TRIPOS>MOLECULE
78931_out_ligand_01.pdbqt
 28 30 0 0 0
SMALL
GASTEIGER

@<TRIPOS>ATOM
      1  C         20.3180  -21.3200  -10.8970 C.3     1  UNL1        0.0840
      2  C         19.2820  -20.5950  -11.7680 C.3     1  UNL1        0.0160
      3  C         18.0100  -21.4150  -11.9490 C.3     1  UNL1        0.0310
      4  C         17.4360  -21.9140  -10.6170 C.3     1  UNL1        0.2730
      5  N         18.4440  -22.2630   -9.6060 N.3     1  UNL1        0.0930
      6  C         19.7570  -22.5690  -10.1870 C.3     1  UNL1        0.2850
      7  C         21.6390  -21.5860  -11.5800 C.2     1  UNL1        0.1120
      8  N         21.7720  -21.5660  -12.8970 N.2     1  UNL1       -0.2450
      9  C         23.0950  -21.7590  -13.1670 C.2     1  UNL1        0.1360
     10  C         23.7960  -21.9300  -12.0030 C.2     1  UNL1        0.1120
     11  N         22.8620  -21.8560  -10.9980 N.pl3   1  UNL1       -0.3350
     12  C         23.1930  -22.0450   -9.5970 C.3     1  UNL1        0.2320
     13  C         23.3120  -23.4930   -9.1670 C.2     1  UNL1        0.2330
     14  N         24.5550  -24.0110   -8.9500 N.am    1  UNL1       -0.3690
     15  H         24.5970  -24.9990   -8.7330 H       1  UNL1        0.1590
     16  H         25.3870  -23.6040   -9.3640 H       1  UNL1        0.1590
     17  O         22.3200  -24.1840   -8.9430 O.2     1  UNL1       -0.2720
     18  C         17.9490  -23.3120   -8.7040 C.3     1  UNL1        0.3110
     19  C         17.8130  -22.8560   -7.2660 C.2     1  UNL1       -0.0290
     20  C         18.8490  -22.1440   -6.6450 C.2     1  UNL1        0.0090
     21  C         18.7250  -21.7130   -5.3250 C.2     1  UNL1        0.0010
     22  C         17.5590  -21.9820   -4.6100 C.2     1  UNL1        0.0160
     23  C         16.5010  -22.6810   -5.2100 C.2     1  UNL1        0.0480
     24  C         16.6400  -23.1170   -6.5400 C.2     1  UNL1        0.0250
     25  C         15.2500  -22.9750   -4.4220 C.3     1  UNL1        0.4170
     26  F         15.5180  -23.3910   -3.1530 F       1  UNL1       -0.1660
     27  F         14.4740  -23.9490   -4.9770 F       1  UNL1       -0.1660
     28  F         14.4400  -21.8870   -4.2940 F       1  UNL1       -0.1660
@<TRIPOS>BOND
     1     9     8    1
     2     9    10    2
     3     8     7    2
     4    10    11    1
     5     3     2    1
     6     3     4    1
     7     2     1    1
     8     7    11    1
     9     7     1    1
    10    11    12    1
    11     1     6    1
    12     4     5    1
    13     6     5    1
    14     5    18    1
    15    12    13    1
    16    16    14    1
    17    13    14   am
    18    13    17    2
    19    14    15    1
    20    18    19    1
    21    19    20    2
    22    19    24    1
    23    20    21    1
    24    24    23    2
    25    21    22    2
    26    23    22    1
    27    23    25    1
    28    27    25    1
    29    25    28    1
    30    25    26    1
