@<TRIPOS>MOLECULE
7893_out_ligand_01.pdbqt
 34 36 0 0 0
SMALL
GASTEIGER

@<TRIPOS>ATOM
      1  C         20.8310  -22.5350  -10.4030 C.2     1  UNL1        0.0330
      2  C         20.6600  -21.6170  -11.4440 C.2     1  UNL1        0.0170
      3  C         19.3950  -21.1030  -11.7310 C.2     1  UNL1        0.0090
      4  C         18.2670  -21.5120  -11.0030 C.2     1  UNL1       -0.0390
      5  C         16.9380  -20.9020  -11.3580 C.3     1  UNL1        0.0500
      6  C         18.4450  -22.4510   -9.9680 C.2     1  UNL1        0.0810
      7  C         19.7210  -22.9610   -9.6690 C.2     1  UNL1        0.0420
      8  C         22.2020  -23.0400  -10.1160 C.2     1  UNL1        0.2510
      9  N         23.2360  -22.3670  -10.7190 N.am    1  UNL1       -0.3530
     10  H         23.0110  -21.7820  -11.5180 H       1  UNL1        0.1630
     11  O         22.3480  -24.0420   -9.4200 O.2     1  UNL1       -0.2680
     12  C         24.5810  -22.8970  -10.6830 C.3     1  UNL1        0.1620
     13  C         25.2780  -22.6480  -12.0020 C.2     1  UNL1       -0.0340
     14  C         26.1590  -21.5670  -12.2270 C.2     1  UNL1       -0.0510
     15  C         26.6970  -21.3980  -13.5200 C.2     1  UNL1        0.0080
     16  C         26.4060  -22.2870  -14.5530 C.2     1  UNL1        0.0070
     17  C         25.5330  -23.3530  -14.3410 C.2     1  UNL1       -0.0580
     18  C         24.9700  -23.5180  -13.0710 C.2     1  UNL1        0.0160
     19  C         26.5120  -20.5490  -11.1570 C.3     1  UNL1        0.0340
     20  C         26.7910  -19.1480  -11.7000 C.3     1  UNL1        0.0100
     21  C         25.2210  -24.3210  -15.4540 C.3     1  UNL1        0.0340
     22  C         24.5570  -23.6320  -16.6380 C.3     1  UNL1        0.0100
     23  S         17.0800  -23.0190   -8.9590 S.O2    1  UNL1        0.2460
     24  O         16.2480  -23.8850   -9.7660 O.2     1  UNL1       -0.2060
     25  O         16.5310  -21.8640   -8.2750 O.2     1  UNL1       -0.2060
     26  N         17.9150  -23.9170   -7.7630 N.pl3   1  UNL1       -0.1810
     27  H         18.8660  -24.0590   -8.1350 H       1  UNL1        0.1460
     28  C         18.0040  -23.2480   -6.4970 C.2     1  UNL1        0.0230
     29  C         17.4300  -23.8540   -5.3750 C.2     1  UNL1        0.0240
     30  C         17.5110  -23.2270   -4.1300 C.2     1  UNL1        0.0020
     31  C         18.1500  -21.9910   -4.0090 C.2     1  UNL1        0.0070
     32  C         18.7070  -21.3670   -5.1360 C.2     1  UNL1       -0.0600
     33  C         19.4150  -20.0510   -5.0070 C.3     1  UNL1        0.0480
     34  C         18.6400  -22.0110   -6.3810 C.2     1  UNL1        0.0310
@<TRIPOS>BOND
     1    22    21    1
     2    21    17    1
     3    16    17    2
     4    16    15    1
     5    17    18    1
     6    15    14    2
     7    18    13    2
     8    14    13    1
     9    14    19    1
    10    13    12    1
    11     3     2    1
    12     3     4    2
    13    20    19    1
    14    10     9    1
    15     2     1    2
    16     5     4    1
    17     4     6    1
    18     9    12    1
    19     9     8   am
    20     1     8    1
    21     1     7    1
    22     8    11    2
    23     6     7    2
    24     6    23    1
    25    24    23    2
    26    23    25    2
    27    23    26    1
    28    27    26    1
    29    26    28    1
    30    28    34    2
    31    28    29    1
    32    34    32    1
    33    29    30    2
    34    32    33    1
    35    32    31    2
    36    30    31    1
