@<TRIPOS>MOLECULE
78935_out_ligand_01.pdbqt
 30 33 0 0 0
SMALL
GASTEIGER

@<TRIPOS>ATOM
      1  C         21.2880  -23.3020   -9.1230 C.3     1  UNL1        0.0090
      2  C         20.7490  -24.6860   -8.7530 C.3     1  UNL1        0.0260
      3  C         19.4950  -24.3830   -7.9440 C.3     1  UNL1        0.1260
      4  N         19.7550  -23.0830   -7.3390 N.am    1  UNL1       -0.3510
      5  C         18.9520  -22.3480   -6.4860 C.2     1  UNL1        0.2330
      6  O         19.3700  -21.2830   -6.0190 O.2     1  UNL1       -0.2720
      7  C         21.0050  -22.5230   -7.8360 C.3     1  UNL1        0.1300
      8  C         17.4990  -22.8280   -6.1850 C.3     1  UNL1        0.0680
      9  C         16.7490  -21.7280   -5.3810 C.3     1  UNL1        0.0240
     10  C         15.6240  -22.4550   -4.6610 C.3     1  UNL1        0.0020
     11  C         16.1700  -23.8450   -4.3650 C.3     1  UNL1        0.0020
     12  C         17.4890  -23.9590   -5.1310 C.3     1  UNL1        0.0240
     13  C         16.7470  -23.0890   -7.5040 C.2     1  UNL1       -0.0400
     14  C         16.8020  -22.1120   -8.5200 C.2     1  UNL1        0.0080
     15  C         16.1780  -22.3120   -9.7510 C.2     1  UNL1        0.0010
     16  C         15.4840  -23.4870   -9.9970 C.2     1  UNL1        0.0000
     17  C         15.3970  -24.4580   -9.0020 C.2     1  UNL1        0.0010
     18  C         16.0190  -24.2560   -7.7670 C.2     1  UNL1        0.0080
     19  C         20.5660  -22.6530  -10.3220 C.3     1  UNL1        0.0450
     20  C         21.5030  -22.2270  -11.4250 C.2     1  UNL1       -0.0570
     21  C         21.0400  -21.4030  -12.4590 C.2     1  UNL1        0.0070
     22  C         21.8860  -21.0480  -13.5180 C.2     1  UNL1        0.0020
     23  C         23.2050  -21.4940  -13.5380 C.2     1  UNL1        0.0170
     24  C         23.6900  -22.2910  -12.4940 C.2     1  UNL1        0.0320
     25  C         22.8370  -22.6650  -11.4480 C.2     1  UNL1        0.0240
     26  C         25.1070  -22.7250  -12.5480 C.2     1  UNL1        0.2490
     27  N         25.3490  -24.0760  -12.5810 N.am    1  UNL1       -0.3660
     28  H         24.6400  -24.7290  -12.2730 H       1  UNL1        0.1590
     29  H         26.3070  -24.3400  -12.3980 H       1  UNL1        0.1590
     30  O         26.0320  -21.9200  -12.5220 O.2     1  UNL1       -0.2680
@<TRIPOS>BOND
     1    23    22    2
     2    23    24    1
     3    22    21    1
     4    27    26   am
     5    27    29    1
     6    27    28    1
     7    26    30    2
     8    26    24    1
     9    24    25    2
    10    21    20    2
    11    25    20    1
    12    20    19    1
    13    19     1    1
    14    16    15    2
    15    16    17    1
    16    15    14    1
    17     1     2    1
    18     1     7    1
    19    17    18    2
    20     2     3    1
    21    14    13    2
    22     3     4    1
    23     7     4    1
    24    18    13    1
    25    13     8    1
    26     4     5   am
    27     5     8    1
    28     5     6    2
    29     8     9    1
    30     8    12    1
    31     9    10    1
    32    12    11    1
    33    10    11    1
