@<TRIPOS>MOLECULE
78946_out_ligand_01.pdbqt
 29 32 0 0 0
SMALL
GASTEIGER

@<TRIPOS>ATOM
      1  C         17.9050  -21.8540  -10.3770 C.2     1  UNL1        0.2770
      2  O         17.0610  -21.0150  -10.6960 O.2     1  UNL1       -0.2650
      3  N         17.5900  -22.8630   -9.4500 N.am    1  UNL1       -0.3460
      4  C         16.2160  -22.9110   -8.9650 C.3     1  UNL1        0.1260
      5  C         15.9030  -24.2410   -8.3010 C.3     1  UNL1        0.0210
      6  C         16.7900  -24.4880   -7.0830 C.3     1  UNL1        0.0150
      7  C         18.2320  -23.9720   -7.2460 C.3     1  UNL1        0.0740
      8  C         18.5940  -23.6380   -8.7100 C.3     1  UNL1        0.1380
      9  C         19.2270  -21.8660  -10.9840 C.2     1  UNL1        0.1440
     10  C         19.7380  -21.3230  -12.1500 C.2     1  UNL1        0.0570
     11  C         21.1200  -21.6420  -12.1920 C.2     1  UNL1        0.0010
     12  C         22.1760  -21.3960  -13.0860 C.2     1  UNL1        0.0140
     13  C         21.3810  -22.3500  -11.0270 C.2     1  UNL1        0.0920
     14  C         23.4500  -21.8820  -12.7660 C.2     1  UNL1        0.0020
     15  C         23.6740  -22.5940  -11.5850 C.2     1  UNL1        0.0090
     16  C         22.6380  -22.8530  -10.6690 C.2     1  UNL1       -0.0270
     17  C         22.9030  -23.6100   -9.4060 C.3     1  UNL1        0.0510
     18  O         20.2420  -22.4730  -10.2910 O.2     1  UNL1       -0.3040
     19  C         18.4890  -22.7920   -6.3380 C.2     1  UNL1        0.1120
     20  N         19.3540  -21.8250   -6.5710 N.2     1  UNL1       -0.2450
     21  C         19.2910  -20.9770   -5.5020 C.2     1  UNL1        0.1360
     22  C         18.3530  -21.4120   -4.6000 C.2     1  UNL1        0.1120
     23  N         17.8340  -22.5560   -5.1460 N.pl3   1  UNL1       -0.3350
     24  C         16.7760  -23.3470   -4.5470 C.3     1  UNL1        0.2320
     25  C         15.5310  -22.5310   -4.2780 C.2     1  UNL1        0.2330
     26  N         14.7830  -22.1760   -5.3650 N.am    1  UNL1       -0.3690
     27  H         14.8220  -22.7150   -6.2240 H       1  UNL1        0.1590
     28  H         13.9040  -21.7120   -5.1670 H       1  UNL1        0.1590
     29  O         15.2110  -22.1570   -3.1530 O.2     1  UNL1       -0.2720
@<TRIPOS>BOND
     1    12    14    1
     2    12    11    2
     3    14    15    2
     4    11    10    1
     5    11    13    1
     6    10     9    2
     7    15    16    1
     8    13    16    2
     9    13    18    1
    10     9     1    1
    11     9    18    1
    12     2     1    2
    13    16    17    1
    14     1     3   am
    15     3     4    1
    16     3     8    1
    17     4     5    1
    18     8     7    1
    19     5     6    1
    20     7     6    1
    21     7    19    1
    22    20    19    2
    23    20    21    1
    24    19    23    1
    25    27    26    1
    26    21    22    2
    27    26    28    1
    28    26    25   am
    29    23    22    1
    30    23    24    1
    31    24    25    1
    32    25    29    2
