@<TRIPOS>MOLECULE
78953_out_ligand_01.pdbqt
 25 27 0 0 0
SMALL
GASTEIGER

@<TRIPOS>ATOM
      1  C         17.7280  -23.3690   -9.6250 C.3     1  UNL1        0.0460
      2  C         17.5320  -23.1880   -8.1070 C.3     1  UNL1        0.0180
      3  C         17.6660  -24.4740   -7.2970 C.3     1  UNL1        0.1810
      4  O         17.1950  -24.2890   -5.9580 O.2     1  UNL1       -0.3470
      5  C         17.7220  -23.2030   -5.3010 C.2     1  UNL1        0.1080
      6  C         18.3310  -22.1380   -5.9840 C.2     1  UNL1       -0.0210
      7  C         17.5910  -23.1750   -3.9000 C.2     1  UNL1        0.1020
      8  C         18.8460  -21.0620   -5.2530 C.2     1  UNL1        0.0100
      9  C         18.4630  -22.1480   -7.4830 C.3     1  UNL1        0.0480
     10  C         18.7310  -21.0360   -3.8640 C.2     1  UNL1        0.0030
     11  C         18.1030  -22.0850   -3.1890 C.2     1  UNL1        0.0390
     12  O         16.9610  -24.2510   -3.3300 O.2     1  UNL1       -0.3530
     13  C         15.5550  -24.1720   -3.1530 C.3     1  UNL1        0.2100
     14  C         18.9310  -22.6930  -10.2550 C.2     1  UNL1       -0.0510
     15  C         20.2070  -23.2380  -10.0150 C.2     1  UNL1        0.0240
     16  C         21.3630  -22.6620  -10.5590 C.2     1  UNL1        0.0320
     17  C         21.2520  -21.5170  -11.3460 C.2     1  UNL1        0.0170
     18  C         19.9930  -20.9770  -11.6130 C.2     1  UNL1        0.0080
     19  C         18.8250  -21.5570  -11.0840 C.2     1  UNL1       -0.0560
     20  C         17.4970  -20.9480  -11.4520 C.3     1  UNL1        0.0490
     21  C         22.6750  -23.2930  -10.2540 C.2     1  UNL1        0.2490
     22  N         23.6040  -23.3390  -11.2570 N.am    1  UNL1       -0.3660
     23  H         24.4310  -23.8890  -11.0590 H       1  UNL1        0.1590
     24  H         23.3510  -23.2180  -12.2260 H       1  UNL1        0.1590
     25  O         22.9110  -23.7890   -9.1600 O.2     1  UNL1       -0.2680
@<TRIPOS>BOND
     1    24    22    1
     2    18    17    2
     3    18    19    1
     4    20    19    1
     5    17    16    1
     6    22    23    1
     7    22    21   am
     8    19    14    2
     9    16    21    1
    10    16    15    2
    11    14    15    1
    12    14     1    1
    13    21    25    2
    14     1     2    1
    15     2     9    1
    16     2     3    1
    17     9     6    1
    18     3     4    1
    19     6     5    2
    20     6     8    1
    21     4     5    1
    22     5     7    1
    23     8    10    2
    24     7    12    1
    25     7    11    2
    26    10    11    1
    27    12    13    1
