@<TRIPOS>MOLECULE
78975_out_ligand_01.pdbqt
 30 33 0 0 0
SMALL
GASTEIGER

@<TRIPOS>ATOM
      1  C         22.1410  -22.8810   -9.1250 C.2     1  UNL1        0.0340
      2  C         21.6170  -24.1610   -9.3910 C.2     1  UNL1        0.0200
      3  C         20.4420  -24.6130   -8.7740 C.2     1  UNL1        0.0410
      4  C         19.8380  -23.7150   -7.9030 C.ar    1  UNL1        0.1060
      5  O         18.6960  -23.9060   -7.1820 O.2     1  UNL1       -0.2890
      6  C         18.5350  -22.7270   -6.4950 C.ar    1  UNL1        0.1810
      7  N         19.4750  -21.8270   -6.7260 N.ar    1  UNL1       -0.2210
      8  C         20.3100  -22.4450   -7.6220 C.ar    1  UNL1        0.0940
      9  C         21.4830  -22.0020   -8.2440 C.2     1  UNL1        0.0510
     10  C         23.3900  -22.3970   -9.7780 C.2     1  UNL1        0.2510
     11  N         24.1080  -23.3270  -10.4990 N.am    1  UNL1       -0.3560
     12  H         23.9310  -24.3130  -10.3330 H       1  UNL1        0.1620
     13  O         23.7560  -21.2360   -9.6310 O.2     1  UNL1       -0.2680
     14  C         25.4190  -23.0060  -11.0400 C.3     1  UNL1        0.1290
     15  C         25.5970  -23.4630  -12.4920 C.3     1  UNL1        0.0880
     16  C         24.9610  -22.5270  -13.4710 C.ar    1  UNL1        0.1020
     17  N         23.7820  -21.9520  -13.3330 N.ar    1  UNL1       -0.1450
     18  N         23.4670  -21.1500  -14.4090 N.ar    1  UNL1       -0.1240
     19  C         24.4080  -21.1390  -15.3260 C.ar    1  UNL1        0.1870
     20  S         25.7590  -22.1280  -14.9400 S.2     1  UNL1       -0.0340
     21  N         24.3470  -20.4450  -16.4780 N.pl3   1  UNL1       -0.3770
     22  H         24.9470  -19.6280  -16.5220 H       1  UNL1        0.1580
     23  H         23.4310  -20.2960  -16.8830 H       1  UNL1        0.1580
     24  C         17.3700  -22.6310   -5.6210 C.2     1  UNL1        0.0200
     25  C         17.5390  -22.7100   -4.2270 C.2     1  UNL1        0.0160
     26  C         16.4440  -22.6220   -3.3610 C.2     1  UNL1        0.0040
     27  C         15.1640  -22.4520   -3.8810 C.2     1  UNL1        0.0420
     28  C         14.9920  -22.3730   -5.2580 C.2     1  UNL1        0.1170
     29  F         13.7590  -22.2100   -5.7580 F       1  UNL1       -0.2060
     30  C         16.0740  -22.4600   -6.1280 C.2     1  UNL1        0.0580
@<TRIPOS>BOND
     1    23    21    1
     2    22    21    1
     3    21    19    1
     4    19    20   ar
     5    19    18   ar
     6    20    16   ar
     7    18    17   ar
     8    16    17   ar
     9    16    15    1
    10    15    14    1
    11    14    11    1
    12    11    12    1
    13    11    10   am
    14    10    13    2
    15    10     1    1
    16     2     1    2
    17     2     3    1
    18     1     9    1
    19     3     4    2
    20     9     8    2
    21     4     8   ar
    22     4     5   ar
    23     8     7   ar
    24     5     6   ar
    25     7     6   ar
    26     6    24    1
    27    30    24    2
    28    30    28    1
    29    29    28    1
    30    24    25    1
    31    28    27    2
    32    25    26    2
    33    27    26    1
