@<TRIPOS>MOLECULE
78985_out_ligand_01.pdbqt
 25 27 0 0 0
SMALL
GASTEIGER

@<TRIPOS>ATOM
      1  C         19.8790  -23.8040   -9.2370 C.3     1  UNL1        0.0460
      2  C         19.6260  -22.7050  -10.2550 C.2     1  UNL1       -0.0420
      3  C         18.3560  -22.4130  -10.7770 C.2     1  UNL1        0.0080
      4  C         18.1660  -21.3860  -11.7090 C.2     1  UNL1        0.0010
      5  C         19.2380  -20.6120  -12.1360 C.2     1  UNL1        0.0010
      6  C         20.5080  -20.8620  -11.6260 C.2     1  UNL1        0.0170
      7  C         20.7040  -21.8990  -10.6970 C.2     1  UNL1        0.0380
      8  C         22.0840  -22.0930  -10.1750 C.2     1  UNL1        0.2520
      9  N         22.9690  -22.6530  -11.0730 N.am    1  UNL1       -0.3570
     10  H         22.6410  -22.9240  -11.9910 H       1  UNL1        0.1620
     11  O         22.3720  -21.7750   -9.0300 O.2     1  UNL1       -0.2680
     12  C         24.3540  -22.8880  -10.7330 C.3     1  UNL1        0.1180
     13  C         25.2010  -21.6480  -10.9470 C.3     1  UNL1        0.0260
     14  C         19.4010  -23.7190   -7.7740 C.3     1  UNL1        0.0180
     15  C         17.9990  -24.2650   -7.5310 C.3     1  UNL1        0.1810
     16  O         17.7290  -24.3900   -6.1330 O.2     1  UNL1       -0.3470
     17  C         17.9480  -23.2460   -5.4030 C.2     1  UNL1        0.1080
     18  C         18.8160  -22.2330   -5.8400 C.2     1  UNL1       -0.0210
     19  C         17.2970  -23.1460   -4.1600 C.2     1  UNL1        0.1020
     20  C         19.0000  -21.1000   -5.0390 C.2     1  UNL1        0.0100
     21  C         19.5490  -22.3310   -7.1500 C.3     1  UNL1        0.0480
     22  C         18.3450  -20.9880   -3.8150 C.2     1  UNL1        0.0030
     23  C         17.4990  -22.0080   -3.3740 C.2     1  UNL1        0.0390
     24  O         16.4830  -24.1960   -3.8170 O.2     1  UNL1       -0.3530
     25  C         15.0850  -24.0330   -4.0130 C.3     1  UNL1        0.2100
@<TRIPOS>BOND
     1     5     4    2
     2     5     6    1
     3    10     9    1
     4     4     3    1
     5     6     7    2
     6     9    12    1
     7     9     8   am
     8    13    12    1
     9     3     2    2
    10     7     2    1
    11     7     8    1
    12     2     1    1
    13     8    11    2
    14     1    14    1
    15    14    15    1
    16    14    21    1
    17    15    16    1
    18    21    18    1
    19    16    17    1
    20    18    17    2
    21    18    20    1
    22    17    19    1
    23    20    22    2
    24    19    24    1
    25    19    23    2
    26    25    24    1
    27    22    23    1
