@<TRIPOS>MOLECULE
78998_out_ligand_01.pdbqt
 37 42 0 0 0
SMALL
GASTEIGER

@<TRIPOS>ATOM
      1  C         23.2690  -22.5080  -11.3400 C.2     1  UNL1        0.2110
      2  N         22.8490  -21.7460  -12.3920 N.2     1  UNL1       -0.1220
      3  N         21.5680  -21.4110  -12.5230 N.pl3   1  UNL1       -0.1430
      4  C         20.7270  -21.8580  -11.5550 C.ar    1  UNL1        0.1370
      5  C         19.3340  -21.6850  -11.3590 C.ar    1  UNL1        0.0250
      6  C         18.3220  -21.0130  -12.0730 C.2     1  UNL1        0.0160
      7  C         17.0070  -21.0450  -11.6000 C.2     1  UNL1        0.0010
      8  C         16.6950  -21.7350  -10.4330 C.2     1  UNL1        0.0020
      9  C         17.6810  -22.4020   -9.7010 C.2     1  UNL1        0.0300
     10  C         19.0000  -22.3650  -10.1790 C.ar    1  UNL1        0.0490
     11  N         20.1690  -22.9100   -9.6750 N.ar    1  UNL1       -0.3290
     12  C         21.2160  -22.6270  -10.5140 C.ar    1  UNL1        0.1650
     13  N         22.4980  -23.0030  -10.3520 N.pl3   1  UNL1       -0.2010
     14  S         25.0130  -22.8000  -11.1980 S.3     1  UNL1       -0.0790
     15  C         25.2410  -23.8490  -12.6560 C.3     1  UNL1        0.1850
     16  C         25.8880  -23.0830  -13.8030 C.2     1  UNL1        0.2310
     17  O         27.0920  -23.1720  -14.0130 O.2     1  UNL1       -0.2720
     18  N         24.9830  -22.3510  -14.5430 N.am    1  UNL1       -0.3260
     19  H         24.0270  -22.3960  -14.2320 H       1  UNL1        0.1690
     20  C         25.2210  -21.6140  -15.7330 C.2     1  UNL1        0.0450
     21  C         24.8680  -22.1250  -16.9890 C.2     1  UNL1        0.0300
     22  C         25.0470  -21.3730  -18.1470 C.2     1  UNL1        0.0030
     23  C         25.5690  -20.0940  -18.0670 C.2     1  UNL1        0.0120
     24  C         25.9530  -19.5530  -16.8340 C.2     1  UNL1       -0.0240
     25  C         26.4780  -18.2480  -16.7920 C.2     1  UNL1        0.0120
     26  C         25.8030  -20.3130  -15.6410 C.2     1  UNL1        0.0010
     27  C         26.8660  -17.6700  -15.5890 C.2     1  UNL1        0.0010
     28  C         26.7460  -18.3960  -14.4130 C.2     1  UNL1        0.0010
     29  C         26.2290  -19.6930  -14.4380 C.2     1  UNL1        0.0140
     30  C         20.3260  -23.5870   -8.3990 C.3     1  UNL1        0.1350
     31  C         20.1100  -22.6780   -7.1950 C.3     1  UNL1        0.0580
     32  C         18.7920  -22.9130   -6.5060 C.2     1  UNL1       -0.0570
     33  C         18.1020  -24.1160   -6.7050 C.2     1  UNL1        0.0070
     34  C         16.8880  -24.3510   -6.0600 C.2     1  UNL1        0.0010
     35  C         16.3490  -23.3890   -5.2150 C.2     1  UNL1        0.0000
     36  C         17.0280  -22.1880   -5.0100 C.2     1  UNL1        0.0010
     37  C         18.2440  -21.9460   -5.6540 C.2     1  UNL1        0.0070
@<TRIPOS>BOND
     1    22    23    2
     2    22    21    1
     3    23    24    1
     4    21    20    2
     5    24    25    2
     6    24    26    1
     7    25    27    1
     8    20    26    1
     9    20    18    1
    10    26    29    2
    11    27    28    2
    12    18    19    1
    13    18    16   am
    14    29    28    1
    15    17    16    2
    16    16    15    1
    17    15    14    1
    18     3     2    1
    19     3     4    1
    20     2     1    2
    21     6     7    1
    22     6     5    2
    23     7     8    2
    24     4     5   ar
    25     4    12   ar
    26     5    10   ar
    27     1    14    1
    28     1    13    1
    29    12    13    1
    30    12    11   ar
    31     8     9    1
    32    10     9    2
    33    10    11   ar
    34    11    30    1
    35    30    31    1
    36    31    32    1
    37    33    32    2
    38    33    34    1
    39    32    37    1
    40    34    35    2
    41    37    36    2
    42    35    36    1
