@<TRIPOS>MOLECULE
79001_out_ligand_01.pdbqt
 35 37 0 0 0
SMALL
GASTEIGER

@<TRIPOS>ATOM
      1  C         22.2770  -22.5860  -10.1420 C.3     1  UNL1        0.1680
      2  N         23.5220  -23.3740  -10.3220 N.3     1  UNL1       -0.2020
      3  H         23.7250  -23.9910   -9.5270 H       1  UNL1        0.1410
      4  S         24.9050  -22.5160  -10.7510 S.O2    1  UNL1        0.2420
      5  O         24.7020  -21.1240  -10.4100 O.2     1  UNL1       -0.2060
      6  O         26.0390  -23.2770  -10.2820 O.2     1  UNL1       -0.2060
      7  C         24.8590  -22.6730  -12.5190 C.2     1  UNL1        0.0740
      8  C         24.4460  -21.5980  -13.3090 C.2     1  UNL1        0.0250
      9  C         24.4160  -21.7390  -14.6970 C.2     1  UNL1        0.0080
     10  C         24.7910  -22.9490  -15.2980 C.2     1  UNL1       -0.0620
     11  C         24.7930  -23.0830  -16.7930 C.3     1  UNL1        0.0480
     12  C         25.2250  -24.0120  -14.4930 C.2     1  UNL1        0.0080
     13  C         25.2580  -23.8770  -13.1040 C.2     1  UNL1        0.0250
     14  C         21.5100  -22.4700  -11.4710 C.3     1  UNL1        0.0680
     15  C         20.0680  -22.0320  -11.3570 C.2     1  UNL1       -0.0560
     16  C         19.0720  -22.9580  -11.0110 C.2     1  UNL1        0.0070
     17  C         17.7420  -22.5560  -10.8920 C.2     1  UNL1        0.0010
     18  C         17.3930  -21.2270  -11.1150 C.2     1  UNL1        0.0000
     19  C         18.3720  -20.2980  -11.4600 C.2     1  UNL1        0.0010
     20  C         19.7040  -20.6980  -11.5810 C.2     1  UNL1        0.0070
     21  C         21.4150  -23.2320   -9.0420 C.2     1  UNL1        0.2410
     22  O         21.4700  -24.4420   -8.8310 O.2     1  UNL1       -0.2710
     23  N         20.5930  -22.3250   -8.3900 N.am    1  UNL1       -0.3260
     24  H         20.7100  -21.3460   -8.6230 H       1  UNL1        0.1690
     25  C         19.6490  -22.5980   -7.3790 C.2     1  UNL1        0.0340
     26  C         19.5130  -21.6470   -6.3590 C.2     1  UNL1        0.0300
     27  C         18.5920  -21.8360   -5.3230 C.2     1  UNL1        0.0190
     28  C         17.7890  -22.9810   -5.2920 C.2     1  UNL1        0.0320
     29  C         17.9320  -23.9410   -6.2990 C.2     1  UNL1        0.0190
     30  C         18.8540  -23.7450   -7.3380 C.2     1  UNL1        0.0300
     31  C         16.8270  -23.1360   -4.1680 C.2     1  UNL1        0.2490
     32  N         16.4020  -22.0030   -3.5300 N.am    1  UNL1       -0.3660
     33  H         15.8380  -22.1460   -2.7020 H       1  UNL1        0.1590
     34  H         16.8660  -21.1130   -3.6280 H       1  UNL1        0.1590
     35  O         16.4500  -24.2400   -3.7950 O.2     1  UNL1       -0.2680
@<TRIPOS>BOND
     1    11    10    1
     2    10     9    2
     3    10    12    1
     4     9     8    1
     5    12    13    2
     6     8     7    2
     7    13     7    1
     8     7     4    1
     9    20    19    1
    10    20    15    2
    11    14    15    1
    12    14     1    1
    13    19    18    2
    14    15    16    1
    15    18    17    1
    16    16    17    2
    17     4     5    2
    18     4     2    1
    19     4     6    2
    20     2     1    1
    21     2     3    1
    22     1    21    1
    23    21    22    2
    24    21    23   am
    25    24    23    1
    26    23    25    1
    27    25    30    2
    28    25    26    1
    29    30    29    1
    30    26    27    2
    31    29    28    2
    32    27    28    1
    33    28    31    1
    34    31    35    2
    35    31    32   am
    36    34    32    1
    37    32    33    1
