@<TRIPOS>MOLECULE
79028_out_ligand_01.pdbqt
 31 35 0 0 0
SMALL
GASTEIGER

@<TRIPOS>ATOM
      1  N         26.7300  -24.4630  -12.0580 N.1     1  UNL1       -0.1910
      2  C         26.0990  -23.6430  -12.5860 C.1     1  UNL1        0.1030
      3  C         25.4000  -22.6730  -13.3770 C.ar    1  UNL1        0.0850
      4  C         24.1720  -22.0800  -13.1130 C.ar    1  UNL1        0.0980
      5  S         23.6300  -21.0680  -14.4080 S.2     1  UNL1       -0.0750
      6  C         25.0300  -21.3670  -15.2610 C.ar    1  UNL1       -0.0070
      7  C         25.8880  -22.2250  -14.6340 C.ar    1  UNL1       -0.0210
      8  C         27.0980  -22.4690  -15.4620 C.3     1  UNL1        0.0420
      9  C         26.6750  -21.8880  -16.8480 C.3     1  UNL1        0.0100
     10  C         25.5040  -20.8930  -16.5820 C.3     1  UNL1        0.0470
     11  N         23.2480  -22.0930  -12.0910 N.am    1  UNL1       -0.3160
     12  C         23.5250  -21.7840  -10.7780 C.2     1  UNL1        0.2560
     13  O         24.5910  -21.3620  -10.3520 O.2     1  UNL1       -0.2670
     14  H         22.2830  -22.1660  -12.3850 H       1  UNL1        0.1690
     15  C         22.3710  -21.9100   -9.8390 C.2     1  UNL1        0.0320
     16  C         21.0830  -22.2350  -10.2830 C.2     1  UNL1        0.0180
     17  C         20.0310  -22.3400   -9.3670 C.2     1  UNL1        0.0130
     18  C         20.2510  -22.1300   -7.9960 C.2     1  UNL1       -0.0200
     19  C         21.5460  -21.8300   -7.5570 C.2     1  UNL1        0.0130
     20  C         22.6000  -21.7250   -8.4710 C.2     1  UNL1        0.0180
     21  C         19.1380  -22.2310   -7.0300 C.2     1  UNL1        0.0510
     22  C         18.1440  -23.0990   -7.2810 C.2     1  UNL1        0.0320
     23  C         17.0220  -23.2280   -6.3650 C.2     1  UNL1       -0.0010
     24  C         15.9750  -24.1250   -6.5920 C.2     1  UNL1        0.0140
     25  C         16.9890  -22.4310   -5.2270 C.2     1  UNL1        0.0890
     26  C         14.9180  -24.2110   -5.6810 C.2     1  UNL1        0.0010
     27  C         14.9010  -23.4030   -4.5420 C.2     1  UNL1        0.0030
     28  C         15.9420  -22.5060   -4.3110 C.2     1  UNL1        0.0380
     29  O         18.0190  -21.5130   -4.9610 O.3     1  UNL1       -0.2740
     30  C         19.1070  -21.3640   -5.8140 C.2     1  UNL1        0.2990
     31  O         19.9950  -20.5550   -5.5650 O.2     1  UNL1       -0.2590
@<TRIPOS>BOND
     1     9    10    1
     2     9     8    1
     3    10     6    1
     4     8     7    1
     5     6     7   ar
     6     6     5   ar
     7     7     3   ar
     8     5     4   ar
     9     3     4   ar
    10     3     2    1
    11     4    11    1
    12     2     1    3
    13    14    11    1
    14    11    12   am
    15    12    13    2
    16    12    15    1
    17    16    15    2
    18    16    17    1
    19    15    20    1
    20    17    18    2
    21    20    19    2
    22    18    19    1
    23    18    21    1
    24    22    21    2
    25    22    23    1
    26    21    30    1
    27    24    23    2
    28    24    26    1
    29    23    25    1
    30    30    31    2
    31    30    29    1
    32    26    27    2
    33    25    29    1
    34    25    28    2
    35    27    28    1
