@<TRIPOS>MOLECULE
79059_out_ligand_01.pdbqt
 31 34 0 0 0
SMALL
GASTEIGER

@<TRIPOS>ATOM
      1  C         19.5410  -22.3690  -10.1120 C.2     1  UNL1        0.0340
      2  C         18.7560  -21.4040  -10.7540 C.2     1  UNL1        0.0170
      3  C         19.2590  -20.7420  -11.8710 C.2     1  UNL1        0.0030
      4  C         20.5390  -21.0470  -12.3420 C.2     1  UNL1        0.0290
      5  C         21.3300  -22.0160  -11.7070 C.2     1  UNL1        0.0350
      6  C         20.8190  -22.6830  -10.5930 C.2     1  UNL1        0.0460
      7  C         19.0190  -23.0990   -8.9260 C.2     1  UNL1        0.2560
      8  O         19.5370  -24.1660   -8.6300 O.2     1  UNL1       -0.2670
      9  N         17.9890  -22.4440   -8.2740 N.am    1  UNL1       -0.3220
     10  H         17.7910  -21.5120   -8.6020 H       1  UNL1        0.1690
     11  C         17.2370  -22.8870   -7.1520 C.2     1  UNL1        0.0460
     12  C         16.1800  -23.7930   -7.3040 C.2     1  UNL1        0.0300
     13  C         15.4340  -24.2160   -6.2070 C.2     1  UNL1        0.0030
     14  C         15.7320  -23.7370   -4.9380 C.2     1  UNL1        0.0120
     15  C         16.7790  -22.8290   -4.7430 C.2     1  UNL1       -0.0240
     16  C         17.0520  -22.3660   -3.4440 C.2     1  UNL1        0.0120
     17  C         17.5570  -22.3850   -5.8470 C.2     1  UNL1        0.0010
     18  C         18.0840  -21.4650   -3.2020 C.2     1  UNL1        0.0010
     19  C         18.8610  -21.0160   -4.2580 C.2     1  UNL1        0.0010
     20  C         18.6030  -21.4680   -5.5570 C.2     1  UNL1        0.0140
     21  N         22.6070  -22.2560  -12.2550 N.am    1  UNL1       -0.3230
     22  C         23.7460  -22.6640  -11.5890 C.2     1  UNL1        0.2570
     23  O         23.8540  -22.9030  -10.3930 O.2     1  UNL1       -0.2670
     24  H         22.7050  -22.0690  -13.2460 H       1  UNL1        0.1690
     25  C         24.9380  -22.8850  -12.4500 C.2     1  UNL1        0.0490
     26  C         24.9200  -24.0450  -13.2440 C.2     1  UNL1        0.0180
     27  C         25.9840  -24.3380  -14.0970 C.2     1  UNL1        0.0010
     28  C         27.0790  -23.4810  -14.1590 C.2     1  UNL1        0.0010
     29  C         27.1170  -22.3370  -13.3610 C.2     1  UNL1        0.0200
     30  C         26.0520  -22.0360  -12.5000 C.2     1  UNL1        0.0260
     31 BR         26.2440  -20.4900  -11.4120 Br      1  UNL1       -0.0500
@<TRIPOS>BOND
     1    28    27    2
     2    28    29    1
     3    27    26    1
     4    29    30    2
     5    24    21    1
     6    26    25    2
     7    30    25    1
     8    30    31    1
     9    25    22    1
    10     4     3    2
    11     4     5    1
    12    21     5    1
    13    21    22   am
    14     3     2    1
    15     5     6    2
    16    22    23    2
    17     2     1    2
    18     6     1    1
    19     1     7    1
    20     7     8    2
    21     7     9   am
    22    10     9    1
    23     9    11    1
    24    12    11    2
    25    12    13    1
    26    11    17    1
    27    13    14    2
    28    17    20    1
    29    17    15    2
    30    20    19    2
    31    14    15    1
    32    15    16    1
    33    19    18    1
    34    16    18    2
