@<TRIPOS>MOLECULE
79073_out_ligand_01.pdbqt
 31 34 0 0 0
SMALL
GASTEIGER

@<TRIPOS>ATOM
      1  C         20.3090  -21.6980  -11.5450 C.2     1  UNL1        0.0350
      2  C         19.1130  -21.4140  -12.2210 C.2     1  UNL1        0.0290
      3  C         17.8800  -21.4970  -11.5650 C.2     1  UNL1        0.0030
      4  C         17.8310  -21.8640  -10.2240 C.2     1  UNL1        0.0170
      5  C         19.0210  -22.1490   -9.5410 C.2     1  UNL1        0.0340
      6  C         20.2540  -22.0790  -10.2030 C.2     1  UNL1        0.0460
      7  C         18.9920  -22.5670   -8.1140 C.2     1  UNL1        0.2560
      8  O         19.5820  -23.5910   -7.8010 O.2     1  UNL1       -0.2670
      9  N         18.2930  -21.7020   -7.2920 N.am    1  UNL1       -0.3220
     10  H         17.9870  -20.8440   -7.7230 H       1  UNL1        0.1690
     11  C         18.0300  -21.8330   -5.9020 C.2     1  UNL1        0.0460
     12  C         18.8640  -21.2360   -4.9490 C.2     1  UNL1        0.0300
     13  C         18.6150  -21.3750   -3.5860 C.2     1  UNL1        0.0030
     14  C         17.5270  -22.1220   -3.1530 C.2     1  UNL1        0.0120
     15  C         16.6700  -22.7380   -4.0720 C.2     1  UNL1       -0.0240
     16  C         15.5780  -23.4860   -3.5950 C.2     1  UNL1        0.0120
     17  C         16.9020  -22.6060   -5.4670 C.2     1  UNL1        0.0010
     18  C         14.6990  -24.1130   -4.4720 C.2     1  UNL1        0.0010
     19  C         14.8980  -24.0000   -5.8390 C.2     1  UNL1        0.0010
     20  C         15.9790  -23.2600   -6.3280 C.2     1  UNL1        0.0140
     21  N         21.5040  -21.5960  -12.2880 N.am    1  UNL1       -0.3230
     22  C         22.6750  -22.3050  -12.0830 C.2     1  UNL1        0.2560
     23  O         22.9170  -23.0670  -11.1560 O.2     1  UNL1       -0.2670
     24  H         21.5290  -20.8650  -12.9860 H       1  UNL1        0.1690
     25  C         23.7500  -22.0410  -13.0800 C.2     1  UNL1        0.0320
     26  C         23.5520  -21.0250  -14.0260 C.2     1  UNL1        0.0180
     27  C         24.5380  -20.7480  -14.9760 C.2     1  UNL1        0.0200
     28  C         25.7250  -21.4770  -14.9720 C.2     1  UNL1        0.0110
     29 BR         27.0610  -21.1020  -16.2560 Br      1  UNL1       -0.0510
     30  C         25.9410  -22.4780  -14.0240 C.2     1  UNL1        0.0200
     31  C         24.9550  -22.7580  -13.0720 C.2     1  UNL1        0.0180
@<TRIPOS>BOND
     1    29    28    1
     2    27    28    2
     3    27    26    1
     4    28    30    1
     5    26    25    2
     6    30    31    2
     7    25    31    1
     8    25    22    1
     9    24    21    1
    10    21    22   am
    11    21     1    1
    12     2     3    1
    13     2     1    2
    14    22    23    2
    15     3     4    2
    16     1     6    1
    17     4     5    1
    18     6     5    2
    19     5     7    1
    20     7     8    2
    21     7     9   am
    22    10     9    1
    23     9    11    1
    24    20    19    2
    25    20    17    1
    26    11    17    2
    27    11    12    1
    28    19    18    1
    29    17    15    1
    30    12    13    2
    31    18    16    2
    32    15    16    1
    33    15    14    2
    34    13    14    1
