@<TRIPOS>MOLECULE
79087_out_ligand_01.pdbqt
 29 32 0 0 0
SMALL
GASTEIGER

@<TRIPOS>ATOM
      1  N         18.4850  -22.5740   -8.6670 N.am    1  UNL1       -0.2430
      2  C         18.0890  -21.9380   -9.8260 C.2     1  UNL1        0.2660
      3  O         17.0170  -21.4740  -10.1740 O.2     1  UNL1       -0.2670
      4  C         19.2660  -21.8460  -10.6840 C.2     1  UNL1        0.0480
      5  C         19.4150  -21.2790  -11.9370 C.2     1  UNL1        0.0190
      6  C         20.6810  -21.3500  -12.5300 C.2     1  UNL1        0.0180
      7  C         21.7590  -21.9760  -11.8580 C.2     1  UNL1        0.0330
      8  C         21.5700  -22.5580  -10.5950 C.2     1  UNL1        0.0350
      9  C         20.3090  -22.4660  -10.0340 C.2     1  UNL1        0.0490
     10  C         19.8020  -22.9690   -8.7600 C.2     1  UNL1        0.2660
     11  O         20.4970  -23.6640   -8.0420 O.2     1  UNL1       -0.2670
     12  C         23.1090  -22.0750  -12.4810 C.2     1  UNL1        0.2560
     13  O         23.9520  -22.7630  -11.9240 O.2     1  UNL1       -0.2670
     14  N         23.2810  -21.3340  -13.6350 N.am    1  UNL1       -0.3220
     15  H         22.5320  -20.7140  -13.9140 H       1  UNL1        0.1690
     16  C         24.4460  -21.2830  -14.4310 C.2     1  UNL1        0.0520
     17  C         24.6120  -22.2720  -15.4040 C.2     1  UNL1        0.0320
     18  C         25.7470  -22.2730  -16.2140 C.2     1  UNL1        0.0210
     19  C         26.6900  -21.2800  -16.0220 C.2     1  UNL1        0.1160
     20  N         26.5720  -20.3090  -15.0940 N.2     1  UNL1       -0.2710
     21  C         25.4540  -20.3300  -14.3200 C.2     1  UNL1        0.1450
     22  C         17.6050  -22.9000   -7.5930 C.2     1  UNL1        0.0510
     23  C         16.5140  -23.7530   -7.8530 C.2     1  UNL1        0.0310
     24  C         15.6440  -24.1690   -6.8420 C.2     1  UNL1        0.0090
     25  C         15.8400  -23.7470   -5.5300 C.2     1  UNL1       -0.0610
     26  C         14.9020  -24.1730   -4.4410 C.3     1  UNL1        0.0480
     27  C         16.8880  -22.8620   -5.2620 C.2     1  UNL1        0.0150
     28  C         17.7610  -22.4120   -6.2780 C.2     1  UNL1       -0.0340
     29  C         18.7760  -21.3770   -5.8660 C.3     1  UNL1        0.0500
@<TRIPOS>BOND
     1    18    19    2
     2    18    17    1
     3    19    20    1
     4    17    16    2
     5    20    21    2
     6    16    21    1
     7    16    14    1
     8    15    14    1
     9    14    12   am
    10     6     5    1
    11     6     7    2
    12    12    13    2
    13    12     7    1
    14     5     4    2
    15     7     8    1
    16     4     9    1
    17     4     2    1
    18     8     9    2
    19     3     2    2
    20     9    10    1
    21     2     1   am
    22    10     1   am
    23    10    11    2
    24     1    22    1
    25    23    22    2
    26    23    24    1
    27    22    28    1
    28    24    25    2
    29    28    29    1
    30    28    27    2
    31    25    27    1
    32    25    26    1
