@<TRIPOS>MOLECULE
79080_out_ligand_01.pdbqt
 29 32 0 0 0
SMALL
GASTEIGER

@<TRIPOS>ATOM
      1  N         18.1880  -22.6830   -8.6630 N.am    1  UNL1       -0.2410
      2  C         17.7900  -21.9770   -9.7790 C.2     1  UNL1        0.2660
      3  O         16.6970  -21.6100  -10.1750 O.2     1  UNL1       -0.2670
      4  C         18.9750  -21.8150  -10.6170 C.2     1  UNL1        0.0480
      5  C         19.1300  -21.1600  -11.8260 C.2     1  UNL1        0.0190
      6  C         20.3940  -21.1990  -12.4240 C.2     1  UNL1        0.0180
      7  C         21.4660  -21.8860  -11.8010 C.2     1  UNL1        0.0330
      8  C         21.2700  -22.5620  -10.5870 C.2     1  UNL1        0.0350
      9  C         20.0110  -22.5000  -10.0210 C.2     1  UNL1        0.0490
     10  C         19.5020  -23.0830   -8.7830 C.2     1  UNL1        0.2660
     11  O         20.2100  -23.7580   -8.0580 O.2     1  UNL1       -0.2670
     12  C         22.8130  -21.9520  -12.4320 C.2     1  UNL1        0.2560
     13  O         23.6850  -22.5950  -11.8650 O.2     1  UNL1       -0.2670
     14  N         22.9480  -21.2350  -13.6060 N.am    1  UNL1       -0.3220
     15  H         22.1740  -20.6500  -13.8930 H       1  UNL1        0.1690
     16  C         24.1040  -21.1620  -14.4130 C.2     1  UNL1        0.0520
     17  C         24.3420  -22.2140  -15.3030 C.2     1  UNL1        0.0320
     18  C         25.4720  -22.1960  -16.1180 C.2     1  UNL1        0.0210
     19  C         26.3380  -21.1210  -16.0180 C.2     1  UNL1        0.1160
     20  N         26.1490  -20.0890  -15.1720 N.2     1  UNL1       -0.2710
     21  C         25.0390  -20.1290  -14.3900 C.2     1  UNL1        0.1450
     22  C         17.3350  -23.0440   -7.5830 C.2     1  UNL1        0.0790
     23  C         16.4440  -24.1240   -7.7270 C.2     1  UNL1        0.0330
     24  C         15.5700  -24.4860   -6.6980 C.2     1  UNL1        0.0020
     25  C         15.5840  -23.7900   -5.4960 C.2     1  UNL1        0.0030
     26  C         16.4800  -22.7380   -5.3160 C.2     1  UNL1        0.0390
     27  C         17.3470  -22.3580   -6.3530 C.2     1  UNL1        0.0950
     28  O         18.3390  -21.4360   -6.1160 O.2     1  UNL1       -0.3540
     29  C         18.6140  -21.2430   -4.7280 C.3     1  UNL1        0.2100
@<TRIPOS>BOND
     1    18    19    2
     2    18    17    1
     3    19    20    1
     4    17    16    2
     5    20    21    2
     6    16    21    1
     7    16    14    1
     8    15    14    1
     9    14    12   am
    10    12    13    2
    11    12     7    1
    12     6     5    1
    13     6     7    2
    14     5     4    2
    15     7     8    1
    16     4     9    1
    17     4     2    1
    18     8     9    2
    19     3     2    2
    20     9    10    1
    21     2     1   am
    22    10     1   am
    23    10    11    2
    24     1    22    1
    25    23    22    2
    26    23    24    1
    27    22    27    1
    28    24    25    2
    29    27    28    1
    30    27    26    2
    31    28    29    1
    32    25    26    1
