@<TRIPOS>MOLECULE
79091_out_ligand_01.pdbqt
 32 35 0 0 0
SMALL
GASTEIGER

@<TRIPOS>ATOM
      1  C         19.9360  -21.9730  -11.2410 C.2     1  UNL1        0.0330
      2  C         18.7860  -21.3500  -11.7920 C.2     1  UNL1        0.0180
      3  C         17.5140  -21.5810  -11.2500 C.2     1  UNL1        0.0190
      4  C         17.4350  -22.4260  -10.1610 C.2     1  UNL1        0.0480
      5  C         18.5550  -23.0250   -9.6140 C.2     1  UNL1        0.0490
      6  C         19.8220  -22.8170  -10.1250 C.2     1  UNL1        0.0350
      7  C         18.1100  -23.8410   -8.4850 C.2     1  UNL1        0.2620
      8  O         18.8460  -24.5090   -7.7850 O.2     1  UNL1       -0.2670
      9  N         16.7540  -23.6880   -8.4070 N.am    1  UNL1       -0.2760
     10  C         16.2760  -22.8550   -9.3800 C.2     1  UNL1        0.2620
     11  O         15.1330  -22.5040   -9.6010 O.2     1  UNL1       -0.2670
     12  C         21.2990  -21.7300  -11.7960 C.2     1  UNL1        0.2560
     13  O         21.4410  -20.7970  -12.5770 O.2     1  UNL1       -0.2670
     14  N         22.2810  -22.5830  -11.3370 N.am    1  UNL1       -0.3220
     15  H         22.0200  -23.2440  -10.6050 H       1  UNL1        0.1690
     16  C         23.6550  -22.6230  -11.6950 C.2     1  UNL1        0.0510
     17  C         24.0980  -22.2990  -12.9840 C.2     1  UNL1        0.0300
     18  C         25.4560  -22.3440  -13.3120 C.2     1  UNL1        0.0020
     19  C         26.3970  -22.7170  -12.3580 C.2     1  UNL1        0.0010
     20  C         25.9810  -23.0490  -11.0710 C.2     1  UNL1        0.0200
     21  C         24.6170  -23.0070  -10.7300 C.2     1  UNL1        0.0640
     22  C         24.1940  -23.3750   -9.3500 C.2     1  UNL1        0.1780
     23  O         23.2830  -22.8530   -8.7280 O.2     1  UNL1       -0.6460
     24  O         24.9200  -24.3700   -8.8120 O.3     1  UNL1       -0.7730
     25  H         24.5760  -25.1880   -9.2300 H       1  UNL1        0.1670
     26  C         15.9230  -24.3660   -7.4400 C.3     1  UNL1        0.1750
     27  C         15.8750  -23.6240   -6.1330 C.2     1  UNL1       -0.0220
     28  C         14.8200  -22.7600   -5.8220 C.2     1  UNL1        0.0120
     29  C         14.8030  -22.1080   -4.5920 C.2     1  UNL1        0.0200
     30  C         15.8410  -22.3470   -3.7090 C.2     1  UNL1        0.1160
     31  N         16.8700  -23.1810   -3.9680 N.2     1  UNL1       -0.2730
     32  C         16.8620  -23.8050   -5.1680 C.2     1  UNL1        0.1240
@<TRIPOS>BOND
     1    18    17    1
     2    18    19    2
     3    17    16    2
     4    13    12    2
     5    19    20    1
     6    12    14   am
     7    12     1    1
     8     2     3    1
     9     2     1    2
    10    16    14    1
    11    16    21    1
    12    14    15    1
    13     3     4    2
    14     1     6    1
    15    20    21    2
    16    21    22    1
    17     4     5    1
    18     4    10    1
    19     6     5    2
    20     5     7    1
    21    11    10    2
    22    10     9   am
    23    22    24    1
    24    22    23    2
    25    25    24    1
    26     7     9   am
    27     7     8    2
    28     9    26    1
    29    26    27    1
    30    27    28    2
    31    27    32    1
    32    28    29    1
    33    32    31    2
    34    29    30    2
    35    31    30    1
