@<TRIPOS>MOLECULE
79142_out_ligand_01.pdbqt
 31 34 0 0 0
SMALL
GASTEIGER

@<TRIPOS>ATOM
      1  C         20.9390  -22.2950   -9.1870 C.2     1  UNL1        0.0340
      2  C         21.0110  -22.3350  -10.5820 C.2     1  UNL1        0.0310
      3  C         22.2420  -22.2100  -11.2340 C.2     1  UNL1        0.0270
      4  C         23.4110  -22.0570  -10.4870 C.2     1  UNL1        0.0750
      5  C         23.3550  -22.0030   -9.0940 C.2     1  UNL1        0.0270
      6  C         22.1200  -22.1250   -8.4510 C.2     1  UNL1        0.0310
      7  N         19.7400  -22.4070   -8.4540 N.am    1  UNL1       -0.3260
      8  C         19.1680  -23.5570   -7.9210 C.2     1  UNL1        0.2350
      9  O         19.6430  -24.6870   -7.9950 O.2     1  UNL1       -0.2720
     10  H         19.2750  -21.5350   -8.2300 H       1  UNL1        0.1690
     11  C         17.8020  -23.2800   -7.2260 C.3     1  UNL1        0.0680
     12  C         16.9970  -22.3740   -8.2060 C.3     1  UNL1        0.0240
     13  C         15.6050  -22.9860   -8.2870 C.3     1  UNL1        0.0020
     14  C         15.8900  -24.4730   -8.2130 C.3     1  UNL1        0.0020
     15  C         16.9390  -24.5720   -7.1120 C.3     1  UNL1        0.0240
     16  C         18.0070  -22.7270   -5.8040 C.2     1  UNL1       -0.0400
     17  C         18.5450  -21.4550   -5.5500 C.2     1  UNL1        0.0080
     18  C         18.7070  -20.9890   -4.2420 C.2     1  UNL1        0.0010
     19  C         18.3180  -21.7770   -3.1640 C.2     1  UNL1        0.0000
     20  C         17.7570  -23.0290   -3.3900 C.2     1  UNL1        0.0010
     21  C         17.5950  -23.4950   -4.6960 C.2     1  UNL1        0.0080
     22  S         24.9630  -21.8700  -11.3270 S.O2    1  UNL1        0.2470
     23  O         25.6610  -23.1390  -11.2440 O.2     1  UNL1       -0.2050
     24  O         25.6000  -20.6570  -10.8620 O.2     1  UNL1       -0.2050
     25  N         24.4820  -21.7460  -12.9330 N.pl3   1  UNL1       -0.1590
     26  H         24.3280  -22.6770  -13.3120 H       1  UNL1        0.1480
     27  C         25.3720  -20.9300  -13.7230 C.2     1  UNL1        0.1580
     28  N         25.0220  -19.7280  -14.1040 N.2     1  UNL1       -0.2400
     29  C         26.0350  -19.1870  -14.8730 C.2     1  UNL1        0.1260
     30  C         27.1200  -20.0110  -15.0910 C.2     1  UNL1        0.0720
     31  S         26.8630  -21.5180  -14.3110 S.3     1  UNL1       -0.0680
@<TRIPOS>BOND
     1    30    29    2
     2    30    31    1
     3    29    28    1
     4    31    27    1
     5    28    27    2
     6    27    25    1
     7    26    25    1
     8    25    22    1
     9    22    23    2
    10    22    24    2
    11    22     4    1
    12     3     2    1
    13     3     4    2
    14     2     1    2
    15     4     5    1
    16     1     7    1
    17     1     6    1
    18     5     6    2
    19     7    10    1
    20     7     8   am
    21    13    14    1
    22    13    12    1
    23    14    15    1
    24    12    11    1
    25     9     8    2
    26     8    11    1
    27    11    15    1
    28    11    16    1
    29    16    17    2
    30    16    21    1
    31    17    18    1
    32    21    20    2
    33    18    19    2
    34    20    19    1
