@<TRIPOS>MOLECULE
79141_out_ligand_01.pdbqt
 28 30 0 0 0
SMALL
GASTEIGER

@<TRIPOS>ATOM
      1  N         18.8630  -22.3800   -9.1100 N.am    1  UNL1       -0.3260
      2  C         18.6780  -23.4000   -8.1870 C.2     1  UNL1        0.2350
      3  O         19.4170  -24.3730   -8.0510 O.2     1  UNL1       -0.2720
      4  H         18.1130  -21.7020   -9.1830 H       1  UNL1        0.1690
      5  C         19.9150  -22.2310  -10.0360 C.2     1  UNL1        0.0340
      6  C         19.6210  -21.5620  -11.2310 C.2     1  UNL1        0.0300
      7  C         20.6090  -21.3660  -12.2020 C.2     1  UNL1        0.0190
      8  C         21.9110  -21.8290  -11.9860 C.2     1  UNL1        0.0330
      9  C         22.2070  -22.5080  -10.8000 C.2     1  UNL1        0.0190
     10  C         21.2120  -22.7020   -9.8310 C.2     1  UNL1        0.0300
     11  C         22.9280  -21.5960  -13.0480 C.2     1  UNL1        0.2650
     12  N         22.5680  -20.7310  -14.0770 N.am    1  UNL1       -0.2900
     13  H         21.5990  -20.4490  -14.2010 H       1  UNL1        0.1830
     14  O         24.0120  -22.1740  -13.0140 O.2     1  UNL1       -0.2660
     15  N         23.4540  -20.5610  -15.1650 N.3     1  UNL1       -0.2470
     16  H         23.8580  -19.6210  -15.0790 H       1  UNL1        0.1430
     17  H         24.2620  -21.1730  -14.9870 H       1  UNL1        0.1430
     18  C         17.4250  -23.1910   -7.2810 C.3     1  UNL1        0.0680
     19  C         16.6250  -24.5110   -7.2060 C.3     1  UNL1        0.0240
     20  C         15.9110  -24.6020   -8.5490 C.3     1  UNL1        0.0020
     21  C         15.5950  -23.1620   -8.9340 C.3     1  UNL1        0.0020
     22  C         16.3860  -22.2730   -7.9700 C.3     1  UNL1        0.0240
     23  C         17.8570  -22.6030   -5.9330 C.2     1  UNL1       -0.0400
     24  C         17.4940  -23.2640   -4.7430 C.2     1  UNL1        0.0080
     25  C         17.8400  -22.7470   -3.4940 C.2     1  UNL1        0.0010
     26  C         18.5520  -21.5540   -3.4080 C.2     1  UNL1        0.0000
     27  C         18.9150  -20.8800   -4.5710 C.2     1  UNL1        0.0010
     28  C         18.5680  -21.3960   -5.8220 C.2     1  UNL1        0.0080
@<TRIPOS>BOND
     1    15    16    1
     2    15    17    1
     3    15    12    1
     4    13    12    1
     5    12    11   am
     6    11    14    2
     7    11     8    1
     8     7     8    2
     9     7     6    1
    10     8     9    1
    11     6     5    2
    12     9    10    2
    13     5    10    1
    14     5     1    1
    15     4     1    1
    16     1     2   am
    17    21    20    1
    18    21    22    1
    19    20    19    1
    20     2     3    2
    21     2    18    1
    22    22    18    1
    23    18    19    1
    24    18    23    1
    25    23    28    2
    26    23    24    1
    27    28    27    1
    28    24    25    2
    29    27    26    2
    30    25    26    1
