@<TRIPOS>MOLECULE
79159_out_ligand_01.pdbqt
 37 40 0 0 0
SMALL
GASTEIGER

@<TRIPOS>ATOM
      1  C         22.7490  -22.2650   -9.3550 C.2     1  UNL1        0.2930
      2  O         23.3950  -21.2320   -9.3370 O.2     1  UNL1       -0.2590
      3  O         23.2340  -23.5180   -9.1750 O.3     1  UNL1       -0.3080
      4  C         24.6580  -23.6490   -9.2760 C.3     1  UNL1        0.2820
      5  C         25.1850  -23.1180  -10.6110 C.2     1  UNL1        0.2460
      6  N         24.3290  -23.4020  -11.6640 N.am    1  UNL1       -0.3250
      7  H         23.4800  -23.8970  -11.4120 H       1  UNL1        0.1690
      8  O         26.2300  -22.4790  -10.6710 O.2     1  UNL1       -0.2710
      9  C         24.4920  -23.1020  -13.0260 C.2     1  UNL1        0.0340
     10  C         25.0900  -23.9620  -13.9510 C.2     1  UNL1        0.0310
     11  C         25.1990  -23.5930  -15.2980 C.2     1  UNL1        0.0270
     12  C         24.6940  -22.3620  -15.7190 C.2     1  UNL1        0.0740
     13  C         24.1080  -21.4840  -14.8040 C.2     1  UNL1        0.0270
     14  C         24.0080  -21.8590  -13.4620 C.2     1  UNL1        0.0310
     15  S         24.8080  -21.8910  -17.4260 S.O2    1  UNL1        0.2390
     16  O         26.1870  -21.9960  -17.8370 O.2     1  UNL1       -0.2060
     17  O         23.7270  -22.5170  -18.1520 O.2     1  UNL1       -0.2060
     18  N         24.4100  -20.2550  -17.3470 N.3     1  UNL1       -0.2250
     19  H         25.1810  -19.7140  -17.7400 H       1  UNL1        0.1360
     20  H         23.5240  -20.0380  -17.8030 H       1  UNL1        0.1360
     21  C         21.2760  -22.3110   -9.5610 C.2     1  UNL1        0.0410
     22  C         20.7780  -22.1360  -10.8520 C.2     1  UNL1        0.0180
     23  C         19.4030  -22.1490  -11.0660 C.2     1  UNL1        0.0030
     24  C         18.5240  -22.3180   -9.9900 C.2     1  UNL1        0.0300
     25  C         18.9930  -22.4730   -8.6760 C.2     1  UNL1        0.0460
     26  C         20.3850  -22.4820   -8.4890 C.2     1  UNL1        0.0480
     27  N         18.0990  -22.6100   -7.5690 N.am    1  UNL1       -0.2440
     28  C         18.3210  -22.0870   -6.3070 C.2     1  UNL1        0.2660
     29  O         19.2230  -21.3930   -5.8660 O.2     1  UNL1       -0.2670
     30  C         17.1830  -22.4680   -5.4760 C.2     1  UNL1        0.0480
     31  C         16.9280  -22.2210   -4.1380 C.2     1  UNL1        0.0180
     32  C         16.3050  -23.1750   -6.2680 C.2     1  UNL1        0.0480
     33  C         15.7340  -22.7250   -3.6090 C.2     1  UNL1        0.0010
     34  C         14.8350  -23.4480   -4.4190 C.2     1  UNL1        0.0010
     35  C         15.1170  -23.6810   -5.7700 C.2     1  UNL1        0.0180
     36  C         16.8810  -23.2600   -7.6080 C.2     1  UNL1        0.2660
     37  O         16.2990  -23.8440   -8.5050 O.2     1  UNL1       -0.2670
@<TRIPOS>BOND
     1    17    15    2
     2    16    15    2
     3    20    18    1
     4    19    18    1
     5    15    18    1
     6    15    12    1
     7    12    11    2
     8    12    13    1
     9    11    10    1
    10    13    14    2
    11    10     9    2
    12    14     9    1
    13     9     6    1
    14     6     7    1
    15     6     5   am
    16    23    22    1
    17    23    24    2
    18    22    21    2
    19     8     5    2
    20     5     4    1
    21    24    25    1
    22    21     1    1
    23    21    26    1
    24     1     2    2
    25     1     3    1
    26     4     3    1
    27    25    26    2
    28    25    27    1
    29    37    36    2
    30    36    27   am
    31    36    32    1
    32    27    28   am
    33    28    29    2
    34    28    30    1
    35    32    35    1
    36    32    30    2
    37    35    34    2
    38    30    31    1
    39    34    33    1
    40    31    33    2
