@<TRIPOS>MOLECULE
79170_out_ligand_01.pdbqt
 31 33 0 0 0
SMALL
GASTEIGER

@<TRIPOS>ATOM
      1  C         23.4190  -21.9660  -11.3140 C.2     1  UNL1       -0.0280
      2  C         22.0910  -22.1600  -11.7200 C.2     1  UNL1        0.0120
      3  C         21.0660  -22.3170  -10.7770 C.2     1  UNL1        0.0300
      4  C         21.3330  -22.2660   -9.4060 C.2     1  UNL1        0.0350
      5  C         22.6440  -22.0490   -8.9930 C.2     1  UNL1        0.0300
      6  C         23.6700  -21.8920   -9.9340 C.2     1  UNL1        0.0120
      7  N         20.2450  -22.4440   -8.5270 N.am    1  UNL1       -0.3230
      8  C         19.6850  -23.6410   -8.1180 C.2     1  UNL1        0.2560
      9  O         20.0770  -24.7690   -8.3910 O.2     1  UNL1       -0.2670
     10  H         19.8820  -21.6000   -8.1040 H       1  UNL1        0.1690
     11  C         18.5050  -23.5060   -7.2180 C.2     1  UNL1        0.0320
     12  C         18.5150  -22.4970   -6.2480 C.2     1  UNL1        0.0180
     13  C         17.4290  -22.3400   -5.3840 C.2     1  UNL1        0.0170
     14  C         16.3180  -23.1940   -5.4730 C.2     1  UNL1        0.0480
     15  C         16.3270  -24.2210   -6.4310 C.2     1  UNL1        0.0170
     16  C         17.4130  -24.3790   -7.2980 C.2     1  UNL1        0.0180
     17  C         15.1540  -23.0420   -4.5220 C.3     1  UNL1        0.4170
     18  F         14.2500  -24.0560   -4.6280 F       1  UNL1       -0.1660
     19  F         14.4490  -21.8940   -4.7180 F       1  UNL1       -0.1660
     20  F         15.5490  -23.0250   -3.2210 F       1  UNL1       -0.1660
     21  C         24.5590  -21.7650  -12.3070 C.3     1  UNL1        0.1760
     22  C         24.2080  -21.9610  -13.8060 C.3     1  UNL1        0.1410
     23  C         24.5120  -20.6860  -14.6120 C.3     1  UNL1        0.1960
     24  O         24.1110  -20.8890  -15.9740 O.3     1  UNL1       -0.3800
     25  C         24.8700  -21.9380  -16.5720 C.3     1  UNL1        0.2700
     26  C         25.0250  -23.2310  -15.7550 C.2     1  UNL1        0.2410
     27  O         25.2930  -24.3200  -16.2560 O.2     1  UNL1       -0.2710
     28  N         24.9270  -23.1000  -14.3900 N.am    1  UNL1       -0.3500
     29  H         24.9160  -23.9920  -13.9080 H       1  UNL1        0.1630
     30  O         25.6340  -22.6580  -11.9880 O.3     1  UNL1       -0.3890
     31  H         25.5790  -23.3890  -12.6320 H       1  UNL1        0.2100
@<TRIPOS>BOND
     1    25    24    1
     2    25    26    1
     3    27    26    2
     4    24    23    1
     5    26    28   am
     6    23    22    1
     7    28    29    1
     8    28    22    1
     9    22    21    1
    10    31    30    1
    11    21    30    1
    12    21     1    1
    13     2     1    2
    14     2     3    1
    15     1     6    1
    16     3     4    2
    17     6     5    2
    18     4     5    1
    19     4     7    1
    20     7     8   am
    21     7    10    1
    22     9     8    2
    23     8    11    1
    24    16    11    2
    25    16    15    1
    26    11    12    1
    27    15    14    2
    28    12    13    2
    29    14    13    1
    30    14    17    1
    31    19    17    1
    32    18    17    1
    33    17    20    1
