@<TRIPOS>MOLECULE
79173_out_ligand_01.pdbqt
 37 41 0 0 0
SMALL
GASTEIGER

@<TRIPOS>ATOM
      1  C         21.2990  -22.2390  -11.1020 C.2     1  UNL1        0.0350
      2  C         22.5820  -22.7440  -11.3080 C.2     1  UNL1        0.0300
      3  C         23.3130  -22.3890  -12.4500 C.2     1  UNL1        0.0120
      4  C         22.7740  -21.5180  -13.4040 C.2     1  UNL1       -0.0280
      5  C         21.4860  -21.0050  -13.1890 C.2     1  UNL1        0.0120
      6  C         20.7590  -21.3620  -12.0500 C.2     1  UNL1        0.0300
      7  C         23.5760  -21.1370  -14.6330 C.3     1  UNL1        0.1760
      8  O         24.1220  -19.8420  -14.3660 O.3     1  UNL1       -0.3890
      9  H         23.5790  -19.1990  -14.8540 H       1  UNL1        0.2100
     10  C         24.7260  -22.1370  -14.9810 C.3     1  UNL1        0.1440
     11  C         24.3110  -23.0950  -16.1110 C.3     1  UNL1        0.1960
     12  O         23.9730  -22.3330  -17.2720 O.3     1  UNL1       -0.3800
     13  C         25.0940  -21.5980  -17.7410 C.3     1  UNL1        0.2700
     14  C         26.1480  -21.0740  -16.7410 C.2     1  UNL1        0.2440
     15  O         27.1120  -20.4190  -17.1360 O.2     1  UNL1       -0.2710
     16  N         25.9720  -21.4450  -15.4130 N.am    1  UNL1       -0.3360
     17  C         27.0200  -21.1590  -14.4330 C.3     1  UNL1        0.1680
     18  C         26.8990  -21.8920  -13.1260 C.2     1  UNL1       -0.0020
     19  C         27.1210  -23.2740  -13.0320 C.2     1  UNL1        0.0120
     20  C         26.9800  -23.9370  -11.8090 C.2     1  UNL1        0.0010
     21  C         26.6050  -23.2300  -10.6660 C.2     1  UNL1        0.0030
     22  C         26.3670  -21.8600  -10.7480 C.2     1  UNL1        0.0430
     23  C         26.5110  -21.2060  -11.9700 C.2     1  UNL1        0.1240
     24  F         26.2640  -19.8880  -12.0230 F       1  UNL1       -0.2050
     25  N         20.5020  -22.5460   -9.9780 N.am    1  UNL1       -0.3230
     26  C         20.8660  -22.4690   -8.6470 C.2     1  UNL1        0.2560
     27  O         21.9700  -22.1840   -8.1990 O.2     1  UNL1       -0.2670
     28  H         19.5910  -22.9330  -10.1840 H       1  UNL1        0.1690
     29  C         19.7850  -22.8170   -7.6840 C.2     1  UNL1        0.0350
     30  C         19.0220  -23.9980   -7.8300 C.2     1  UNL1        0.0200
     31  C         18.0090  -24.3050   -6.9160 C.2     1  UNL1        0.0410
     32  C         17.7820  -23.4150   -5.8880 C.2     1  UNL1        0.1050
     33  C         18.5120  -22.2570   -5.7540 C.2     1  UNL1        0.1060
     34  O         16.8410  -23.5500   -4.9160 O.2     1  UNL1       -0.3230
     35  C         19.5170  -21.9230   -6.6370 C.2     1  UNL1        0.0560
     36  O         18.1220  -21.5200   -4.6800 O.2     1  UNL1       -0.3230
     37  C         17.0520  -22.3370   -4.1620 C.3     1  UNL1        0.3520
@<TRIPOS>BOND
     1    13    12    1
     2    13    14    1
     3    12    11    1
     4    15    14    2
     5    14    16   am
     6    11    10    1
     7    16    10    1
     8    16    17    1
     9    10     7    1
    10     9     8    1
    11     7     8    1
    12     7     4    1
    13    17    18    1
    14     4     5    2
    15     4     3    1
    16     5     6    1
    17    18    19    2
    18    18    23    1
    19    19    20    1
    20     3     2    2
    21     6     1    2
    22    24    23    1
    23    23    22    2
    24    20    21    2
    25     2     1    1
    26     1    25    1
    27    22    21    1
    28    28    25    1
    29    25    26   am
    30    26    27    2
    31    26    29    1
    32    30    29    2
    33    30    31    1
    34    29    35    1
    35    31    32    2
    36    35    33    2
    37    32    33    1
    38    32    34    1
    39    33    36    1
    40    34    37    1
    41    36    37    1
