@<TRIPOS>MOLECULE
79188_out_ligand_01.pdbqt
 32 35 0 0 0
SMALL
GASTEIGER

@<TRIPOS>ATOM
      1  N         15.5130  -23.3050   -3.1600 N.1     1  UNL1       -0.1910
      2  C         16.3370  -23.1340   -3.9600 C.1     1  UNL1        0.0990
      3  C         17.3490  -22.9270   -4.9550 C.2     1  UNL1        0.0440
      4  C         18.1330  -21.7690   -4.9310 C.2     1  UNL1        0.0240
      5  C         19.1190  -21.5710   -5.9010 C.2     1  UNL1        0.0180
      6  C         19.3220  -22.5250   -6.9070 C.2     1  UNL1        0.0320
      7  C         18.5480  -23.6930   -6.9220 C.2     1  UNL1        0.0180
      8  C         17.5610  -23.8900   -5.9500 C.2     1  UNL1        0.0240
      9  C         20.3900  -22.2750   -7.9170 C.2     1  UNL1        0.2560
     10  O         21.5250  -22.0610   -7.5120 O.2     1  UNL1       -0.2670
     11  N         19.9610  -22.2770   -9.2330 N.am    1  UNL1       -0.3230
     12  H         18.9640  -22.3360   -9.3920 H       1  UNL1        0.1690
     13  C         20.7510  -22.1120  -10.3890 C.2     1  UNL1        0.0350
     14  C         20.2470  -21.2800  -11.3960 C.2     1  UNL1        0.0300
     15  C         20.9670  -21.0690  -12.5760 C.2     1  UNL1        0.0120
     16  C         22.2070  -21.6900  -12.7760 C.2     1  UNL1       -0.0280
     17  C         22.7080  -22.5220  -11.7670 C.2     1  UNL1        0.0120
     18  C         21.9850  -22.7300  -10.5860 C.2     1  UNL1        0.0300
     19  C         23.0050  -21.4620  -14.0450 C.3     1  UNL1        0.1760
     20  O         22.8050  -20.0910  -14.4270 O.3     1  UNL1       -0.3890
     21  H         21.8480  -19.9790  -14.5660 H       1  UNL1        0.2100
     22  C         24.5290  -21.7600  -13.8900 C.3     1  UNL1        0.1440
     23  C         24.9130  -23.0990  -14.5370 C.3     1  UNL1        0.1960
     24  O         24.6020  -23.0520  -15.9320 O.3     1  UNL1       -0.3800
     25  C         25.3720  -22.0500  -16.5830 C.3     1  UNL1        0.2700
     26  C         25.6730  -20.7240  -15.8520 C.2     1  UNL1        0.2440
     27  O         26.2260  -19.7940  -16.4380 O.2     1  UNL1       -0.2710
     28  N         25.3530  -20.6910  -14.5000 N.am    1  UNL1       -0.3400
     29  C         25.7000  -19.5240  -13.7020 C.3     1  UNL1        0.1310
     30  C         26.7220  -19.9090  -12.6730 C.3     1  UNL1        0.0040
     31  C         26.3200  -20.2750  -11.2660 C.3     1  UNL1        0.0070
     32  C         27.0330  -18.9770  -11.5290 C.3     1  UNL1        0.0070
@<TRIPOS>BOND
     1    25    24    1
     2    25    26    1
     3    27    26    2
     4    24    23    1
     5    26    28   am
     6    21    20    1
     7    23    22    1
     8    28    22    1
     9    28    29    1
    10    20    19    1
    11    19    22    1
    12    19    16    1
    13    29    30    1
    14    16    15    2
    15    16    17    1
    16    30    32    1
    17    30    31    1
    18    15    14    1
    19    17    18    2
    20    32    31    1
    21    14    13    2
    22    18    13    1
    23    13    11    1
    24    12    11    1
    25    11     9   am
    26     9    10    2
    27     9     6    1
    28     7     6    2
    29     7     8    1
    30     6     5    1
    31     8     3    2
    32     5     4    2
    33     3     4    1
    34     3     2    1
    35     2     1    3
