@<TRIPOS>MOLECULE
79199_out_ligand_01.pdbqt
 29 31 0 0 0
SMALL
GASTEIGER

@<TRIPOS>ATOM
      1  C         19.3390  -22.4520   -6.9490 C.2     1  UNL1        0.0320
      2  C         18.4970  -23.5720   -6.9380 C.2     1  UNL1        0.0180
      3  C         17.5120  -23.6960   -5.9530 C.2     1  UNL1        0.0240
      4  C         17.3570  -22.7010   -4.9800 C.2     1  UNL1        0.0440
      5  C         16.3460  -22.8310   -3.9710 C.1     1  UNL1        0.0990
      6  N         15.5290  -22.9460   -3.1550 N.1     1  UNL1       -0.1910
      7  C         18.1880  -21.5750   -5.0010 C.2     1  UNL1        0.0240
      8  C         19.1710  -21.4490   -5.9860 C.2     1  UNL1        0.0180
      9  C         20.3970  -22.2720   -7.9850 C.2     1  UNL1        0.2560
     10  N         19.9430  -22.3010   -9.2910 N.am    1  UNL1       -0.3230
     11  H         18.9750  -22.5520   -9.4380 H       1  UNL1        0.1690
     12  O         21.5550  -22.1500   -7.6090 O.2     1  UNL1       -0.2670
     13  C         20.7080  -22.1170  -10.4630 C.2     1  UNL1        0.0350
     14  C         20.1920  -21.2480  -11.4320 C.2     1  UNL1        0.0300
     15  C         20.8880  -21.0060  -12.6220 C.2     1  UNL1        0.0120
     16  C         22.1170  -21.6300  -12.8640 C.2     1  UNL1       -0.0280
     17  C         22.6320  -22.4960  -11.8900 C.2     1  UNL1        0.0120
     18  C         21.9350  -22.7340  -10.7010 C.2     1  UNL1        0.0300
     19  C         22.8590  -21.3790  -14.1630 C.3     1  UNL1        0.1760
     20  C         24.3230  -21.9200  -14.1760 C.3     1  UNL1        0.1430
     21  C         24.6600  -22.6380  -15.4930 C.3     1  UNL1        0.1960
     22  O         24.5380  -21.7160  -16.5800 O.3     1  UNL1       -0.3800
     23  C         25.4880  -20.6660  -16.4440 C.3     1  UNL1        0.2700
     24  C         25.7190  -20.0520  -15.0470 C.2     1  UNL1        0.2430
     25  N         25.3180  -20.8370  -13.9680 N.am    1  UNL1       -0.3450
     26  O         26.2880  -18.9680  -14.9180 O.2     1  UNL1       -0.2710
     27  C         25.4830  -20.2980  -12.6290 C.3     1  UNL1        0.1530
     28  O         22.8650  -19.9580  -14.3830 O.3     1  UNL1       -0.3890
     29  H         23.1910  -19.5460  -13.5630 H       1  UNL1        0.2100
@<TRIPOS>BOND
     1    22    23    1
     2    22    21    1
     3    23    24    1
     4    21    20    1
     5    24    26    2
     6    24    25   am
     7    28    19    1
     8    28    29    1
     9    20    19    1
    10    20    25    1
    11    19    16    1
    12    25    27    1
    13    16    15    2
    14    16    17    1
    15    15    14    1
    16    17    18    2
    17    14    13    2
    18    18    13    1
    19    13    10    1
    20    11    10    1
    21    10     9   am
    22     9    12    2
    23     9     1    1
    24     1     2    2
    25     1     8    1
    26     2     3    1
    27     8     7    2
    28     3     4    2
    29     7     4    1
    30     4     5    1
    31     5     6    3
