@<TRIPOS>MOLECULE
79202_out_ligand_01.pdbqt
 34 37 0 0 0
SMALL
GASTEIGER

@<TRIPOS>ATOM
      1  C         20.5190  -22.9340   -9.6250 C.3     1  UNL1        0.1760
      2  C         21.3460  -22.5190  -10.8270 C.2     1  UNL1       -0.0280
      3  C         22.6410  -23.0240  -10.9980 C.2     1  UNL1        0.0120
      4  C         23.4240  -22.6320  -12.0900 C.2     1  UNL1        0.0300
      5  C         22.9260  -21.7360  -13.0340 C.2     1  UNL1        0.0350
      6  C         21.6350  -21.2270  -12.8660 C.2     1  UNL1        0.0300
      7  C         20.8540  -21.6040  -11.7680 C.2     1  UNL1        0.0120
      8  N         23.6480  -21.3040  -14.1600 N.am    1  UNL1       -0.3220
      9  C         24.8450  -20.6130  -14.1960 C.2     1  UNL1        0.2760
     10  O         25.5030  -20.2160  -13.2420 O.2     1  UNL1       -0.2660
     11  H         23.2520  -21.5020  -15.0780 H       1  UNL1        0.1690
     12  C         25.3170  -20.3420  -15.5850 C.2     1  UNL1        0.1410
     13  C         26.4940  -19.6420  -15.8010 C.2     1  UNL1        0.1530
     14  N         26.9550  -19.3750  -17.0510 N.2     1  UNL1       -0.2690
     15  C         26.1890  -19.8390  -18.0640 C.2     1  UNL1        0.1350
     16  C         25.0120  -20.5400  -17.8480 C.2     1  UNL1        0.1360
     17  N         24.5400  -20.8100  -16.6070 N.2     1  UNL1       -0.2530
     18  O         21.2720  -22.5090   -8.4750 O.3     1  UNL1       -0.3890
     19  H         21.3270  -21.5380   -8.5150 H       1  UNL1        0.2100
     20  C         19.0680  -22.3570   -9.5470 C.3     1  UNL1        0.1440
     21  C         18.4380  -22.2230  -10.9480 C.3     1  UNL1        0.1960
     22  O         17.2420  -21.4490  -10.8520 O.3     1  UNL1       -0.3800
     23  C         16.2850  -22.1000  -10.0370 C.3     1  UNL1        0.2700
     24  C         16.7590  -22.7350   -8.7200 C.2     1  UNL1        0.2440
     25  O         15.9590  -22.9470   -7.8090 O.2     1  UNL1       -0.2710
     26  N         18.1090  -23.1230   -8.6790 N.am    1  UNL1       -0.3360
     27  C         18.5560  -23.7500   -7.4320 C.3     1  UNL1        0.1680
     28  C         18.5220  -22.8020   -6.2540 C.2     1  UNL1       -0.0020
     29  C         19.2100  -21.5790   -6.2950 C.2     1  UNL1        0.0120
     30  C         19.1890  -20.7130   -5.1980 C.2     1  UNL1        0.0010
     31  C         18.4790  -21.0550   -4.0470 C.2     1  UNL1        0.0030
     32  C         17.7890  -22.2620   -3.9960 C.2     1  UNL1        0.0430
     33  C         17.8130  -23.1220   -5.0930 C.2     1  UNL1        0.1240
     34  F         17.1440  -24.2790   -5.0100 F       1  UNL1       -0.2050
@<TRIPOS>BOND
     1    15    16    2
     2    15    14    1
     3    16    17    1
     4    14    13    2
     5    17    12    2
     6    13    12    1
     7    12     9    1
     8    11     8    1
     9     9     8   am
    10     9    10    2
    11     8     5    1
    12     5     6    2
    13     5     4    1
    14     6     7    1
    15     4     3    2
    16     7     2    2
    17     3     2    1
    18    21    22    1
    19    21    20    1
    20    22    23    1
    21     2     1    1
    22    23    24    1
    23     1    20    1
    24     1    18    1
    25    20    26    1
    26    24    26   am
    27    24    25    2
    28    26    27    1
    29    19    18    1
    30    27    28    1
    31    29    28    2
    32    29    30    1
    33    28    33    1
    34    30    31    2
    35    33    34    1
    36    33    32    2
    37    31    32    1
