@<TRIPOS>MOLECULE
79213_out_ligand_01.pdbqt
 29 31 0 0 0
SMALL
GASTEIGER

@<TRIPOS>ATOM
      1  N         15.1300  -24.2760   -4.0620 N.1     1  UNL1       -0.1910
      2  C         16.0110  -23.9750   -4.7540 C.1     1  UNL1        0.0990
      3  C         17.0990  -23.5950   -5.6080 C.2     1  UNL1        0.0440
      4  C         17.7950  -22.4040   -5.3700 C.2     1  UNL1        0.0240
      5  C         18.8570  -22.0290   -6.2010 C.2     1  UNL1        0.0180
      6  C         19.2210  -22.8430   -7.2810 C.2     1  UNL1        0.0320
      7  C         18.5350  -24.0440   -7.5080 C.2     1  UNL1        0.0180
      8  C         17.4730  -24.4160   -6.6770 C.2     1  UNL1        0.0240
      9  C         20.3520  -22.4910   -8.1870 C.2     1  UNL1        0.2560
     10  O         21.4150  -22.1620   -7.6780 O.2     1  UNL1       -0.2670
     11  N         20.0770  -22.6150   -9.5380 N.am    1  UNL1       -0.3230
     12  H         19.1930  -23.0360   -9.7920 H       1  UNL1        0.1690
     13  C         20.9370  -22.3120  -10.6140 C.2     1  UNL1        0.0350
     14  C         22.2190  -22.8390  -10.7610 C.2     1  UNL1        0.0300
     15  C         23.0130  -22.4840  -11.8580 C.2     1  UNL1        0.0120
     16  C         22.5400  -21.5900  -12.8270 C.2     1  UNL1       -0.0280
     17  C         21.2540  -21.0590  -12.6760 C.2     1  UNL1        0.0120
     18  C         20.4630  -21.4150  -11.5790 C.2     1  UNL1        0.0300
     19  C         23.3840  -21.2140  -14.0270 C.3     1  UNL1        0.1760
     20  O         22.7620  -20.0960  -14.6860 O.3     1  UNL1       -0.3890
     21  H         23.4770  -19.5660  -15.0820 H       1  UNL1        0.2100
     22  C         24.8460  -20.8210  -13.6730 C.3     1  UNL1        0.1410
     23  C         25.8180  -22.0060  -13.7810 C.3     1  UNL1        0.1960
     24  O         25.8770  -22.4570  -15.1400 O.3     1  UNL1       -0.3800
     25  C         26.3920  -21.4290  -15.9870 C.3     1  UNL1        0.2700
     26  C         25.8180  -20.0130  -15.7980 C.2     1  UNL1        0.2410
     27  O         25.8680  -19.1480  -16.6670 O.2     1  UNL1       -0.2710
     28  N         25.3030  -19.7390  -14.5530 N.am    1  UNL1       -0.3500
     29  H         24.8130  -18.8520  -14.4920 H       1  UNL1        0.1630
@<TRIPOS>BOND
     1    27    26    2
     2    25    26    1
     3    25    24    1
     4    26    28   am
     5    24    23    1
     6    21    20    1
     7    20    19    1
     8    28    29    1
     9    28    22    1
    10    19    22    1
    11    19    16    1
    12    23    22    1
    13    16    17    2
    14    16    15    1
    15    17    18    1
    16    15    14    2
    17    18    13    2
    18    14    13    1
    19    13    11    1
    20    12    11    1
    21    11     9   am
    22     9    10    2
    23     9     6    1
    24     7     6    2
    25     7     8    1
    26     6     5    1
    27     8     3    2
    28     5     4    2
    29     3     4    1
    30     3     2    1
    31     2     1    3
