@<TRIPOS>MOLECULE
79224_out_ligand_01.pdbqt
 36 39 0 0 0
SMALL
GASTEIGER

@<TRIPOS>ATOM
      1  C         22.8400  -21.7910  -12.8690 C.2     1  UNL1        0.0350
      2  C         21.5630  -21.2540  -12.6800 C.2     1  UNL1        0.0300
      3  C         20.7880  -21.6220  -11.5730 C.2     1  UNL1        0.0120
      4  C         21.2790  -22.5390  -10.6340 C.2     1  UNL1       -0.0280
      5  C         22.5520  -23.0910  -10.8370 C.2     1  UNL1        0.0120
      6  C         23.3250  -22.7150  -11.9420 C.2     1  UNL1        0.0300
      7  C         20.4370  -22.9320   -9.4340 C.3     1  UNL1        0.1760
      8  O         21.1350  -22.4370   -8.2760 O.3     1  UNL1       -0.3890
      9  H         21.5610  -23.1980   -7.8420 H       1  UNL1        0.2100
     10  C         18.9680  -22.3930   -9.4340 C.3     1  UNL1        0.1440
     11  C         18.3810  -22.3530  -10.8610 C.3     1  UNL1        0.1960
     12  O         17.1810  -21.5730  -10.8550 O.3     1  UNL1       -0.3800
     13  C         16.2080  -22.1300   -9.9860 C.3     1  UNL1        0.2700
     14  C         16.6500  -22.7280   -8.6390 C.2     1  UNL1        0.2440
     15  O         15.8390  -22.8950   -7.7290 O.2     1  UNL1       -0.2710
     16  N         17.9910  -23.1340   -8.5710 N.am    1  UNL1       -0.3360
     17  C         18.4080  -23.7890   -7.3280 C.3     1  UNL1        0.1680
     18  C         18.4230  -22.8300   -6.1590 C.2     1  UNL1       -0.0020
     19  C         19.1520  -21.6310   -6.2210 C.2     1  UNL1        0.0120
     20  C         19.1500  -20.7410   -5.1420 C.2     1  UNL1        0.0010
     21  C         18.4210  -21.0330   -3.9900 C.2     1  UNL1        0.0030
     22  C         17.6960  -22.2230   -3.9170 C.2     1  UNL1        0.0430
     23  C         17.7030  -23.1070   -4.9930 C.2     1  UNL1        0.1240
     24  F         16.9920  -24.2440   -4.8970 F       1  UNL1       -0.2050
     25  N         23.5630  -21.3400  -13.9930 N.am    1  UNL1       -0.3230
     26  C         24.8460  -20.8300  -14.0270 C.2     1  UNL1        0.2590
     27  O         25.6070  -20.7120  -13.0730 O.2     1  UNL1       -0.2670
     28  H         23.0750  -21.3720  -14.8800 H       1  UNL1        0.1690
     29  C         25.3070  -20.3430  -15.3620 C.2     1  UNL1        0.0650
     30  C         26.0950  -19.1800  -15.3950 C.2     1  UNL1        0.0200
     31  C         26.5060  -18.6330  -16.6120 C.2     1  UNL1        0.0010
     32  C         26.1340  -19.2390  -17.8060 C.2     1  UNL1        0.0030
     33  C         25.3720  -20.4080  -17.7870 C.2     1  UNL1        0.0380
     34  C         24.9790  -20.9680  -16.5710 C.2     1  UNL1        0.0840
     35  O         24.2110  -22.1080  -16.6090 O.2     1  UNL1       -0.3550
     36  C         24.5970  -22.9110  -17.7320 C.3     1  UNL1        0.2100
@<TRIPOS>BOND
     1    32    33    2
     2    32    31    1
     3    33    34    1
     4    36    35    1
     5    31    30    2
     6    35    34    1
     7    34    29    2
     8    30    29    1
     9    29    26    1
    10    28    25    1
    11    26    25   am
    12    26    27    2
    13    25     1    1
    14     1     2    2
    15     1     6    1
    16     2     3    1
    17     6     5    2
    18     3     4    2
    19    11    12    1
    20    11    10    1
    21    12    13    1
    22     5     4    1
    23     4     7    1
    24    13    14    1
    25     7    10    1
    26     7     8    1
    27    10    16    1
    28    14    16   am
    29    14    15    2
    30    16    17    1
    31     8     9    1
    32    17    18    1
    33    19    18    2
    34    19    20    1
    35    18    23    1
    36    20    21    2
    37    23    24    1
    38    23    22    2
    39    21    22    1
