@<TRIPOS>MOLECULE
79250_out_ligand_01.pdbqt
 33 36 0 0 0
SMALL
GASTEIGER

@<TRIPOS>ATOM
      1  C         20.5380  -23.2320  -10.0600 C.3     1  UNL1        0.1760
      2  C         21.5410  -22.6580  -11.0440 C.2     1  UNL1       -0.0280
      3  C         21.1360  -21.7920  -12.0680 C.2     1  UNL1        0.0120
      4  C         22.0700  -21.2720  -12.9700 C.2     1  UNL1        0.0300
      5  C         23.4280  -21.5970  -12.8640 C.2     1  UNL1        0.0350
      6  C         23.8320  -22.4560  -11.8420 C.2     1  UNL1        0.0300
      7  C         22.8990  -22.9810  -10.9390 C.2     1  UNL1        0.0120
      8  N         24.2980  -21.0310  -13.8200 N.am    1  UNL1       -0.3230
      9  C         24.3910  -21.3300  -15.1740 C.2     1  UNL1        0.2630
     10  O         23.7340  -22.2080  -15.7280 O.2     1  UNL1       -0.2670
     11  H         24.9730  -20.3740  -13.4570 H       1  UNL1        0.1690
     12  C         25.3750  -20.5120  -15.8870 C.2     1  UNL1        0.0720
     13  C         25.8390  -20.6000  -17.1900 C.2     1  UNL1        0.0250
     14  C         26.8050  -19.5950  -17.4990 C.2     1  UNL1        0.0090
     15  C         27.0570  -18.7760  -16.4230 C.2     1  UNL1        0.0500
     16  S         26.1440  -19.2230  -15.0490 S.3     1  UNL1       -0.0970
     17  O         21.2440  -23.3590   -8.8170 O.3     1  UNL1       -0.3890
     18  H         22.1940  -23.3510   -9.0320 H       1  UNL1        0.2100
     19  C         19.2370  -22.3840   -9.8630 C.3     1  UNL1        0.1440
     20  C         18.6510  -21.9680  -11.2270 C.3     1  UNL1        0.1960
     21  O         17.5510  -21.0790  -11.0220 O.3     1  UNL1       -0.3800
     22  C         16.4930  -21.7510  -10.3660 C.3     1  UNL1        0.2700
     23  C         16.8370  -22.6400   -9.1620 C.2     1  UNL1        0.2440
     24  O         15.9450  -23.0180   -8.4010 O.2     1  UNL1       -0.2710
     25  N         18.1680  -23.0470   -9.0440 N.am    1  UNL1       -0.3370
     26  C         18.5230  -23.8210   -7.8500 C.3     1  UNL1        0.1650
     27  C         18.5070  -22.9930   -6.5810 C.2     1  UNL1       -0.0400
     28  C         19.2070  -21.7760   -6.5210 C.2     1  UNL1        0.0120
     29  C         19.1830  -20.9990   -5.3610 C.2     1  UNL1        0.0430
     30  C         18.4450  -21.4280   -4.2640 C.2     1  UNL1        0.1160
     31  F         18.4240  -20.6820   -3.1530 F       1  UNL1       -0.2060
     32  C         17.7280  -22.6170   -4.3080 C.2     1  UNL1        0.0430
     33  C         17.7530  -23.3940   -5.4660 C.2     1  UNL1        0.0120
@<TRIPOS>BOND
     1    14    13    1
     2    14    15    2
     3    13    12    2
     4    15    16    1
     5    12     9    1
     6    12    16    1
     7    10     9    2
     8     9     8   am
     9     8    11    1
    10     8     5    1
    11     4     5    2
    12     4     3    1
    13     5     6    1
    14     3     2    2
    15     6     7    2
    16    20    21    1
    17    20    19    1
    18     2     7    1
    19     2     1    1
    20    21    22    1
    21    22    23    1
    22     1    19    1
    23     1    17    1
    24    19    25    1
    25    23    25   am
    26    23    24    2
    27    25    26    1
    28    18    17    1
    29    26    27    1
    30    27    28    2
    31    27    33    1
    32    28    29    1
    33    33    32    2
    34    29    30    2
    35    32    30    1
    36    30    31    1
