@<TRIPOS>MOLECULE
7928_out_ligand_01.pdbqt
 34 38 0 0 0
SMALL
GASTEIGER

@<TRIPOS>ATOM
      1  C         21.9360  -23.2440   -9.3730 C.2     1  UNL1        0.0320
      2  C         21.7180  -22.2360  -10.3190 C.2     1  UNL1        0.0170
      3  C         22.7930  -21.6480  -10.9930 C.2     1  UNL1        0.0100
      4  C         24.1050  -22.0700  -10.7420 C.2     1  UNL1       -0.0300
      5  C         24.3200  -23.0700   -9.7810 C.2     1  UNL1        0.0100
      6  C         23.2450  -23.6640   -9.1090 C.2     1  UNL1        0.0170
      7  C         20.7480  -23.8650   -8.7230 C.2     1  UNL1        0.2520
      8  O         20.6000  -25.0810   -8.7690 O.2     1  UNL1       -0.2680
      9  N         19.8670  -23.0160   -8.0940 N.am    1  UNL1       -0.3440
     10  H         20.0310  -22.0230   -8.0750 H       1  UNL1        0.1630
     11  C         18.7750  -23.5090   -7.2700 C.3     1  UNL1        0.1510
     12  C         18.6860  -22.6050   -6.0400 C.2     1  UNL1       -0.0310
     13  C         19.3300  -21.3560   -6.0620 C.2     1  UNL1        0.0090
     14  C         19.2430  -20.4860   -4.9720 C.2     1  UNL1        0.0010
     15  C         18.5040  -20.8500   -3.8490 C.2     1  UNL1        0.0000
     16  C         17.8410  -22.0780   -3.8170 C.2     1  UNL1        0.0010
     17  C         17.9200  -22.9450   -4.9100 C.2     1  UNL1        0.0090
     18  C         17.4590  -23.6670   -8.0340 C.2     1  UNL1       -0.0310
     19  C         16.4820  -24.6160   -7.6900 C.2     1  UNL1        0.0090
     20  C         15.2950  -24.7210   -8.4230 C.2     1  UNL1        0.0010
     21  C         15.0600  -23.8720   -9.5040 C.2     1  UNL1        0.0000
     22  C         16.0130  -22.9210   -9.8580 C.2     1  UNL1        0.0010
     23  C         17.1960  -22.8150   -9.1250 C.2     1  UNL1        0.0090
     24  C         25.2660  -21.4250  -11.4730 C.3     1  UNL1        0.3110
     25  N         25.0010  -21.1300  -12.8930 N.3     1  UNL1        0.0970
     26  C         25.0660  -22.3740  -13.6800 C.3     1  UNL1        0.2770
     27  C         24.6330  -22.1460  -15.1370 C.3     1  UNL1        0.0690
     28  C         25.2310  -20.9020  -15.7460 C.2     1  UNL1       -0.0490
     29  C         25.1330  -20.6800  -17.1280 C.2     1  UNL1        0.0070
     30  C         25.8470  -19.9440  -14.9250 C.2     1  UNL1       -0.0240
     31  C         25.6680  -19.5270  -17.6970 C.2     1  UNL1        0.0010
     32  C         26.3060  -18.5880  -16.8910 C.2     1  UNL1        0.0010
     33  C         26.3970  -18.7950  -15.5130 C.2     1  UNL1        0.0090
     34  C         25.9930  -20.1740  -13.4330 C.3     1  UNL1        0.3110
@<TRIPOS>BOND
     1    31    29    1
     2    31    32    2
     3    29    28    2
     4    32    33    1
     5    28    27    1
     6    28    30    1
     7    33    30    2
     8    27    26    1
     9    30    34    1
    10    26    25    1
    11    34    25    1
    12    25    24    1
    13    24     4    1
    14     3     4    2
    15     3     2    1
    16     4     5    1
    17     2     1    2
    18    22    21    2
    19    22    23    1
    20     5     6    2
    21    21    20    1
    22     1     6    1
    23     1     7    1
    24    23    18    2
    25     8     7    2
    26     7     9   am
    27    20    19    2
    28     9    10    1
    29     9    11    1
    30    18    19    1
    31    18    11    1
    32    11    12    1
    33    13    12    2
    34    13    14    1
    35    12    17    1
    36    14    15    2
    37    17    16    2
    38    15    16    1
