@<TRIPOS>MOLECULE
79294_out_ligand_01.pdbqt
 28 30 0 0 0
SMALL
GASTEIGER

@<TRIPOS>ATOM
      1  C         18.9630  -23.2540   -8.4910 C.2     1  UNL1        0.2300
      2  O         19.2880  -24.3160   -7.9720 O.2     1  UNL1       -0.2720
      3  N         18.4860  -22.1290   -7.8230 N.am    1  UNL1       -0.3260
      4  H         18.2590  -21.3390   -8.4100 H       1  UNL1        0.1690
      5  C         19.0370  -23.0430  -10.0140 C.3     1  UNL1        0.1110
      6  C         17.9900  -21.9900  -10.4120 C.3     1  UNL1        0.0190
      7  C         18.1060  -21.6550  -11.8910 C.3     1  UNL1        0.0060
      8  C         19.4600  -21.0150  -12.1750 C.3     1  UNL1        0.0390
      9  C         20.6180  -21.7710  -11.5670 C.2     1  UNL1       -0.0480
     10  C         20.4370  -22.6920  -10.5140 C.2     1  UNL1       -0.0380
     11  C         21.9160  -21.4890  -12.0410 C.2     1  UNL1        0.0440
     12  C         21.5680  -23.3410   -9.9940 C.2     1  UNL1        0.0110
     13  C         22.8460  -23.0600  -10.4840 C.2     1  UNL1        0.0370
     14  C         23.0300  -22.1310  -11.5050 C.2     1  UNL1        0.0680
     15  O         24.3290  -21.9480  -11.8860 O.2     1  UNL1       -0.3560
     16  C         25.2290  -21.4720  -10.8950 C.3     1  UNL1        0.2100
     17  C         18.2740  -21.9580   -6.4320 C.2     1  UNL1        0.0410
     18  C         19.1690  -21.2360   -5.6290 C.2     1  UNL1        0.0300
     19  C         18.9420  -21.0600   -4.2640 C.2     1  UNL1        0.0030
     20  C         17.7950  -21.5810   -3.6800 C.2     1  UNL1        0.0180
     21  C         16.8790  -22.2870   -4.4640 C.2     1  UNL1        0.0400
     22  C         17.1210  -22.5300   -5.8370 C.2     1  UNL1       -0.0190
     23  C         16.1720  -23.3880   -6.6380 C.3     1  UNL1        0.0520
     24  C         15.6510  -22.7380   -3.7690 C.2     1  UNL1        0.2490
     25  N         15.7290  -23.9560   -3.1540 N.am    1  UNL1       -0.3660
     26  H         14.8590  -24.3440   -2.8090 H       1  UNL1        0.1590
     27  H         16.4940  -24.5920   -3.3340 H       1  UNL1        0.1590
     28  O         14.6150  -22.0910   -3.8020 O.2     1  UNL1       -0.2680
@<TRIPOS>BOND
     1     8     7    1
     2     8     9    1
     3    11     9    2
     4    11    14    1
     5     7     6    1
     6    15    14    1
     7    15    16    1
     8     9    10    1
     9    14    13    2
    10    10     5    1
    11    10    12    2
    12    13    12    1
    13     6     5    1
    14     5     1    1
    15     1     2    2
    16     1     3   am
    17     4     3    1
    18     3    17    1
    19    23    22    1
    20    17    22    2
    21    17    18    1
    22    22    21    1
    23    18    19    2
    24    21    24    1
    25    21    20    2
    26    19    20    1
    27    28    24    2
    28    24    25   am
    29    27    25    1
    30    25    26    1
