@<TRIPOS>MOLECULE
79290_out_ligand_01.pdbqt
 31 35 0 0 0
SMALL
GASTEIGER

@<TRIPOS>ATOM
      1  C         20.7870  -22.6310  -10.2650 C.2     1  UNL1        0.0350
      2  C         20.2850  -21.7800  -11.2570 C.2     1  UNL1        0.0300
      3  C         21.0800  -21.4020  -12.3450 C.2     1  UNL1        0.0160
      4  C         22.3940  -21.8710  -12.4670 C.2     1  UNL1       -0.0050
      5  C         22.8990  -22.7080  -11.4660 C.2     1  UNL1        0.0160
      6  C         22.1000  -23.0900  -10.3790 C.2     1  UNL1        0.0300
      7  N         19.9190  -22.9600   -9.2040 N.am    1  UNL1       -0.3220
      8  C         20.0800  -22.7030   -7.8550 C.2     1  UNL1        0.2720
      9  O         21.0430  -22.1240   -7.3690 O.2     1  UNL1       -0.2660
     10  H         19.0590  -23.4100   -9.4720 H       1  UNL1        0.1690
     11  C         18.9720  -23.1800   -7.0260 C.2     1  UNL1        0.1030
     12  N         18.5140  -22.5340   -5.8900 N.pl3   1  UNL1       -0.3420
     13  C         19.0600  -21.3160   -5.3080 C.3     1  UNL1        0.1590
     14  C         17.4770  -23.2310   -5.3130 C.2     1  UNL1        0.0450
     15  C         18.1740  -20.7570   -4.1910 C.3     1  UNL1        0.2900
     16  N         17.6210  -21.8050   -3.3190 N.3     1  UNL1        0.0950
     17  C         16.7820  -22.7500   -4.0760 C.3     1  UNL1        0.2660
     18  H         18.3970  -22.3390   -2.9250 H       1  UNL1        0.3160
     19  C         15.4110  -22.1510   -4.4020 C.3     1  UNL1        0.0490
     20  C         17.2620  -24.3550   -6.0800 C.2     1  UNL1        0.0300
     21  C         18.1920  -24.3260   -7.1450 C.2     1  UNL1        0.0370
     22  C         23.2090  -21.4700  -13.6110 C.ar    1  UNL1        0.0970
     23  N         22.8640  -20.4040  -14.3610 N.ar    1  UNL1       -0.1730
     24  N         23.8170  -20.3150  -15.3050 N.ar    1  UNL1       -0.2810
     25  C         24.7280  -21.3130  -15.2200 C.ar    1  UNL1        0.0400
     26  H         23.7640  -19.5510  -15.9740 H       1  UNL1        0.1890
     27  C         24.3830  -22.0800  -14.1310 C.ar    1  UNL1        0.0210
     28  C         25.8960  -21.5730  -16.0910 C.3     1  UNL1        0.0850
     29  C         25.1610  -23.2960  -13.7680 C.3     1  UNL1        0.2100
     30  O         26.4410  -23.3460  -14.4530 O.3     1  UNL1       -0.3860
     31  C         26.3330  -23.0380  -15.8580 C.3     1  UNL1        0.1740
@<TRIPOS>BOND
     1    28    31    1
     2    28    25    1
     3    26    24    1
     4    31    30    1
     5    24    25   ar
     6    24    23   ar
     7    25    27   ar
     8    30    29    1
     9    23    22   ar
    10    27    29    1
    11    27    22   ar
    12    22     4    1
    13     4     3    2
    14     4     5    1
    15     3     2    1
    16     5     6    2
    17     2     1    2
    18     6     1    1
    19     1     7    1
    20    10     7    1
    21     7     8   am
    22     8     9    2
    23     8    11    1
    24    21    11    2
    25    21    20    1
    26    11    12    1
    27    20    14    2
    28    12    14    1
    29    12    13    1
    30    14    17    1
    31    13    15    1
    32    19    17    1
    33    15    16    1
    34    17    16    1
    35    16    18    1
