@<TRIPOS>MOLECULE
7930_out_ligand_01.pdbqt
 31 34 0 0 0
SMALL
GASTEIGER

@<TRIPOS>ATOM
      1  C         20.5070  -21.9680  -11.4690 C.2     1  UNL1        0.0320
      2  C         20.4390  -23.0120  -10.5420 C.2     1  UNL1        0.0170
      3  C         19.2250  -23.3220   -9.9250 C.2     1  UNL1        0.0100
      4  C         18.0620  -22.6000  -10.2350 C.2     1  UNL1       -0.0300
      5  C         18.1330  -21.5690  -11.1820 C.2     1  UNL1        0.0100
      6  C         19.3470  -21.2540  -11.8000 C.2     1  UNL1        0.0170
      7  C         21.8190  -21.6640  -12.1070 C.2     1  UNL1        0.2560
      8  N         22.9180  -22.1340  -11.4130 N.am    1  UNL1       -0.3230
      9  H         22.7330  -22.7270  -10.6150 H       1  UNL1        0.1690
     10  O         21.8180  -21.0690  -13.1780 O.2     1  UNL1       -0.2670
     11  C         24.2790  -21.9630  -11.7450 C.2     1  UNL1        0.0370
     12  C         25.0680  -21.2400  -10.8440 C.2     1  UNL1        0.0290
     13  C         26.4230  -21.0240  -11.1010 C.2     1  UNL1        0.0050
     14  C         27.0030  -21.5240  -12.2680 C.2     1  UNL1        0.0370
     15  C         26.2300  -22.2370  -13.1810 C.2     1  UNL1        0.0710
     16  C         24.8710  -22.4560  -12.9090 C.2     1  UNL1        0.0660
     17  O         26.6650  -22.7840  -14.3560 O.2     1  UNL1       -0.3470
     18  C         25.7100  -23.2940  -15.2920 C.3     1  UNL1        0.1200
     19  C         25.7690  -24.8160  -15.1920 C.3     1  UNL1        0.0400
     20  C         26.0790  -22.8500  -16.7040 C.3     1  UNL1        0.0400
     21  C         16.7440  -22.9550   -9.5770 C.3     1  UNL1        0.3110
     22  N         16.8590  -23.1880   -8.1270 N.3     1  UNL1        0.0970
     23  C         15.5240  -23.2870   -7.5180 C.3     1  UNL1        0.2770
     24  C         15.6270  -23.7260   -6.0530 C.3     1  UNL1        0.0690
     25  C         16.6240  -22.9090   -5.2750 C.2     1  UNL1       -0.0490
     26  C         16.6150  -22.9290   -3.8740 C.2     1  UNL1        0.0070
     27  C         17.6080  -22.1720   -5.9580 C.2     1  UNL1       -0.0240
     28  C         17.5610  -22.2010   -3.1530 C.2     1  UNL1        0.0010
     29  C         18.5250  -21.4550   -3.8260 C.2     1  UNL1        0.0010
     30  C         18.5480  -21.4370   -5.2210 C.2     1  UNL1        0.0090
     31  C         17.6240  -22.1070   -7.4720 C.3     1  UNL1        0.3110
@<TRIPOS>BOND
     1    20    18    1
     2    18    19    1
     3    18    17    1
     4    17    15    1
     5    15    16    1
     6    15    14    2
     7    10     7    2
     8    16    11    2
     9    14    13    1
    10     7     1    1
    11     7     8   am
    12     6     1    2
    13     6     5    1
    14    11     8    1
    15    11    12    1
    16     1     2    1
    17     8     9    1
    18     5     4    2
    19    13    12    2
    20     2     3    2
    21     4     3    1
    22     4    21    1
    23    21    22    1
    24    22    23    1
    25    22    31    1
    26    23    24    1
    27    31    27    1
    28    24    25    1
    29    27    25    2
    30    27    30    1
    31    25    26    1
    32    30    29    2
    33    26    28    2
    34    29    28    1
