@<TRIPOS>MOLECULE
79300_out_ligand_01.pdbqt
 30 32 0 0 0
SMALL
GASTEIGER

@<TRIPOS>ATOM
      1  N         18.1890  -22.3970   -9.0760 N.am    1  UNL1       -0.3480
      2  C         16.9110  -22.7870   -8.7680 C.2     1  UNL1        0.2530
      3  O         16.1500  -23.3030   -9.5750 O.2     1  UNL1       -0.2680
      4  H         18.8160  -22.0800   -8.3480 H       1  UNL1        0.1630
      5  C         18.7510  -22.6520  -10.3890 C.3     1  UNL1        0.1180
      6  C         18.2860  -21.5550  -11.3710 C.3     1  UNL1        0.0300
      7  C         19.3840  -20.5940  -11.8220 C.3     1  UNL1        0.0070
      8  C         20.6130  -21.3670  -12.2970 C.3     1  UNL1        0.0390
      9  C         21.1450  -22.2200  -11.1770 C.2     1  UNL1       -0.0490
     10  C         20.2600  -22.8490  -10.2810 C.2     1  UNL1       -0.0290
     11  C         22.5280  -22.4210  -11.0520 C.2     1  UNL1        0.0160
     12  C         20.7950  -23.6940   -9.2850 C.2     1  UNL1        0.0100
     13  C         22.1760  -23.8710   -9.1550 C.2     1  UNL1        0.0090
     14  C         23.0580  -23.2260  -10.0300 C.2     1  UNL1       -0.0300
     15  C         24.5510  -23.4100   -9.8880 C.3     1  UNL1        0.3050
     16  N         24.8610  -24.3280   -8.8000 N.3     1  UNL1        0.0820
     17  H         24.0180  -24.4970   -8.2500 H       1  UNL1        0.3130
     18  H         25.5410  -23.8870   -8.1770 H       1  UNL1        0.3130
     19  C         16.5090  -22.6520   -7.3270 C.2     1  UNL1        0.0480
     20  C         15.2470  -22.8660   -6.9100 C.2     1  UNL1        0.1080
     21  N         14.9260  -22.7490   -5.5760 N.am    1  UNL1       -0.3320
     22  C         15.8130  -22.3990   -4.5790 C.2     1  UNL1        0.2600
     23  H         13.9850  -22.9760   -5.2820 H       1  UNL1        0.1680
     24  O         15.4350  -22.2940   -3.4230 O.2     1  UNL1       -0.2670
     25  C         17.2230  -22.1870   -5.0230 C.2     1  UNL1        0.1160
     26  C         17.5290  -22.3330   -6.3310 C.2     1  UNL1        0.0400
     27  C         18.1640  -21.7930   -3.9480 C.3     1  UNL1        0.4220
     28  F         19.3310  -21.2850   -4.4690 F       1  UNL1       -0.1660
     29  F         17.6730  -20.8100   -3.1530 F       1  UNL1       -0.1660
     30  F         18.5240  -22.8350   -3.1530 F       1  UNL1       -0.1660
@<TRIPOS>BOND
     1     8     7    1
     2     8     9    1
     3     7     6    1
     4     6     5    1
     5     9    11    2
     6     9    10    1
     7    11    14    1
     8     5    10    1
     9     5     1    1
    10    10    12    2
    11    14    15    1
    12    14    13    2
    13    15    16    1
    14     3     2    2
    15    12    13    1
    16     1     2   am
    17     1     4    1
    18    16    17    1
    19    16    18    1
    20     2    19    1
    21    19    20    2
    22    19    26    1
    23    20    21    1
    24    26    25    2
    25    21    23    1
    26    21    22   am
    27    25    22    1
    28    25    27    1
    29    22    24    2
    30    28    27    1
    31    27    29    1
    32    27    30    1
