@<TRIPOS>MOLECULE
79302_out_ligand_01.pdbqt
 28 31 0 0 0
SMALL
GASTEIGER

@<TRIPOS>ATOM
      1  C         18.5590  -22.9000  -10.5500 C.3     1  UNL1        0.1180
      2  C         17.9960  -21.7600  -11.4260 C.3     1  UNL1        0.0300
      3  C         18.9210  -20.5470  -11.4620 C.3     1  UNL1        0.0070
      4  C         20.2900  -20.9560  -12.0080 C.3     1  UNL1        0.0390
      5  C         20.9000  -22.0070  -11.1180 C.2     1  UNL1       -0.0490
      6  C         22.2950  -22.0680  -10.9700 C.2     1  UNL1        0.0160
      7  C         22.8920  -23.0530  -10.1630 C.2     1  UNL1       -0.0300
      8  C         22.0710  -24.0060   -9.5250 C.2     1  UNL1        0.0090
      9  C         20.6850  -23.9630   -9.6810 C.2     1  UNL1        0.0100
     10  C         20.0790  -22.9510  -10.4600 C.2     1  UNL1       -0.0290
     11  N         17.9970  -22.8170   -9.2030 N.am    1  UNL1       -0.3480
     12  C         16.7240  -23.2500   -8.9360 C.2     1  UNL1        0.2530
     13  O         15.9800  -23.7300   -9.7840 O.2     1  UNL1       -0.2680
     14  H         18.5980  -22.4740   -8.4620 H       1  UNL1        0.1630
     15  C         16.3060  -23.1570   -7.5030 C.2     1  UNL1        0.0480
     16  C         15.1090  -23.8020   -6.9480 C.2     1  UNL1        0.0220
     17  C         14.7940  -23.6920   -5.6370 C.2     1  UNL1        0.0540
     18  C         15.6420  -22.9510   -4.7670 C.ar    1  UNL1        0.1570
     19  N         15.5870  -22.6830   -3.4790 N.ar    1  UNL1       -0.1300
     20  N         16.7900  -22.3830   -5.3120 N.ar    1  UNL1       -0.2910
     21  N         16.7080  -21.9440   -3.1540 N.ar    1  UNL1       -0.1350
     22  C         17.4280  -21.7730   -4.2520 C.ar    1  UNL1        0.1300
     23  C         18.7130  -21.0530   -4.3670 C.3     1  UNL1        0.0930
     24  C         17.1250  -22.4830   -6.6640 C.2     1  UNL1        0.1170
     25  C         24.3820  -23.0600   -9.9440 C.3     1  UNL1        0.3050
     26  N         24.7500  -24.0560   -8.9650 N.3     1  UNL1        0.0820
     27  H         24.7100  -24.9800   -9.3870 H       1  UNL1        0.3130
     28  H         25.7180  -23.9360   -8.7210 H       1  UNL1        0.3130
@<TRIPOS>BOND
     1     4     3    1
     2     4     5    1
     3     3     2    1
     4     2     1    1
     5     5     6    2
     6     5    10    1
     7     6     7    1
     8     1    10    1
     9     1    11    1
    10    10     9    2
    11     7    25    1
    12     7     8    2
    13    25    26    1
    14    13    12    2
    15     9     8    1
    16    27    26    1
    17    11    12   am
    18    11    14    1
    19    26    28    1
    20    12    15    1
    21    15    16    1
    22    15    24    2
    23    16    17    2
    24    24    20    1
    25    17    18    1
    26    20    18   ar
    27    20    22   ar
    28    18    19   ar
    29    23    22    1
    30    22    21   ar
    31    19    21   ar
