@<TRIPOS>MOLECULE
79316_out_ligand_01.pdbqt
 29 32 0 0 0
SMALL
GASTEIGER

@<TRIPOS>ATOM
      1  C         21.6720  -22.2590  -10.2600 C.2     1  UNL1        0.2560
      2  O         20.6920  -22.0640  -10.9680 O.2     1  UNL1       -0.2670
      3  N         21.6760  -22.6320   -8.9290 N.am    1  UNL1       -0.3230
      4  H         22.5680  -22.8890   -8.5270 H       1  UNL1        0.1690
      5  C         23.0230  -22.1330  -10.8790 C.2     1  UNL1        0.0330
      6  C         24.0430  -21.5340  -10.1370 C.2     1  UNL1        0.0170
      7  C         25.3200  -21.3990  -10.6830 C.2     1  UNL1        0.0090
      8  C         25.6020  -21.8640  -11.9790 C.2     1  UNL1       -0.0510
      9  C         26.9960  -21.6900  -12.5220 C.3     1  UNL1        0.0490
     10  C         24.5800  -22.4990  -12.7150 C.2     1  UNL1       -0.0160
     11  C         23.2960  -22.6280  -12.1590 C.2     1  UNL1        0.0300
     12  C         24.8160  -23.0460  -14.0360 C.2     1  UNL1        0.0110
     13  C         25.3640  -24.2820  -14.4410 C.2     1  UNL1        0.1520
     14  N         25.4130  -24.4050  -15.7700 N.2     1  UNL1       -0.1850
     15  N         24.8930  -23.2480  -16.2160 N.pl3   1  UNL1       -0.2850
     16  C         24.7900  -23.0170  -17.6360 C.3     1  UNL1        0.1790
     17  C         24.5120  -22.4010  -15.2150 C.2     1  UNL1        0.1250
     18  C         20.5610  -22.7860   -8.0780 C.2     1  UNL1        0.0350
     19  C         19.7790  -23.9280   -8.2510 C.2     1  UNL1        0.0300
     20  C         18.6580  -24.1460   -7.4480 C.2     1  UNL1        0.0100
     21  C         18.2940  -23.2360   -6.4420 C.2     1  UNL1       -0.0500
     22  C         19.0810  -22.0840   -6.2440 C.2     1  UNL1       -0.0220
     23  C         17.0540  -23.5210   -5.6380 C.3     1  UNL1        0.0410
     24  C         20.2050  -21.8800   -7.0800 C.2     1  UNL1        0.0390
     25  C         18.8250  -21.0000   -5.2070 C.3     1  UNL1        0.3080
     26  N         17.8860  -21.2690   -4.1150 N.3     1  UNL1        0.0870
     27  C         18.1160  -22.5640   -3.4880 C.3     1  UNL1        0.2700
     28  H         16.9310  -21.1860   -4.4510 H       1  UNL1        0.3160
     29  C         17.3030  -23.6840   -4.1380 C.3     1  UNL1        0.0340
@<TRIPOS>BOND
     1    16    15    1
     2    15    14    1
     3    15    17    1
     4    14    13    2
     5    17    12    2
     6    13    12    1
     7    12    10    1
     8    10    11    1
     9    10     8    2
    10     9     8    1
    11    11     5    2
    12     8     7    1
    13     2     1    2
    14     5     1    1
    15     5     6    1
    16     7     6    2
    17     1     3   am
    18     3     4    1
    19     3    18    1
    20    19    18    2
    21    19    20    1
    22    18    24    1
    23    20    21    2
    24    24    22    2
    25    21    22    1
    26    21    23    1
    27    22    25    1
    28    23    29    1
    29    25    26    1
    30    28    26    1
    31    29    27    1
    32    26    27    1
