@<TRIPOS>MOLECULE
79329_out_ligand_01.pdbqt
 35 38 0 0 0
SMALL
GASTEIGER

@<TRIPOS>ATOM
      1  C         19.5720  -22.4440  -10.2410 C.2     1  UNL1        0.0870
      2  C         20.8740  -22.9270  -10.4720 C.2     1  UNL1        0.0500
      3  C         21.6480  -22.3820  -11.4970 C.2     1  UNL1        0.0240
      4  C         21.1350  -21.3700  -12.2990 C.2     1  UNL1        0.0250
      5  C         19.8300  -20.9160  -12.1000 C.2     1  UNL1        0.0100
      6  C         19.0210  -21.4500  -11.0750 C.2     1  UNL1       -0.0390
      7  C         17.6160  -20.9260  -10.9380 C.3     1  UNL1        0.0500
      8  N         23.0060  -22.7950  -11.6970 N.pl3   1  UNL1       -0.1800
      9  H         23.1080  -23.8100  -11.7070 H       1  UNL1        0.1460
     10  S         24.1330  -22.1790  -10.5810 S.O2    1  UNL1        0.2650
     11  O         23.4730  -21.1430   -9.8290 O.2     1  UNL1       -0.2040
     12  O         24.7480  -23.2960   -9.9000 O.2     1  UNL1       -0.2040
     13  C         25.4000  -21.3650  -11.4430 C.2     1  UNL1        0.1890
     14  C         26.1670  -20.2970  -11.0040 C.2     1  UNL1        0.1880
     15  N         27.0930  -19.9470  -11.9220 N.2     1  UNL1       -0.1410
     16  N         26.9540  -20.7690  -12.9420 N.2     1  UNL1       -0.0600
     17  N         25.9120  -21.6370  -12.7050 N.pl3   1  UNL1       -0.2020
     18  C         25.5720  -22.5530  -13.7590 C.2     1  UNL1        0.0610
     19  C         24.9300  -22.0360  -14.9080 C.2     1  UNL1        0.0310
     20  C         24.5670  -22.8660  -15.9800 C.2     1  UNL1        0.0020
     21  C         24.8350  -24.2280  -15.9180 C.2     1  UNL1        0.0000
     22  C         25.4360  -24.7610  -14.7810 C.2     1  UNL1        0.0020
     23  C         25.7950  -23.9330  -13.7080 C.2     1  UNL1        0.0310
     24  S         18.6850  -23.1250   -8.8440 S.O2    1  UNL1        0.2630
     25  O         19.5010  -24.2100   -8.3430 O.2     1  UNL1       -0.2000
     26  O         17.2960  -23.3280   -9.1970 O.2     1  UNL1       -0.2000
     27  N         18.7470  -21.9200   -7.6850 N.pl3   1  UNL1       -0.2810
     28  H         19.0220  -21.0030   -8.0480 H       1  UNL1        0.1790
     29  C         18.2600  -22.0200   -6.3560 C.2     1  UNL1        0.0430
     30  C         18.9180  -21.2670   -5.3800 C.2     1  UNL1        0.0300
     31  C         18.5010  -21.2980   -4.0490 C.2     1  UNL1        0.0030
     32  C         17.4240  -22.0890   -3.6810 C.2     1  UNL1        0.0070
     33  C         16.7540  -22.8550   -4.6390 C.2     1  UNL1       -0.0600
     34  C         15.6030  -23.7340   -4.2380 C.3     1  UNL1        0.0480
     35  C         17.2010  -22.8350   -5.9740 C.2     1  UNL1        0.0370
@<TRIPOS>BOND
     1    20    21    2
     2    20    19    1
     3    21    22    1
     4    19    18    2
     5    22    23    2
     6    18    23    1
     7    18    17    1
     8    16    17    1
     9    16    15    2
    10    17    13    1
    11     4     5    2
    12     4     3    1
    13     5     6    1
    14    15    14    1
    15     9     8    1
    16     8     3    1
    17     8    10    1
    18     3     2    2
    19    13    14    2
    20    13    10    1
    21     6     7    1
    22     6     1    2
    23    10    12    2
    24    10    11    2
    25     2     1    1
    26     1    24    1
    27    26    24    2
    28    24    25    2
    29    24    27    1
    30    28    27    1
    31    27    29    1
    32    29    35    2
    33    29    30    1
    34    35    33    1
    35    30    31    2
    36    33    34    1
    37    33    32    2
    38    31    32    1
