@<TRIPOS>MOLECULE
79331_out_ligand_01.pdbqt
 27 30 0 0 0
SMALL
GASTEIGER

@<TRIPOS>ATOM
      1  N         21.4860  -22.2040   -7.9040 N.pl3   1  UNL1       -0.3860
      2  H         21.7060  -21.2810   -8.2660 H       1  UNL1        0.1600
      3  C         21.6960  -23.2600   -8.8930 C.3     1  UNL1        0.1620
      4  C         22.0410  -22.7760  -10.2690 C.2     1  UNL1        0.0080
      5  C         23.2850  -22.7930  -10.8730 C.2     1  UNL1        0.1200
      6  N         23.1110  -22.2950  -12.1260 N.pl3   1  UNL1       -0.2880
      7  N         21.8470  -21.9350  -12.3860 N.2     1  UNL1       -0.1740
      8  H         23.8060  -22.1730  -12.8570 H       1  UNL1        0.1880
      9  C         21.1760  -22.1980  -11.2530 C.2     1  UNL1        0.0980
     10  C         19.7530  -21.9050  -11.1600 C.2     1  UNL1        0.0130
     11  C         19.2160  -20.7340  -11.6860 C.2     1  UNL1        0.1300
     12  N         17.9040  -20.3950  -11.6130 N.2     1  UNL1       -0.2720
     13  C         17.0860  -21.2820  -11.0030 C.2     1  UNL1        0.1160
     14  C         17.5160  -22.4860  -10.4660 C.2     1  UNL1        0.0200
     15  C         18.8700  -22.8010  -10.5490 C.2     1  UNL1        0.0170
     16  C         20.3330  -22.2050   -7.1150 C.2     1  UNL1        0.0280
     17  C         20.0140  -21.2040   -6.2020 C.2     1  UNL1        0.0290
     18  C         18.8130  -21.2380   -5.4860 C.2     1  UNL1        0.0100
     19  C         17.8710  -22.2640   -5.6750 C.2     1  UNL1       -0.0500
     20  C         18.1340  -23.2430   -6.6520 C.2     1  UNL1       -0.0220
     21  C         16.6050  -22.1920   -4.8470 C.3     1  UNL1        0.0410
     22  C         19.3660  -23.1940   -7.3460 C.2     1  UNL1        0.0380
     23  C         17.1950  -24.3840   -6.9950 C.3     1  UNL1        0.3080
     24  N         15.7880  -24.0000   -7.0470 N.3     1  UNL1        0.0870
     25  C         15.1280  -24.0650   -5.7490 C.3     1  UNL1        0.2700
     26  H         15.7280  -23.0590   -7.4310 H       1  UNL1        0.3160
     27  C         15.9300  -23.5300   -4.5610 C.3     1  UNL1        0.0340
@<TRIPOS>BOND
     1     8     6    1
     2     7     6    1
     3     7     9    2
     4     6     5    1
     5    11    12    1
     6    11    10    2
     7    12    13    2
     8     9    10    1
     9     9     4    1
    10    10    15    1
    11    13    14    1
    12     5     4    2
    13    15    14    2
    14     4     3    1
    15     3     1    1
    16     2     1    1
    17     1    16    1
    18    26    24    1
    19    22    16    2
    20    22    20    1
    21    16    17    1
    22    24    23    1
    23    24    25    1
    24    23    20    1
    25    20    19    2
    26    17    18    2
    27    25    27    1
    28    19    18    1
    29    19    21    1
    30    21    27    1
