@<TRIPOS>MOLECULE
7933_out_ligand_01.pdbqt
 35 38 0 0 0
SMALL
GASTEIGER

@<TRIPOS>ATOM
      1  N         18.6210  -23.5380   -6.4330 N.am    1  UNL1       -0.3220
      2  C         19.3300  -22.4230   -6.8340 C.2     1  UNL1        0.2560
      3  O         19.0290  -21.2540   -6.6150 O.2     1  UNL1       -0.2670
      4  H         18.9390  -24.4460   -6.7730 H       1  UNL1        0.1690
      5  C         20.5510  -22.6990   -7.6510 C.2     1  UNL1        0.0320
      6  C         20.6980  -23.8630   -8.4170 C.2     1  UNL1        0.0170
      7  C         21.8620  -24.0670   -9.1640 C.2     1  UNL1        0.0100
      8  C         22.9050  -23.1280   -9.1440 C.2     1  UNL1       -0.0300
      9  C         22.7580  -21.9710   -8.3670 C.2     1  UNL1        0.0100
     10  C         21.5930  -21.7620   -7.6230 C.2     1  UNL1        0.0170
     11  C         24.1590  -23.3500   -9.9660 C.3     1  UNL1        0.3110
     12  N         24.4450  -22.2570  -10.9080 N.3     1  UNL1        0.0970
     13  C         25.8360  -21.8040  -10.7600 C.3     1  UNL1        0.2770
     14  C         26.0830  -20.5350  -11.5870 C.3     1  UNL1        0.0690
     15  C         25.5980  -20.6690  -13.0070 C.2     1  UNL1       -0.0490
     16  C         26.0250  -19.7620  -13.9860 C.2     1  UNL1        0.0070
     17  C         24.6680  -21.6690  -13.3360 C.2     1  UNL1       -0.0240
     18  C         25.5490  -19.8620  -15.2930 C.2     1  UNL1        0.0010
     19  C         24.6430  -20.8640  -15.6290 C.2     1  UNL1        0.0010
     20  C         24.2050  -21.7650  -14.6570 C.2     1  UNL1        0.0090
     21  C         24.2090  -22.6810  -12.3050 C.3     1  UNL1        0.3110
     22  C         17.4780  -23.6060   -5.5950 C.2     1  UNL1        0.0500
     23  C         17.5750  -23.6010   -4.1990 C.2     1  UNL1        0.0300
     24  C         16.4320  -23.7030   -3.3990 C.2     1  UNL1        0.0020
     25  C         15.1750  -23.8250   -3.9810 C.2     1  UNL1        0.0010
     26  C         15.0540  -23.8290   -5.3690 C.2     1  UNL1        0.0190
     27  C         16.1940  -23.6990   -6.1830 C.2     1  UNL1        0.0580
     28  C         16.0350  -23.6810   -7.6720 C.2     1  UNL1        0.2540
     29  N         16.5150  -22.5620   -8.3250 N.am    1  UNL1       -0.3490
     30  H         17.1450  -21.9680   -7.8020 H       1  UNL1        0.1630
     31  O         15.5460  -24.6510   -8.2430 O.2     1  UNL1       -0.2680
     32  C         16.5330  -22.3950   -9.7890 C.3     1  UNL1        0.0220
     33  C         15.1820  -22.7980  -10.4000 C.3     1  UNL1        0.0370
     34  C         17.6250  -23.3200  -10.3580 C.3     1  UNL1        0.0370
     35  C         16.8830  -20.9490  -10.1820 C.3     1  UNL1        0.0370
@<TRIPOS>BOND
     1    19    18    2
     2    19    20    1
     3    18    16    1
     4    20    17    2
     5    16    15    2
     6    17    15    1
     7    17    21    1
     8    15    14    1
     9    21    12    1
    10    14    13    1
    11    12    13    1
    12    12    11    1
    13    33    32    1
    14    34    32    1
    15    35    32    1
    16    11     8    1
    17    32    29    1
    18     7     8    2
    19     7     6    1
    20     8     9    1
    21     6     5    2
    22     9    10    2
    23    29    30    1
    24    29    28   am
    25    31    28    2
    26    28    27    1
    27     5    10    1
    28     5     2    1
    29     2     3    2
    30     2     1   am
    31     4     1    1
    32     1    22    1
    33    27    22    2
    34    27    26    1
    35    22    23    1
    36    26    25    2
    37    23    24    2
    38    25    24    1
