@<TRIPOS>MOLECULE
79343_out_ligand_01.pdbqt
 30 33 0 0 0
SMALL
GASTEIGER

@<TRIPOS>ATOM
      1  N         21.0350  -22.6840  -10.4420 N.am    1  UNL1       -0.3230
      2  C         21.1270  -22.4650   -9.0620 C.2     1  UNL1        0.2560
      3  O         22.1590  -21.9040   -8.6020 O.2     1  UNL1       -0.2670
      4  H         20.1380  -23.1690  -10.7530 H       1  UNL1        0.1690
      5  C         22.0000  -22.3330  -11.4370 C.2     1  UNL1        0.0350
      6  C         21.5280  -21.6280  -12.5530 C.2     1  UNL1        0.0290
      7  C         22.3590  -21.2300  -13.5630 C.2     1  UNL1        0.0030
      8  C         23.7090  -21.5050  -13.5310 C.2     1  UNL1        0.0080
      9  C         24.1700  -22.1960  -12.4360 C.2     1  UNL1       -0.0370
     10  C         23.3210  -22.6060  -11.3960 C.2     1  UNL1        0.0380
     11  C         25.5840  -22.5430  -12.2830 C.3     1  UNL1        0.0750
     12  C         26.2370  -22.2010  -10.9800 C.3     1  UNL1        0.0250
     13  C         26.7280  -20.9180  -11.6490 C.3     1  UNL1        0.0030
     14  C         26.4640  -21.5530  -13.0240 C.3     1  UNL1        0.0250
     15  C         25.8350  -23.9730  -12.6270 C.2     1  UNL1        0.2710
     16  O         26.7500  -24.6330  -12.0830 O.2     1  UNL1       -0.2640
     17  O         25.0170  -24.5590  -13.5750 O.3     1  UNL1       -0.3260
     18  C         25.4400  -24.7480  -14.9260 C.3     1  UNL1        0.2130
     19  C         20.0900  -22.8480   -8.0820 C.2     1  UNL1        0.0330
     20  C         19.4310  -24.0520   -8.1770 C.2     1  UNL1        0.0200
     21  C         18.4720  -24.4000   -7.2540 C.2     1  UNL1        0.0380
     22  C         18.1690  -23.5220   -6.2130 C.2     1  UNL1        0.0760
     23  C         18.8340  -22.3240   -6.1280 C.2     1  UNL1        0.0040
     24  O         17.1840  -24.0240   -5.3730 O.2     1  UNL1       -0.3490
     25  C         19.8070  -21.9750   -7.0680 C.2     1  UNL1        0.0280
     26  C         18.6800  -21.2330   -5.1130 C.3     1  UNL1        0.3110
     27  N         18.3340  -21.7260   -3.8130 N.3     1  UNL1        0.0890
     28  C         16.9880  -22.2610   -3.7660 C.3     1  UNL1        0.2960
     29  H         19.0480  -22.3820   -3.4440 H       1  UNL1        0.3160
     30  C         16.9920  -23.7690   -3.9960 C.3     1  UNL1        0.2050
@<TRIPOS>BOND
     1    18    17    1
     2    17    15    1
     3     7     8    2
     4     7     6    1
     5     8     9    1
     6    14    11    1
     7    14    13    1
     8    15    11    1
     9    15    16    2
    10     6     5    2
    11     9    11    1
    12     9    10    2
    13    11    12    1
    14    13    12    1
    15     5    10    1
    16     5     1    1
    17     4     1    1
    18     1     2   am
    19     2     3    2
    20     2    19    1
    21    20    19    2
    22    20    21    1
    23    19    25    1
    24    21    22    2
    25    25    23    2
    26    22    23    1
    27    22    24    1
    28    23    26    1
    29    24    30    1
    30    26    27    1
    31    30    28    1
    32    27    28    1
    33    27    29    1
