@<TRIPOS>MOLECULE
79373_out_ligand_01.pdbqt
 31 35 0 0 0
SMALL
GASTEIGER

@<TRIPOS>ATOM
      1  C         17.6000  -22.4840   -9.9270 C.ar    1  UNL1        0.1440
      2  N         17.2460  -21.5270  -10.7900 N.ar    1  UNL1       -0.2050
      3  S         18.5720  -21.0230  -11.6300 S.2     1  UNL1        0.0120
      4  C         19.6970  -22.0670  -10.8640 C.ar    1  UNL1        0.0380
      5  C         21.0820  -22.1950  -11.0870 C.2     1  UNL1        0.0500
      6  C         21.8240  -23.1040  -10.3260 C.2     1  UNL1        0.0350
      7  C         21.1550  -23.8610   -9.3580 C.2     1  UNL1        0.0300
      8  C         19.7750  -23.7340   -9.1390 C.2     1  UNL1        0.0170
      9  C         19.0150  -22.8270   -9.9130 C.ar    1  UNL1        0.0180
     10  N         23.2120  -23.3020  -10.4910 N.pl3   1  UNL1       -0.3380
     11  H         23.5160  -24.2390  -10.2430 H       1  UNL1        0.1670
     12  C         24.2090  -22.4720  -10.8920 C.ar    1  UNL1        0.1790
     13  N         24.6140  -21.3200  -10.3430 N.ar    1  UNL1       -0.1540
     14  N         25.6270  -20.9140  -11.1290 N.ar    1  UNL1       -0.2740
     15  C         25.9020  -21.7470  -12.1760 C.ar    1  UNL1        0.0830
     16  H         26.0940  -20.0470  -10.8930 H       1  UNL1        0.1890
     17  C         26.8380  -21.7130  -13.2060 C.2     1  UNL1        0.0350
     18  C         24.9880  -22.7810  -12.0500 C.ar    1  UNL1        0.1320
     19  C         26.7860  -22.7860  -14.0930 C.2     1  UNL1        0.0220
     20  C         25.8400  -23.7890  -13.9050 C.2     1  UNL1        0.1170
     21  N         24.9260  -23.8340  -12.9090 N.2     1  UNL1       -0.2550
     22  C         16.5580  -23.1080   -9.0960 C.2     1  UNL1        0.2720
     23  O         15.6110  -23.7390   -9.5560 O.2     1  UNL1       -0.2660
     24  N         16.7430  -22.9450   -7.7290 N.am    1  UNL1       -0.3510
     25  H         17.6400  -22.5750   -7.4370 H       1  UNL1        0.1630
     26  C         15.8450  -23.5820   -6.7520 C.3     1  UNL1        0.0960
     27  C         14.8480  -22.6260   -6.0620 C.3     1  UNL1        0.1040
     28  C         15.1160  -23.4040   -4.7550 C.3     1  UNL1        0.2470
     29  F         15.1770  -22.6600   -3.6290 F       1  UNL1       -0.2060
     30  F         14.2720  -24.4310   -4.5030 F       1  UNL1       -0.2060
     31  C         16.4790  -23.8060   -5.3640 C.3     1  UNL1        0.1040
@<TRIPOS>BOND
     1    19    20    2
     2    19    17    1
     3    20    21    1
     4    17    15    2
     5    21    18    2
     6    15    18   ar
     7    15    14   ar
     8    18    12   ar
     9     3     4   ar
    10     3     2   ar
    11    14    16    1
    12    14    13   ar
    13     5     4    2
    14     5     6    1
    15    12    10    1
    16    12    13   ar
    17     4     9   ar
    18     2     1   ar
    19    10     6    1
    20    10    11    1
    21     6     7    2
    22     1     9   ar
    23     1    22    1
    24     9     8    2
    25    23    22    2
    26     7     8    1
    27    22    24   am
    28    24    25    1
    29    24    26    1
    30    26    27    1
    31    26    31    1
    32    27    28    1
    33    31    28    1
    34    28    30    1
    35    28    29    1
