@<TRIPOS>MOLECULE
79378_out_ligand_01.pdbqt
 28 30 0 0 0
SMALL
GASTEIGER

@<TRIPOS>ATOM
      1  C         19.1380  -21.3780  -11.2340 C.2     1  UNL1        0.2540
      2  O         18.7920  -20.2630  -11.6140 O.2     1  UNL1       -0.2680
      3  N         18.2660  -22.2730  -10.6580 N.am    1  UNL1       -0.3560
      4  H         18.6320  -23.1200  -10.2330 H       1  UNL1        0.1620
      5  C         20.5600  -21.7950  -11.3820 C.2     1  UNL1        0.0710
      6  C         21.2430  -22.5310  -10.4120 C.2     1  UNL1        0.1320
      7  C         22.5750  -22.8940  -10.5950 C.2     1  UNL1        0.0440
      8  F         20.6410  -22.9100   -9.2740 F       1  UNL1       -0.2050
      9  C         23.2450  -22.5130  -11.7590 C.2     1  UNL1        0.0200
     10  C         22.5830  -21.7630  -12.7420 C.2     1  UNL1        0.0330
     11  C         21.2390  -21.4160  -12.5540 C.2     1  UNL1        0.0370
     12  C         23.3430  -21.3860  -13.9650 C.2     1  UNL1        0.2490
     13  N         22.9380  -20.2790  -14.6560 N.am    1  UNL1       -0.3660
     14  H         23.5260  -19.9940  -15.4300 H       1  UNL1        0.1590
     15  H         22.2850  -19.5980  -14.2970 H       1  UNL1        0.1590
     16  O         24.3190  -22.0280  -14.3310 O.2     1  UNL1       -0.2680
     17  C         16.8960  -21.9130  -10.3400 C.3     1  UNL1        0.1270
     18  C         16.1220  -23.0520   -9.6680 C.3     1  UNL1        0.0580
     19  C         16.4590  -23.1980   -8.2020 C.2     1  UNL1       -0.0560
     20  C         17.6360  -23.8460   -7.8070 C.2     1  UNL1        0.0070
     21  C         17.9380  -24.0060   -6.4540 C.2     1  UNL1        0.0080
     22  C         17.0610  -23.5280   -5.4760 C.2     1  UNL1       -0.0480
     23  C         15.8850  -22.8580   -5.8560 C.2     1  UNL1       -0.0280
     24  C         17.3970  -23.6620   -4.0130 C.3     1  UNL1        0.0650
     25  C         15.5870  -22.7090   -7.2190 C.2     1  UNL1        0.0170
     26  C         14.9190  -22.3500   -4.8100 C.3     1  UNL1        0.2060
     27  O         15.4830  -22.2840   -3.4950 O.3     1  UNL1       -0.3860
     28  C         16.1470  -23.5000   -3.1530 C.3     1  UNL1        0.1720
@<TRIPOS>BOND
     1    14    13    1
     2    13    15    1
     3    13    12   am
     4    16    12    2
     5    12    10    1
     6    10    11    1
     7    10     9    2
     8    11     5    2
     9     9     7    1
    10     2     1    2
    11     5     1    1
    12     5     6    1
    13     1     3   am
    14     3    17    1
    15     3     4    1
    16     7     6    2
    17     6     8    1
    18    17    18    1
    19    18    19    1
    20    19    20    2
    21    19    25    1
    22    20    21    1
    23    25    23    2
    24    21    22    2
    25    23    22    1
    26    23    26    1
    27    22    24    1
    28    26    27    1
    29    24    28    1
    30    27    28    1
