@<TRIPOS>MOLECULE
79374_out_ligand_01.pdbqt
 29 32 0 0 0
SMALL
GASTEIGER

@<TRIPOS>ATOM
      1  O         19.5270  -21.8960  -10.5070 O.2     1  UNL1       -0.2670
      2  C         20.5640  -22.1940   -9.9190 C.2     1  UNL1        0.2610
      3  N         20.6520  -22.6450   -8.6200 N.am    1  UNL1       -0.3230
      4  H         21.5920  -22.8450   -8.2720 H       1  UNL1        0.1690
      5  C         21.8810  -22.0760  -10.6280 C.2     1  UNL1        0.1000
      6  C         21.8740  -21.8370  -11.9540 C.2     1  UNL1        0.0340
      7  C         23.1000  -21.7020  -12.7250 C.2     1  UNL1       -0.0060
      8  C         24.2860  -21.8370  -12.1010 C.2     1  UNL1        0.0210
      9  C         22.9880  -21.4560  -14.2120 C.3     1  UNL1        0.1530
     10  N         24.3180  -22.0830  -10.7480 N.am    1  UNL1       -0.3260
     11  C         25.6110  -21.7230  -12.8090 C.3     1  UNL1        0.0580
     12  C         23.2050  -22.2080   -9.9520 C.2     1  UNL1        0.2610
     13  H         25.2080  -22.1760  -10.2730 H       1  UNL1        0.1690
     14  O         23.3010  -22.4240   -8.7460 O.2     1  UNL1       -0.2670
     15  C         25.4950  -21.1600  -14.2270 C.3     1  UNL1        0.0090
     16  C         24.2920  -21.7510  -14.9610 C.3     1  UNL1        0.0370
     17  O         22.6500  -20.0870  -14.4290 O.3     1  UNL1       -0.3910
     18  H         21.9210  -19.8610  -13.8260 H       1  UNL1        0.2100
     19  C         19.6060  -22.8660   -7.7030 C.2     1  UNL1        0.0350
     20  C         18.8010  -24.0020   -7.6870 C.2     1  UNL1        0.0300
     21  C         17.7800  -24.1350   -6.7340 C.2     1  UNL1        0.0100
     22  C         17.5370  -23.1480   -5.7690 C.2     1  UNL1       -0.0480
     23  C         18.3520  -22.0070   -5.8050 C.2     1  UNL1        0.0100
     24  C         19.3720  -21.8670   -6.7520 C.2     1  UNL1        0.0300
     25  C         16.4260  -23.2830   -4.7580 C.3     1  UNL1        0.0960
     26  C         15.1730  -24.0640   -5.1260 C.3     1  UNL1        0.0950
     27  C         15.1160  -22.5980   -4.9410 C.3     1  UNL1        0.2520
     28  F         14.8610  -21.7790   -6.0160 F       1  UNL1       -0.2060
     29  F         14.4510  -22.0690   -3.8580 F       1  UNL1       -0.2060
@<TRIPOS>BOND
     1    16    15    1
     2    16     9    1
     3    17     9    1
     4    17    18    1
     5    15    11    1
     6     9     7    1
     7    11     8    1
     8     7     8    2
     9     7     6    1
    10     8    10    1
    11     6     5    2
    12    10    13    1
    13    10    12   am
    14     5    12    1
    15     5     2    1
    16     1     2    2
    17    12    14    2
    18     2     3   am
    19     3     4    1
    20     3    19    1
    21    19    20    2
    22    19    24    1
    23    20    21    1
    24    24    23    2
    25    21    22    2
    26    28    27    1
    27    23    22    1
    28    22    25    1
    29    26    27    1
    30    26    25    1
    31    27    25    1
    32    27    29    1
