@<TRIPOS>MOLECULE
79381_out_ligand_01.pdbqt
 27 29 0 0 0
SMALL
GASTEIGER

@<TRIPOS>ATOM
      1  C         23.0830  -22.9080   -9.8040 C.2     1  UNL1        0.2540
      2  O         23.3640  -22.3130   -8.7680 O.2     1  UNL1       -0.2680
      3  N         21.9900  -23.7350   -9.9150 N.am    1  UNL1       -0.3560
      4  H         21.7420  -24.1280  -10.8180 H       1  UNL1        0.1620
      5  C         23.9450  -22.7350  -11.0050 C.2     1  UNL1        0.0710
      6  C         25.2850  -23.1280  -11.0450 C.2     1  UNL1        0.1320
      7  C         26.0510  -22.9470  -12.1940 C.2     1  UNL1        0.0440
      8  F         25.8740  -23.6950   -9.9810 F       1  UNL1       -0.2050
      9  C         25.4740  -22.3720  -13.3270 C.2     1  UNL1        0.0200
     10  C         24.1280  -21.9820  -13.3160 C.2     1  UNL1        0.0330
     11  C         23.3700  -22.1560  -12.1500 C.2     1  UNL1        0.0370
     12  C         23.5630  -21.3720  -14.5510 C.2     1  UNL1        0.2490
     13  N         22.6910  -20.3290  -14.4110 N.am    1  UNL1       -0.3660
     14  H         22.2600  -20.0710  -13.5350 H       1  UNL1        0.1590
     15  H         22.2520  -19.9960  -15.2600 H       1  UNL1        0.1590
     16  O         23.8450  -21.8070  -15.6610 O.2     1  UNL1       -0.2680
     17  C         21.0340  -23.8990   -8.8320 C.3     1  UNL1        0.1320
     18  C         20.2910  -22.5920   -8.4630 C.3     1  UNL1        0.0370
     19  C         19.5190  -22.7650   -7.1420 C.3     1  UNL1        0.0110
     20  C         18.2900  -23.6460   -7.3270 C.3     1  UNL1        0.0050
     21  C         17.3150  -23.0140   -8.3170 C.3     1  UNL1        0.0390
     22  C         17.9740  -22.4100   -9.5320 C.2     1  UNL1       -0.0510
     23  C         17.1610  -22.0170  -10.6080 C.2     1  UNL1        0.0070
     24  C         19.3580  -22.1540   -9.5850 C.2     1  UNL1       -0.0460
     25  C         17.7070  -21.3820  -11.7230 C.2     1  UNL1        0.0010
     26  C         19.0700  -21.1180  -11.7710 C.2     1  UNL1        0.0010
     27  C         19.8900  -21.4970  -10.7070 C.2     1  UNL1        0.0080
@<TRIPOS>BOND
     1    16    12    2
     2    15    13    1
     3    12    13   am
     4    12    10    1
     5    13    14    1
     6     9    10    2
     7     9     7    1
     8    10    11    1
     9     7     6    2
    10    11     5    2
    11    26    25    2
    12    26    27    1
    13    25    23    1
    14     6     5    1
    15     6     8    1
    16     5     1    1
    17     4     3    1
    18    27    24    2
    19    23    22    2
    20     3     1   am
    21     3    17    1
    22     1     2    2
    23    24    22    1
    24    24    18    1
    25    22    21    1
    26    17    18    1
    27    18    19    1
    28    21    20    1
    29    20    19    1
