@<TRIPOS>MOLECULE
79398_out_ligand_01.pdbqt
 30 33 0 0 0
SMALL
GASTEIGER

@<TRIPOS>ATOM
      1  N         19.1900  -22.2520   -9.7280 N.am    1  UNL1       -0.3230
      2  C         20.2060  -23.1510   -9.9680 C.2     1  UNL1        0.2590
      3  O         20.0240  -24.3770   -9.6480 O.2     1  UNL1       -0.2670
      4  H         19.3690  -21.2390  -10.0290 H       1  UNL1        0.1690
      5  C         17.9250  -22.5280   -9.1340 C.2     1  UNL1        0.0350
      6  C         16.8340  -22.6660   -9.9940 C.2     1  UNL1        0.0290
      7  C         15.6000  -22.9140   -9.4660 C.2     1  UNL1        0.0030
      8  C         15.4400  -23.0250   -8.1000 C.2     1  UNL1        0.0080
      9  C         16.4950  -22.8930   -7.2270 C.2     1  UNL1       -0.0370
     10  C         17.7460  -22.6400   -7.7890 C.2     1  UNL1        0.0380
     11  C         16.2510  -23.0200   -5.7980 C.3     1  UNL1        0.0750
     12  C         15.3270  -21.9390   -5.2120 C.3     1  UNL1        0.0250
     13  C         14.8970  -23.0180   -4.2070 C.3     1  UNL1        0.0030
     14  C         15.2030  -24.0080   -5.3450 C.3     1  UNL1        0.0250
     15  C         17.4700  -23.1830   -4.9560 C.2     1  UNL1        0.2710
     16  O         17.8560  -24.3110   -4.6410 O.2     1  UNL1       -0.2640
     17  O         18.1400  -22.0640   -4.5480 O.3     1  UNL1       -0.3260
     18  C         18.3340  -21.7550   -3.1790 C.3     1  UNL1        0.2130
     19  C         21.4940  -22.8430  -10.5630 C.2     1  UNL1        0.0710
     20  C         21.5440  -22.1620  -11.7940 C.2     1  UNL1        0.0290
     21  C         22.7210  -21.8150  -12.4130 C.2     1  UNL1       -0.0230
     22  C         23.9250  -22.1270  -11.8400 C.2     1  UNL1       -0.0450
     23  C         22.6260  -21.0970  -13.7120 C.3     1  UNL1        0.3080
     24  C         23.9130  -22.7880  -10.6440 C.2     1  UNL1        0.0510
     25  C         25.1630  -21.7330  -12.5410 C.3     1  UNL1        0.0690
     26  C         22.7070  -23.1440  -10.0110 C.2     1  UNL1        0.1320
     27  F         22.7610  -23.8180   -8.8350 F       1  UNL1       -0.2050
     28  C         24.8760  -21.9150  -14.0380 C.3     1  UNL1        0.2740
     29  N         23.8760  -20.9570  -14.3810 N.3     1  UNL1        0.0870
     30  H         24.2700  -20.0100  -14.4100 H       1  UNL1        0.3160
@<TRIPOS>BOND
     1    30    29    1
     2    29    28    1
     3    29    23    1
     4    28    25    1
     5    23    21    1
     6    25    22    1
     7    21    22    2
     8    21    20    1
     9    22    24    1
    10    20    19    2
    11    24    26    2
    12    19    26    1
    13    19     2    1
    14     4     1    1
    15    26    27    1
    16     6     7    1
    17     6     5    2
    18     2     1   am
    19     2     3    2
    20     1     5    1
    21     7     8    2
    22     5    10    1
    23     8     9    1
    24    10     9    2
    25     9    11    1
    26    11    14    1
    27    11    12    1
    28    11    15    1
    29    14    13    1
    30    12    13    1
    31    15    16    2
    32    15    17    1
    33    17    18    1
