@<TRIPOS>MOLECULE
79409_out_ligand_01.pdbqt
 26 29 0 0 0
SMALL
GASTEIGER

@<TRIPOS>ATOM
      1  C         17.5320  -22.8560   -9.0790 C.ar    1  UNL1        0.1800
      2  N         16.9420  -22.1280  -10.0370 N.ar    1  UNL1       -0.1080
      3  O         17.9940  -21.8330  -10.9030 O.2     1  UNL1       -0.1890
      4  C         19.1220  -22.4260  -10.3890 C.ar    1  UNL1        0.2250
      5  C         20.4000  -22.3370  -11.0160 C.ar    1  UNL1        0.1110
      6  N         20.5820  -21.6090  -12.1680 N.ar    1  UNL1       -0.3510
      7  C         21.8920  -21.6700  -12.5840 C.ar    1  UNL1        0.0440
      8  C         22.5130  -21.0840  -13.6930 C.2     1  UNL1        0.0320
      9  C         23.8790  -21.3220  -13.8700 C.2     1  UNL1        0.0210
     10  C         24.5860  -22.1150  -12.9680 C.2     1  UNL1        0.0110
     11 BR         26.4340  -22.4130  -13.2410 Br      1  UNL1       -0.0510
     12  C         23.9550  -22.6940  -11.8630 C.2     1  UNL1        0.0340
     13  C         22.5750  -22.4670  -11.6640 C.ar    1  UNL1        0.0160
     14  C         21.6250  -22.8800  -10.6830 C.ar    1  UNL1        0.0770
     15 CL         22.0040  -23.8790   -9.3530 Cl      1  UNL1       -0.0810
     16  N         18.8730  -23.0750   -9.2730 N.ar    1  UNL1       -0.2010
     17  H         19.8540  -21.0940  -12.6460 H       1  UNL1        0.1660
     18  C         16.7880  -23.4050   -7.9100 C.3     1  UNL1        0.2580
     19  O         17.6880  -23.8580   -6.8910 O.2     1  UNL1       -0.3440
     20  C         17.9480  -22.9990   -5.8600 C.2     1  UNL1        0.0720
     21  C         17.5840  -23.4810   -4.5970 C.2     1  UNL1        0.0370
     22  C         17.7910  -22.7130   -3.4480 C.2     1  UNL1        0.0060
     23  C         18.3670  -21.4500   -3.5600 C.2     1  UNL1        0.0420
     24  C         18.7260  -20.9750   -4.8160 C.2     1  UNL1        0.1190
     25  F         19.2800  -19.7600   -4.9230 F       1  UNL1       -0.2060
     26  C         18.5240  -21.7340   -5.9670 C.2     1  UNL1        0.0790
@<TRIPOS>BOND
     1     9     8    1
     2     9    10    2
     3     8     7    2
     4    11    10    1
     5    10    12    1
     6    17     6    1
     7     7     6   ar
     8     7    13   ar
     9     6     5   ar
    10    12    13    2
    11    13    14   ar
    12     5    14   ar
    13     5     4    1
    14     3     4   ar
    15     3     2   ar
    16    14    15    1
    17     4    16   ar
    18     2     1   ar
    19    16     1   ar
    20     1    18    1
    21    18    19    1
    22    19    20    1
    23    26    20    2
    24    26    24    1
    25    20    21    1
    26    25    24    1
    27    24    23    2
    28    21    22    2
    29    23    22    1
