@<TRIPOS>MOLECULE
7945_out_ligand_01.pdbqt
 37 41 0 0 0
SMALL
GASTEIGER

@<TRIPOS>ATOM
      1  C         22.7710  -21.6560  -12.8010 C.ar    1  UNL1        0.0930
      2  S         23.0020  -21.0910  -14.3830 S.2     1  UNL1       -0.0750
      3  C         24.6260  -20.7090  -14.0820 C.ar    1  UNL1       -0.0080
      4  C         25.0200  -21.0210  -12.7920 C.ar    1  UNL1       -0.0260
      5  C         23.9360  -21.6240  -12.0420 C.ar    1  UNL1        0.0730
      6  C         26.4160  -20.7150  -12.3180 C.3     1  UNL1        0.0410
      7  C         27.1210  -19.6910  -13.2220 C.3     1  UNL1        0.0050
      8  C         26.9520  -20.0500  -14.7040 C.3     1  UNL1        0.0050
      9  C         25.4740  -20.0450  -15.1220 C.3     1  UNL1        0.0470
     10  N         21.5350  -22.1120  -12.3650 N.am    1  UNL1       -0.3200
     11  C         20.5310  -21.3850  -11.7570 C.2     1  UNL1        0.2320
     12  O         20.5680  -20.2060  -11.4140 O.2     1  UNL1       -0.2720
     13  H         21.3600  -23.1020  -12.5480 H       1  UNL1        0.1690
     14  C         19.2770  -22.2090  -11.4910 C.3     1  UNL1        0.1860
     15  S         17.8280  -21.1780  -11.1180 S.3     1  UNL1       -0.0730
     16  C         16.9740  -22.1780   -9.9780 C.ar    1  UNL1        0.2310
     17  N         16.3290  -23.2770  -10.3070 N.ar    1  UNL1       -0.1140
     18  N         15.7420  -23.7520   -9.1470 N.ar    1  UNL1       -0.1190
     19  C         16.0630  -22.9030   -8.1880 C.ar    1  UNL1        0.2220
     20  O         16.8710  -21.8920   -8.6460 O.2     1  UNL1       -0.2620
     21  C         15.6980  -22.8610   -6.7740 C.2     1  UNL1        0.1110
     22  C         14.6840  -22.0350   -6.2940 C.2     1  UNL1        0.0360
     23  C         14.3820  -22.0600   -4.9330 C.2     1  UNL1        0.0040
     24  C         15.0970  -22.9030   -4.0930 C.2     1  UNL1        0.0190
     25  C         16.0890  -23.6930   -4.6490 C.2     1  UNL1        0.1170
     26  N         16.4030  -23.6910   -5.9620 N.2     1  UNL1       -0.2570
     27  C         23.9490  -22.1270  -10.6640 C.2     1  UNL1        0.2550
     28  O         24.6720  -23.0650  -10.3300 O.2     1  UNL1       -0.2680
     29  N         23.1670  -21.4340   -9.7770 N.am    1  UNL1       -0.3530
     30  H         22.6810  -20.6060  -10.0820 H       1  UNL1        0.1630
     31  C         22.9680  -21.8580   -8.4120 C.3     1  UNL1        0.1610
     32  C         21.7320  -22.7130   -8.3190 C.2     1  UNL1       -0.0410
     33  C         20.6350  -22.2870   -7.5530 C.2     1  UNL1        0.0090
     34  C         19.4990  -23.0900   -7.4350 C.2     1  UNL1        0.0010
     35  C         19.4520  -24.3280   -8.0700 C.2     1  UNL1        0.0000
     36  C         20.5420  -24.7700   -8.8210 C.2     1  UNL1        0.0010
     37  C         21.6780  -23.9670   -8.9450 C.2     1  UNL1        0.0090
@<TRIPOS>BOND
     1     9     8    1
     2     9     3    1
     3     8     7    1
     4     2     3   ar
     5     2     1   ar
     6     3     4   ar
     7     7     6    1
     8     1    10    1
     9     1     5   ar
    10     4     6    1
    11     4     5   ar
    12    13    10    1
    13    10    11   am
    14     5    27    1
    15    11    14    1
    16    11    12    2
    17    14    15    1
    18    15    16    1
    19    27    28    2
    20    27    29   am
    21    17    16   ar
    22    17    18   ar
    23    30    29    1
    24    16    20   ar
    25    29    31    1
    26    18    19   ar
    27    37    36    1
    28    37    32    2
    29    36    35    2
    30    20    19   ar
    31    31    32    1
    32    32    33    1
    33    19    21    1
    34    35    34    1
    35    33    34    2
    36    21    22    2
    37    21    26    1
    38    22    23    1
    39    26    25    2
    40    23    24    2
    41    25    24    1
