@<TRIPOS>MOLECULE
7946_out_ligand_01.pdbqt
 38 42 0 0 0
SMALL
GASTEIGER

@<TRIPOS>ATOM
      1  C         22.5400  -21.6350  -12.7520 C.ar    1  UNL1        0.0930
      2  S         22.6300  -21.0050  -14.3220 S.2     1  UNL1       -0.0750
      3  C         24.3120  -20.8320  -14.2310 C.ar    1  UNL1       -0.0080
      4  C         24.8270  -21.2320  -13.0100 C.ar    1  UNL1       -0.0260
      5  C         23.7760  -21.6690  -12.1090 C.ar    1  UNL1        0.0730
      6  C         26.3120  -21.1990  -12.7560 C.3     1  UNL1        0.0410
      7  C         27.1210  -21.1080  -14.0600 C.3     1  UNL1        0.0050
      8  C         26.5530  -20.0340  -14.9930 C.3     1  UNL1        0.0050
      9  C         25.1100  -20.3530  -15.4070 C.3     1  UNL1        0.0470
     10  N         21.3390  -22.0720  -12.2100 N.am    1  UNL1       -0.3200
     11  C         20.2800  -21.3000  -11.7540 C.2     1  UNL1        0.2320
     12  O         20.2530  -20.0720  -11.6830 O.2     1  UNL1       -0.2720
     13  H         21.2410  -23.0880  -12.1860 H       1  UNL1        0.1690
     14  C         19.0960  -22.1840  -11.3520 C.3     1  UNL1        0.1850
     15  S         17.5590  -21.2570  -11.0830 S.3     1  UNL1       -0.0810
     16  C         16.7850  -22.2720   -9.9300 C.ar    1  UNL1        0.1900
     17  N         16.0930  -23.3600  -10.1340 N.ar    1  UNL1       -0.1220
     18  N         15.6220  -23.7720   -8.9000 N.ar    1  UNL1       -0.1270
     19  C         16.0250  -22.9070   -7.9790 C.ar    1  UNL1        0.1800
     20  N         16.8090  -21.9740   -8.6060 N.ar    1  UNL1       -0.3150
     21  H         17.2270  -21.1430   -8.2080 H       1  UNL1        0.1690
     22  C         15.7170  -22.8900   -6.5510 C.2     1  UNL1        0.1040
     23  C         14.6880  -22.1150   -6.0160 C.2     1  UNL1        0.0360
     24  C         14.4640  -22.1550   -4.6400 C.2     1  UNL1        0.0040
     25  C         15.2650  -22.9600   -3.8410 C.2     1  UNL1        0.0190
     26  C         16.2620  -23.6990   -4.4540 C.2     1  UNL1        0.1170
     27  N         16.5020  -23.6810   -5.7820 N.2     1  UNL1       -0.2570
     28  C         23.8840  -22.1370  -10.7190 C.2     1  UNL1        0.2550
     29  O         24.5610  -23.1230  -10.4280 O.2     1  UNL1       -0.2680
     30  N         23.1290  -21.4520   -9.7980 N.am    1  UNL1       -0.3530
     31  H         22.3790  -20.8770  -10.1490 H       1  UNL1        0.1630
     32  C         23.0010  -21.9110   -8.4340 C.3     1  UNL1        0.1610
     33  C         21.7630  -22.7540   -8.2700 C.2     1  UNL1       -0.0410
     34  C         20.6940  -22.3090   -7.4790 C.2     1  UNL1        0.0090
     35  C         19.5380  -23.0820   -7.3540 C.2     1  UNL1        0.0010
     36  C         19.4370  -24.3010   -8.0220 C.2     1  UNL1        0.0000
     37  C         20.4900  -24.7490   -8.8170 C.2     1  UNL1        0.0010
     38  C         21.6470  -23.9780   -8.9430 C.2     1  UNL1        0.0090
@<TRIPOS>BOND
     1     9     8    1
     2     9     3    1
     3     8     7    1
     4     2     3   ar
     5     2     1   ar
     6     3     4   ar
     7     7     6    1
     8     4     6    1
     9     4     5   ar
    10     1    10    1
    11     1     5   ar
    12    10    13    1
    13    10    11   am
    14     5    28    1
    15    11    12    2
    16    11    14    1
    17    14    15    1
    18    15    16    1
    19    28    29    2
    20    28    30   am
    21    31    30    1
    22    17    16   ar
    23    17    18   ar
    24    16    20   ar
    25    30    32    1
    26    38    37    1
    27    38    33    2
    28    18    19   ar
    29    37    36    2
    30    20    21    1
    31    20    19   ar
    32    32    33    1
    33    33    34    1
    34    36    35    1
    35    19    22    1
    36    34    35    2
    37    22    23    2
    38    22    27    1
    39    23    24    1
    40    27    26    2
    41    24    25    2
    42    26    25    1
