@<TRIPOS>MOLECULE
79493_out_ligand_01.pdbqt
 31 34 0 0 0
SMALL
GASTEIGER

@<TRIPOS>ATOM
      1  N         24.0480  -23.2800  -10.2610 N.am    1  UNL1       -0.3530
      2  C         23.2550  -22.3620   -9.6100 C.2     1  UNL1        0.2510
      3  O         23.5170  -21.1680   -9.5280 O.2     1  UNL1       -0.2680
      4  H         23.7380  -24.2330  -10.3850 H       1  UNL1        0.1630
      5  C         21.9920  -22.8870   -9.0210 C.2     1  UNL1        0.0330
      6  C         21.5010  -24.1540   -9.3480 C.2     1  UNL1        0.0190
      7  C         20.3070  -24.6170   -8.7830 C.2     1  UNL1        0.0340
      8  C         19.5940  -23.8040   -7.8790 C.ar    1  UNL1        0.0770
      9  N         18.4000  -24.1330   -7.2610 N.ar    1  UNL1       -0.2230
     10  C         20.1110  -22.5470   -7.5530 C.ar    1  UNL1        0.0380
     11  C         18.0240  -23.1370   -6.4910 C.ar    1  UNL1        0.1780
     12  S         19.0470  -21.7800   -6.4340 S.2     1  UNL1       -0.0490
     13  C         21.3120  -22.0710   -8.1030 C.2     1  UNL1        0.0380
     14  N         16.8370  -23.1620   -5.7420 N.pl3   1  UNL1       -0.3120
     15  C         16.4980  -22.4290   -4.6130 C.2     1  UNL1        0.0980
     16  C         15.2220  -22.7640   -4.2150 C.2     1  UNL1        0.0190
     17  C         14.7440  -23.7380   -5.1150 C.2     1  UNL1        0.0190
     18  C         15.7420  -23.9630   -6.0350 C.2     1  UNL1        0.0980
     19  C         25.2820  -22.8930  -10.9070 C.3     1  UNL1        0.1610
     20  C         25.1080  -22.8790  -12.4040 C.2     1  UNL1       -0.0400
     21  C         25.4370  -24.0190  -13.1570 C.2     1  UNL1        0.0100
     22  C         25.3000  -24.0190  -14.5450 C.2     1  UNL1        0.0250
     23  C         24.8340  -22.8690  -15.1870 C.2     1  UNL1        0.0740
     24  C         24.5040  -21.7260  -14.4540 C.2     1  UNL1        0.0250
     25  C         24.6490  -21.7300  -13.0650 C.2     1  UNL1        0.0100
     26  S         24.6290  -22.8600  -16.9430 S.O2    1  UNL1        0.2390
     27  O         23.3470  -23.4440  -17.2650 O.2     1  UNL1       -0.2060
     28  O         25.8580  -23.2800  -17.5750 O.2     1  UNL1       -0.2060
     29  N         24.4960  -21.2180  -17.2810 N.3     1  UNL1       -0.2250
     30  H         25.3440  -20.8980  -17.7510 H       1  UNL1        0.1360
     31  H         24.2900  -20.7110  -16.4200 H       1  UNL1        0.1360
@<TRIPOS>BOND
     1    30    29    1
     2    28    26    2
     3    29    26    1
     4    29    31    1
     5    27    26    2
     6    26    23    1
     7    23    22    2
     8    23    24    1
     9    22    21    1
    10    24    25    2
    11    21    20    2
    12    25    20    1
    13    20    19    1
    14    19     1    1
    15     4     1    1
    16     1     2   am
    17     2     3    2
    18     2     5    1
    19     6     5    2
    20     6     7    1
    21     5    13    1
    22     7     8    2
    23    13    10    2
    24     8    10   ar
    25     8     9   ar
    26    10    12   ar
    27     9    11   ar
    28    11    12   ar
    29    11    14    1
    30    18    14    1
    31    18    17    2
    32    14    15    1
    33    17    16    1
    34    15    16    2
