@<TRIPOS>MOLECULE
79517_out_ligand_01.pdbqt
 30 35 0 0 0
SMALL
GASTEIGER

@<TRIPOS>ATOM
      1  C         19.1430  -22.4090   -7.3650 C.ar    1  UNL1        0.0750
      2  N         20.4970  -22.3660   -7.3280 N.ar    1  UNL1       -0.2390
      3  C         21.1150  -22.2250   -8.5200 C.ar    1  UNL1        0.1120
      4  S         22.8100  -22.1340   -8.5970 S.2     1  UNL1       -0.0640
      5  C         22.7970  -21.9630  -10.3090 C.ar    1  UNL1        0.0770
      6  C         23.8740  -21.8220  -11.1950 C.2     1  UNL1        0.1240
      7  N         23.5880  -21.7090  -12.5110 N.2     1  UNL1       -0.2290
      8  C         22.3050  -21.7280  -12.9000 C.2     1  UNL1        0.2350
      9  N         21.2240  -21.8630  -12.1300 N.2     1  UNL1       -0.2400
     10  C         21.4970  -21.9810  -10.8050 C.ar    1  UNL1        0.0920
     11  C         20.5150  -22.1360   -9.7700 C.ar    1  UNL1        0.0370
     12  C         19.1150  -22.2150   -9.7730 C.ar    1  UNL1       -0.0340
     13  C         18.4350  -22.3540   -8.5550 C.ar    1  UNL1       -0.0210
     14  C         16.9560  -22.4100   -8.7880 C.3     1  UNL1        0.0420
     15  C         16.8920  -22.7590  -10.2810 C.3     1  UNL1        0.0090
     16  C         18.1440  -22.1490  -10.9210 C.3     1  UNL1        0.0400
     17  N         25.1960  -21.7840  -10.7550 N.pl3   1  UNL1       -0.2740
     18  H         25.2810  -21.2420   -9.8950 H       1  UNL1        0.1290
     19  C         25.8920  -23.0690  -10.6630 C.3     1  UNL1        0.1260
     20  C         27.1210  -23.1070  -11.5930 C.3     1  UNL1        0.1340
     21  C         27.1020  -24.3000  -12.5390 C.3     1  UNL1        0.0350
     22  C         26.4300  -23.7440  -13.7690 C.3     1  UNL1        0.0290
     23  C         26.9510  -22.3260  -13.7950 C.3     1  UNL1        0.1680
     24  O         27.1110  -21.9240  -12.4290 O.3     1  UNL1       -0.3850
     25  C         18.4990  -22.5410   -6.0490 C.2     1  UNL1       -0.0070
     26  C         18.5600  -21.4900   -5.1170 C.2     1  UNL1        0.0140
     27  C         17.9580  -21.5980   -3.8610 C.2     1  UNL1        0.0010
     28  C         17.2730  -22.7600   -3.5150 C.2     1  UNL1        0.0000
     29  C         17.1850  -23.8090   -4.4270 C.2     1  UNL1        0.0010
     30  C         17.7880  -23.6980   -5.6840 C.2     1  UNL1        0.0140
@<TRIPOS>BOND
     1    23    22    1
     2    23    24    1
     3    22    21    1
     4     8     7    2
     5     8     9    1
     6    21    20    1
     7     7     6    1
     8    24    20    1
     9     9    10    2
    10    20    19    1
    11     6    17    1
    12     6     5    2
    13    16    15    1
    14    16    12    1
    15    10     5   ar
    16    10    11   ar
    17    17    19    1
    18    17    18    1
    19     5     4   ar
    20    15    14    1
    21    12    11   ar
    22    12    13   ar
    23    11     3   ar
    24    14    13    1
    25     4     3   ar
    26    13     1   ar
    27     3     2   ar
    28     1     2   ar
    29     1    25    1
    30    25    30    2
    31    25    26    1
    32    30    29    1
    33    26    27    2
    34    29    28    2
    35    27    28    1
