@<TRIPOS>MOLECULE
7952_out_ligand_01.pdbqt
 38 41 0 0 0
SMALL
GASTEIGER

@<TRIPOS>ATOM
      1  C         24.2050  -22.1940  -13.8210 C.2     1  UNL1        0.0800
      2  C         24.8350  -22.8580  -12.7670 C.2     1  UNL1        0.0280
      3  C         24.1790  -22.9850  -11.5390 C.2     1  UNL1        0.0390
      4  C         22.8960  -22.4540  -11.3610 C.2     1  UNL1        0.0750
      5  C         22.2720  -21.7670  -12.4220 C.2     1  UNL1       -0.0270
      6  C         20.9050  -21.1610  -12.2450 C.3     1  UNL1        0.0510
      7  C         22.9330  -21.6400  -13.6520 C.2     1  UNL1        0.0340
      8  O         22.1740  -22.5200  -10.2010 O.2     1  UNL1       -0.3420
      9  C         22.2930  -23.6680   -9.3810 C.3     1  UNL1        0.2780
     10  C         20.9940  -24.2020   -8.7590 C.2     1  UNL1        0.2420
     11  O         20.6350  -25.3740   -8.8260 O.2     1  UNL1       -0.2710
     12  N         20.2610  -23.2250   -8.1100 N.am    1  UNL1       -0.3460
     13  H         20.4890  -22.2580   -8.2800 H       1  UNL1        0.1630
     14  C         18.9040  -23.4870   -7.6530 C.3     1  UNL1        0.1510
     15  C         18.6330  -22.9380   -6.2480 C.2     1  UNL1       -0.0310
     16  C         18.9930  -21.6150   -5.9380 C.2     1  UNL1        0.0090
     17  C         18.7400  -21.0720   -4.6730 C.2     1  UNL1        0.0010
     18  C         18.1070  -21.8380   -3.6980 C.2     1  UNL1        0.0000
     19  C         17.7220  -23.1400   -3.9910 C.2     1  UNL1        0.0010
     20  C         17.9760  -23.6850   -5.2550 C.2     1  UNL1        0.0090
     21  C         17.9570  -22.9570   -8.7320 C.2     1  UNL1       -0.0310
     22  C         18.4820  -22.2470   -9.8310 C.2     1  UNL1        0.0090
     23  C         17.6380  -21.7080  -10.8030 C.2     1  UNL1        0.0010
     24  C         16.2560  -21.8620  -10.6900 C.2     1  UNL1        0.0000
     25  C         15.7180  -22.5460   -9.6000 C.2     1  UNL1        0.0010
     26  C         16.5610  -23.0820   -8.6230 C.2     1  UNL1        0.0090
     27  S         25.0350  -22.0090  -15.3790 S.O2    1  UNL1        0.2630
     28  O         25.5060  -23.3210  -15.7760 O.2     1  UNL1       -0.2000
     29  O         24.2070  -21.2190  -16.2650 O.2     1  UNL1       -0.2000
     30  N         26.4200  -21.1270  -14.9640 N.pl3   1  UNL1       -0.2810
     31  H         27.2350  -21.7370  -14.9370 H       1  UNL1        0.1790
     32  C         26.5840  -19.8370  -15.5380 C.2     1  UNL1        0.0420
     33  C         26.5520  -18.7050  -14.7280 C.2     1  UNL1        0.0300
     34  C         26.6830  -17.4370  -15.2970 C.2     1  UNL1        0.0090
     35  C         26.8250  -17.2920  -16.6810 C.2     1  UNL1       -0.0620
     36  C         26.9940  -15.9300  -17.2880 C.3     1  UNL1        0.0480
     37  C         26.8600  -18.4350  -17.4850 C.2     1  UNL1        0.0090
     38  C         26.7290  -19.7050  -16.9170 C.2     1  UNL1        0.0300
@<TRIPOS>BOND
     1    37    38    1
     2    37    35    2
     3    36    35    1
     4    38    32    2
     5    35    34    1
     6    29    27    2
     7    28    27    2
     8    32    30    1
     9    32    33    1
    10    27    30    1
    11    27     1    1
    12    34    33    2
    13    30    31    1
    14     1     7    2
    15     1     2    1
    16     7     5    1
    17     2     3    2
    18     5     6    1
    19     5     4    2
    20     3     4    1
    21     4     8    1
    22    23    24    2
    23    23    22    1
    24    24    25    1
    25     8     9    1
    26    22    21    2
    27    25    26    2
    28     9    10    1
    29    11    10    2
    30    10    12   am
    31    21    26    1
    32    21    14    1
    33    13    12    1
    34    12    14    1
    35    14    15    1
    36    15    16    2
    37    15    20    1
    38    16    17    1
    39    20    19    2
    40    17    18    2
    41    19    18    1
