@<TRIPOS>MOLECULE
79536_out_ligand_01.pdbqt
 32 34 0 0 0
SMALL
GASTEIGER

@<TRIPOS>ATOM
      1  C         18.4710  -22.4970   -9.9140 C.2     1  UNL1        0.0740
      2  C         19.7790  -22.5080  -10.3990 C.2     1  UNL1        0.0500
      3  C         20.1250  -21.7070  -11.5000 C.2     1  UNL1        0.0340
      4  C         19.1610  -20.9130  -12.1380 C.2     1  UNL1        0.0200
      5  C         17.8510  -20.9110  -11.6640 C.2     1  UNL1        0.0460
      6  C         17.5210  -21.6960  -10.5630 C.2     1  UNL1        0.1430
      7  F         16.2550  -21.6800  -10.1150 F       1  UNL1       -0.2040
      8  N         18.0230  -23.2390   -8.7990 N.am    1  UNL1       -0.3240
      9  C         18.5360  -23.2340   -7.5160 C.2     1  UNL1        0.2260
     10  O         19.5170  -22.5990   -7.1400 O.2     1  UNL1       -0.2730
     11  H         17.1830  -23.7880   -8.9680 H       1  UNL1        0.1690
     12  C         17.7920  -24.1570   -6.5570 C.3     1  UNL1        0.1420
     13  C         16.6390  -23.5080   -5.8160 C.2     1  UNL1       -0.0330
     14  C         15.5040  -23.1230   -6.5570 C.2     1  UNL1        0.0090
     15  C         14.4320  -22.4710   -5.9440 C.2     1  UNL1        0.0010
     16  C         14.4710  -22.1880   -4.5820 C.2     1  UNL1        0.0010
     17  C         15.5780  -22.5710   -3.8280 C.2     1  UNL1        0.0190
     18  C         16.6520  -23.2460   -4.4290 C.2     1  UNL1        0.0440
     19  C         17.7720  -23.6080   -3.5310 C.2     1  UNL1        0.1760
     20  O         18.0770  -24.7380   -3.1970 O.2     1  UNL1       -0.6460
     21  O         18.4760  -22.5320   -3.1530 O.3     1  UNL1       -0.7730
     22  H         17.8480  -21.7810   -3.2120 H       1  UNL1        0.1670
     23  C         21.5250  -21.7440  -11.9980 C.2     1  UNL1        0.2560
     24  O         21.7430  -21.4160  -13.1550 O.2     1  UNL1       -0.2670
     25  N         22.4520  -22.1790  -11.0690 N.am    1  UNL1       -0.3220
     26  H         22.0990  -22.5210  -10.1850 H       1  UNL1        0.1690
     27  C         23.8460  -22.2770  -11.2600 C.2     1  UNL1        0.0520
     28  C         24.3180  -23.3010  -12.0860 C.2     1  UNL1        0.0320
     29  C         25.6860  -23.4490  -12.3040 C.2     1  UNL1        0.0210
     30  C         26.5490  -22.5620  -11.6830 C.2     1  UNL1        0.1160
     31  N         26.1370  -21.5630  -10.8780 N.2     1  UNL1       -0.2710
     32  C         24.7970  -21.4390  -10.6850 C.2     1  UNL1        0.1450
@<TRIPOS>BOND
     1    24    23    2
     2    29    28    1
     3    29    30    2
     4     4     5    2
     5     4     3    1
     6    28    27    2
     7    23     3    1
     8    23    25   am
     9    30    31    1
    10     5     6    1
    11     3     2    2
    12    27    25    1
    13    27    32    1
    14    25    26    1
    15    31    32    2
    16     6     7    1
    17     6     1    2
    18     2     1    1
    19     1     8    1
    20    11     8    1
    21     8     9   am
    22     9    10    2
    23     9    12    1
    24    14    15    1
    25    14    13    2
    26    12    13    1
    27    15    16    2
    28    13    18    1
    29    16    17    1
    30    18    17    2
    31    18    19    1
    32    19    20    2
    33    19    21    1
    34    22    21    1
