@<TRIPOS>MOLECULE
79541_out_ligand_01.pdbqt
 40 44 0 0 0
SMALL
GASTEIGER

@<TRIPOS>ATOM
      1  N         22.4230  -22.7550  -10.5140 N.ar    1  UNL1       -0.2870
      2  C         23.7180  -22.7140  -11.0630 C.ar    1  UNL1        0.3330
      3  O         24.6620  -23.2700  -10.4980 O.2     1  UNL1       -0.2460
      4  N         23.8840  -22.0440  -12.2870 N.ar    1  UNL1       -0.2550
      5  C         22.8790  -21.3670  -12.9880 C.ar    1  UNL1        0.2880
      6  O         23.1030  -20.6840  -13.9840 O.2     1  UNL1       -0.2650
      7  C         21.5990  -21.5130  -12.3780 C.ar    1  UNL1        0.1720
      8  O         20.4640  -20.9940  -12.9040 O.2     1  UNL1       -0.3020
      9  C         19.4600  -21.3410  -12.0480 C.ar    1  UNL1        0.0890
     10  C         18.1170  -21.0100  -12.2240 C.2     1  UNL1        0.0380
     11  C         17.2270  -21.4550  -11.2440 C.2     1  UNL1        0.0030
     12  C         17.6750  -22.1970  -10.1500 C.2     1  UNL1        0.0010
     13  C         19.0350  -22.5160   -9.9980 C.2     1  UNL1        0.0170
     14  C         19.9580  -22.0770  -10.9690 C.ar    1  UNL1        0.0280
     15  C         21.3600  -22.1710  -11.2020 C.ar    1  UNL1        0.0920
     16  C         22.2430  -23.4170   -9.2170 C.3     1  UNL1        0.2370
     17  C         21.7200  -22.5090   -8.0920 C.2     1  UNL1        0.2400
     18  O         22.4380  -21.6060   -7.6620 O.2     1  UNL1       -0.2710
     19  N         20.4650  -22.8530   -7.6200 N.am    1  UNL1       -0.3250
     20  H         20.0570  -23.6780   -8.0530 H       1  UNL1        0.1690
     21  C         19.6920  -22.2180   -6.6180 C.2     1  UNL1        0.0490
     22  C         20.0840  -21.0020   -6.0380 C.2     1  UNL1        0.0300
     23  C         19.3130  -20.3880   -5.0460 C.2     1  UNL1        0.0020
     24  C         18.1320  -20.9760   -4.6150 C.2     1  UNL1        0.0010
     25  C         17.7210  -22.1790   -5.1830 C.2     1  UNL1        0.0180
     26  C         18.4860  -22.8130   -6.1870 C.2     1  UNL1        0.0740
     27  C         17.9340  -24.0990   -6.7490 C.3     1  UNL1        0.4190
     28  F         18.7760  -24.7430   -7.6200 F       1  UNL1       -0.1660
     29  F         16.7760  -23.9060   -7.4420 F       1  UNL1       -0.1660
     30  F         17.6410  -25.0150   -5.7830 F       1  UNL1       -0.1660
     31  C         25.2240  -22.0400  -12.8710 C.3     1  UNL1        0.2400
     32  C         25.3890  -22.9650  -14.0840 C.2     1  UNL1        0.2360
     33  O         25.1950  -24.1770  -13.9890 O.2     1  UNL1       -0.2720
     34  N         25.6650  -22.3470  -15.2900 N.am    1  UNL1       -0.3550
     35  H         25.4270  -21.3650  -15.3690 H       1  UNL1        0.1620
     36  C         25.7040  -23.1090  -16.5320 C.3     1  UNL1        0.0840
     37  C         26.7800  -22.5740  -17.4740 C.3     1  UNL1        0.0250
     38  C         26.1390  -21.3600  -18.1470 C.3     1  UNL1        0.0020
     39  C         24.6260  -21.5930  -18.0880 C.3     1  UNL1        0.0020
     40  C         24.4260  -22.9220  -17.3520 C.3     1  UNL1        0.0250
@<TRIPOS>BOND
     1    38    39    1
     2    38    37    1
     3    39    40    1
     4    37    36    1
     5    40    36    1
     6    36    34    1
     7    35    34    1
     8    34    32   am
     9    32    33    2
    10    32    31    1
    11     6     5    2
    12     5     7   ar
    13     5     4   ar
    14     8     7   ar
    15     8     9   ar
    16    31     4    1
    17     7    15   ar
    18     4     2   ar
    19    10     9    2
    20    10    11    1
    21     9    14   ar
    22    11    12    2
    23    15    14   ar
    24    15     1   ar
    25     2     1   ar
    26     2     3    2
    27    14    13    2
    28     1    16    1
    29    12    13    1
    30    16    17    1
    31    17    18    2
    32    17    19   am
    33    20    19    1
    34    28    27    1
    35    19    21    1
    36    29    27    1
    37    27    26    1
    38    27    30    1
    39    21    26    2
    40    21    22    1
    41    26    25    1
    42    22    23    2
    43    25    24    2
    44    23    24    1
