@<TRIPOS>MOLECULE
79546_out_ligand_01.pdbqt
 29 32 0 0 0
SMALL
GASTEIGER

@<TRIPOS>ATOM
      1  O         18.6470  -22.1260   -9.5390 O.2     1  UNL1       -0.2670
      2  C         19.2710  -22.6110   -8.6050 C.2     1  UNL1        0.2580
      3  N         20.6380  -22.7860   -8.4980 N.am    1  UNL1       -0.3230
      4  H         20.9860  -23.1490   -7.6180 H       1  UNL1        0.1690
      5  C         21.6170  -22.4850   -9.4650 C.2     1  UNL1        0.0350
      6  C         21.4190  -22.6070  -10.8410 C.2     1  UNL1        0.0320
      7  C         22.4450  -22.2890  -11.7410 C.2     1  UNL1        0.0320
      8  C         23.6890  -21.8690  -11.2720 C.2     1  UNL1        0.0440
      9  C         23.8830  -21.7200   -9.8970 C.2     1  UNL1        0.0320
     10  C         22.8580  -22.0330   -9.0010 C.2     1  UNL1        0.0320
     11  N         24.7520  -21.4780  -12.1470 N.pl3   1  UNL1       -0.2760
     12  C         25.9960  -20.8920  -11.6100 C.3     1  UNL1        0.1420
     13  C         26.8590  -20.6610  -12.8490 C.3     1  UNL1        0.0380
     14  C         26.7880  -21.9490  -13.6600 C.3     1  UNL1        0.1650
     15  S         25.1370  -22.5860  -13.4040 S.O2    1  UNL1        0.2330
     16  O         24.3040  -22.2880  -14.5480 O.2     1  UNL1       -0.2050
     17  O         25.2540  -23.9170  -12.8480 O.2     1  UNL1       -0.2050
     18  C         18.5110  -23.0210   -7.4070 C.2     1  UNL1        0.0610
     19  C         17.7510  -24.1820   -7.5240 C.2     1  UNL1        0.1370
     20  N         16.9490  -24.6600   -6.5470 N.2     1  UNL1       -0.2350
     21  C         16.9350  -23.9450   -5.4090 C.2     1  UNL1        0.1730
     22  C         17.6710  -22.7820   -5.1520 C.2     1  UNL1        0.0280
     23  C         17.6140  -22.0950   -3.9210 C.2     1  UNL1        0.0170
     24  C         18.5080  -22.3040   -6.1860 C.2     1  UNL1       -0.0040
     25  C         18.3840  -20.9560   -3.6970 C.2     1  UNL1        0.0010
     26  C         19.2320  -20.4920   -4.6940 C.2     1  UNL1        0.0010
     27  C         19.2980  -21.1570   -5.9210 C.2     1  UNL1        0.0130
     28  O         16.1050  -24.4780   -4.4750 O.2     1  UNL1       -0.3440
     29  H         16.5450  -24.1660   -3.6640 H       1  UNL1        0.2190
@<TRIPOS>BOND
     1    16    15    2
     2    14    15    1
     3    14    13    1
     4    15    17    2
     5    15    11    1
     6    13    12    1
     7    11    12    1
     8    11     8    1
     9     7     8    2
    10     7     6    1
    11     8     9    1
    12     6     5    2
    13     9    10    2
    14     1     2    2
    15     5    10    1
    16     5     3    1
    17     2     3   am
    18     2    18    1
    19     3     4    1
    20    19    18    2
    21    19    20    1
    22    18    24    1
    23    20    21    2
    24    24    27    1
    25    24    22    2
    26    27    26    2
    27    21    22    1
    28    21    28    1
    29    22    23    1
    30    26    25    1
    31    28    29    1
    32    23    25    2
