@<TRIPOS>MOLECULE
7958_out_ligand_01.pdbqt
 36 39 0 0 0
SMALL
GASTEIGER

@<TRIPOS>ATOM
      1  C         23.0680  -23.6530   -8.8080 C.3     1  UNL1        0.2780
      2  C         21.5700  -24.0060   -8.7940 C.2     1  UNL1        0.2420
      3  O         21.1580  -25.1110   -9.1340 O.2     1  UNL1       -0.2710
      4  N         20.7410  -22.9720   -8.4320 N.am    1  UNL1       -0.3460
      5  H         21.1480  -22.1650   -7.9830 H       1  UNL1        0.1630
      6  C         19.3040  -23.1170   -8.2740 C.3     1  UNL1        0.1510
      7  C         18.9370  -22.6780   -6.8580 C.2     1  UNL1       -0.0310
      8  C         19.4080  -21.4510   -6.3610 C.2     1  UNL1        0.0090
      9  C         19.0220  -21.0000   -5.1000 C.2     1  UNL1        0.0010
     10  C         18.1520  -21.7600   -4.3220 C.2     1  UNL1        0.0000
     11  C         17.6730  -22.9780   -4.8000 C.2     1  UNL1        0.0010
     12  C         18.0660  -23.4370   -6.0560 C.2     1  UNL1        0.0090
     13  C         18.5030  -22.3960   -9.3520 C.2     1  UNL1       -0.0310
     14  C         19.1830  -21.7970  -10.4280 C.2     1  UNL1        0.0090
     15  C         18.4840  -21.1350  -11.4410 C.2     1  UNL1        0.0010
     16  C         17.0940  -21.0660  -11.4000 C.2     1  UNL1        0.0000
     17  C         16.4010  -21.6610  -10.3460 C.2     1  UNL1        0.0010
     18  C         17.0990  -22.3230   -9.3300 C.2     1  UNL1        0.0090
     19  O         23.3840  -22.3230   -9.2060 O.2     1  UNL1       -0.3420
     20  C         23.7730  -22.0960  -10.4950 C.2     1  UNL1        0.0690
     21  C         25.0860  -21.9060  -10.9260 C.2     1  UNL1        0.0380
     22  C         25.3620  -21.7790  -12.2900 C.2     1  UNL1        0.0280
     23  C         24.3170  -21.8110  -13.2160 C.2     1  UNL1        0.0800
     24  C         22.9970  -21.9780  -12.7930 C.2     1  UNL1        0.0280
     25  C         22.7310  -22.1050  -11.4290 C.2     1  UNL1        0.0380
     26  S         24.6770  -21.7170  -14.9580 S.O2    1  UNL1        0.2630
     27  O         23.7380  -20.7850  -15.5480 O.2     1  UNL1       -0.2000
     28  O         24.8020  -23.0690  -15.4510 O.2     1  UNL1       -0.2000
     29  N         26.1800  -20.9440  -14.9910 N.pl3   1  UNL1       -0.2810
     30  H         26.9550  -21.6090  -15.0190 H       1  UNL1        0.1790
     31  C         26.3280  -19.7180  -15.6990 C.2     1  UNL1        0.0420
     32  C         26.4160  -18.5280  -14.9780 C.2     1  UNL1        0.0300
     33  C         26.5620  -17.3160  -15.6520 C.2     1  UNL1        0.0020
     34  C         26.6160  -17.2930  -17.0480 C.2     1  UNL1        0.0000
     35  C         26.5290  -18.4820  -17.7680 C.2     1  UNL1        0.0020
     36  C         26.3890  -19.6960  -17.0940 C.2     1  UNL1        0.0300
@<TRIPOS>BOND
     1    35    36    1
     2    35    34    2
     3    36    31    2
     4    34    33    1
     5    31    29    1
     6    31    32    1
     7    33    32    2
     8    27    26    2
     9    28    26    2
    10    30    29    1
    11    29    26    1
    12    26    23    1
    13    23    24    2
    14    23    22    1
    15    24    25    1
    16    22    21    2
    17    15    16    2
    18    15    14    1
    19    25    20    2
    20    16    17    1
    21    21    20    1
    22    20    19    1
    23    14    13    2
    24    17    18    2
    25    13    18    1
    26    13     6    1
    27    19     1    1
    28     3     2    2
    29     1     2    1
    30     2     4   am
    31     4     6    1
    32     4     5    1
    33     6     7    1
    34     7     8    2
    35     7    12    1
    36     8     9    1
    37    12    11    2
    38     9    10    2
    39    11    10    1
