@<TRIPOS>MOLECULE
79593_out_ligand_01.pdbqt
 32 35 0 0 0
SMALL
GASTEIGER

@<TRIPOS>ATOM
      1  C         20.0890  -20.6980  -12.1820 C.3     1  UNL1        0.0510
      2  C         21.0840  -21.6640  -11.6180 C.ar    1  UNL1       -0.0210
      3  C         20.9110  -22.4340  -10.4720 C.ar    1  UNL1        0.0820
      4  S         22.3170  -23.3280  -10.0740 S.2     1  UNL1       -0.0630
      5  C         23.1450  -22.7800  -11.4530 C.ar    1  UNL1        0.1160
      6  N         24.4050  -23.1910  -11.7280 N.2     1  UNL1       -0.2350
      7  C         24.9180  -22.6660  -12.7930 C.2     1  UNL1        0.2140
      8  N         24.2990  -21.7590  -13.6370 N.am    1  UNL1       -0.3030
      9  C         22.9780  -21.3600  -13.4100 C.2     1  UNL1        0.2620
     10  O         22.3390  -20.6330  -14.1660 O.2     1  UNL1       -0.2670
     11  C         22.3860  -21.9060  -12.1950 C.ar    1  UNL1        0.0750
     12  C         19.7490  -22.5700   -9.5970 C.2     1  UNL1        0.2630
     13  O         18.6080  -22.6860  -10.0320 O.2     1  UNL1       -0.2670
     14  N         20.0860  -22.5260   -8.2530 N.am    1  UNL1       -0.3230
     15  H         21.0580  -22.3320   -8.0490 H       1  UNL1        0.1690
     16  C         19.2320  -22.6560   -7.1390 C.2     1  UNL1        0.0350
     17  C         18.5260  -23.8610   -7.0170 C.2     1  UNL1        0.0300
     18  C         17.6500  -24.0770   -5.9450 C.2     1  UNL1        0.0190
     19  C         17.4640  -23.0800   -4.9840 C.2     1  UNL1        0.0320
     20  C         18.1760  -21.8820   -5.0940 C.2     1  UNL1        0.0190
     21  C         19.0510  -21.6700   -6.1690 C.2     1  UNL1        0.0300
     22  C         16.5480  -23.2560   -3.8260 C.2     1  UNL1        0.2490
     23  N         16.0470  -22.1260   -3.2400 N.am    1  UNL1       -0.3660
     24  H         15.5420  -22.2750   -2.3760 H       1  UNL1        0.1590
     25  H         16.4780  -21.2230   -3.3700 H       1  UNL1        0.1590
     26  O         16.2750  -24.3630   -3.3820 O.2     1  UNL1       -0.2680
     27  C         25.0250  -21.2810  -14.8240 C.3     1  UNL1        0.0940
     28  C         25.7830  -19.9660  -14.5590 C.3     1  UNL1        0.0260
     29  C         26.9860  -19.7650  -15.4840 C.3     1  UNL1        0.0020
     30  C         26.7510  -20.3740  -16.8600 C.3     1  UNL1        0.0000
     31  C         26.5100  -21.8840  -16.7890 C.3     1  UNL1        0.0020
     32  C         25.9310  -22.3510  -15.4500 C.3     1  UNL1        0.0260
@<TRIPOS>BOND
     1    30    31    1
     2    30    29    1
     3    31    32    1
     4    29    28    1
     5    32    27    1
     6    27    28    1
     7    27     8    1
     8    10     9    2
     9     8     9   am
    10     8     7    1
    11     9    11    1
    12     7     6    2
    13    11     2   ar
    14    11     5   ar
    15     1     2    1
    16     6     5    1
    17     2     3   ar
    18     5     4   ar
    19     3     4   ar
    20     3    12    1
    21    13    12    2
    22    12    14   am
    23    14    15    1
    24    14    16    1
    25    16    17    2
    26    16    21    1
    27    17    18    1
    28    21    20    2
    29    18    19    2
    30    20    19    1
    31    19    22    1
    32    22    26    2
    33    22    23   am
    34    25    23    1
    35    23    24    1
