@<TRIPOS>MOLECULE
79622_out_ligand_01.pdbqt
 30 33 0 0 0
SMALL
GASTEIGER

@<TRIPOS>ATOM
      1  C         19.0470  -23.4490   -8.6810 C.2     1  UNL1        0.0760
      2  C         18.9610  -22.4400   -9.6440 C.2     1  UNL1        0.0330
      3  C         20.1130  -21.9710  -10.2800 C.2     1  UNL1        0.0190
      4  C         21.3580  -22.5320   -9.9740 C.2     1  UNL1        0.0320
      5  C         21.4500  -23.5470   -9.0140 C.2     1  UNL1        0.0190
      6  C         20.2930  -24.0070   -8.3780 C.2     1  UNL1        0.0330
      7  C         22.5670  -22.0080  -10.6660 C.2     1  UNL1        0.2560
      8  O         23.3200  -21.2800  -10.0330 O.2     1  UNL1       -0.2670
      9  N         22.6800  -22.3900  -11.9900 N.am    1  UNL1       -0.3230
     10  H         21.8950  -22.8850  -12.3900 H       1  UNL1        0.1690
     11  C         23.7300  -22.0890  -12.8850 C.2     1  UNL1        0.0370
     12  C         25.0540  -22.4790  -12.6820 C.2     1  UNL1        0.0300
     13  C         26.0570  -22.1580  -13.6090 C.2     1  UNL1        0.0160
     14  C         25.7250  -21.4320  -14.7660 C.2     1  UNL1       -0.0080
     15  C         26.4650  -20.9500  -15.8800 C.2     1  UNL1        0.0300
     16  C         24.3980  -21.0510  -14.9560 C.2     1  UNL1        0.0440
     17  C         25.5870  -20.2940  -16.7140 C.2     1  UNL1        0.0890
     18  N         24.3420  -20.3600  -16.1460 N.pl3   1  UNL1       -0.3650
     19  H         23.5020  -19.9600  -16.5390 H       1  UNL1        0.1650
     20  C         23.3850  -21.3650  -14.0390 C.2     1  UNL1        0.0590
     21  N         17.8990  -23.9210   -8.0410 N.pl3   1  UNL1       -0.0630
     22  C         17.5700  -23.4390   -6.8830 C.cat   1  UNL1        0.7270
     23  N         18.2490  -22.4760   -6.1750 N.pl3   1  UNL1       -0.1920
     24  N         16.4210  -23.9840   -6.3580 N.2     1  UNL1       -0.0680
     25  C         17.8340  -22.0010   -4.9520 C.3     1  UNL1        0.0250
     26  H         19.0860  -22.0850   -6.5840 H       1  UNL1        0.1840
     27  C         16.7180  -22.4940   -4.3990 C.2     1  UNL1        0.0520
     28  C         18.6610  -20.9390   -4.2910 C.3     1  UNL1        0.0680
     29  C         16.0260  -23.5430   -5.2040 C.2     1  UNL1        0.0510
     30  C         14.7660  -24.1350   -4.6220 C.3     1  UNL1        0.0710
@<TRIPOS>BOND
     1    17    18    1
     2    17    15    2
     3    19    18    1
     4    18    16    1
     5    15    14    1
     6    16    14    2
     7    16    20    1
     8    14    13    1
     9    20    11    2
    10    13    12    2
    11    11    12    1
    12    11     9    1
    13    10     9    1
    14     9     7   am
    15     7     8    2
    16     7     4    1
    17     3     4    2
    18     3     2    1
    19     4     5    1
    20     2     1    2
    21     5     6    2
    22     1     6    1
    23     1    21    1
    24    21    22    1
    25    22    24    2
    26    22    23    1
    27    26    23    1
    28    24    29    1
    29    23    25    1
    30    29    30    1
    31    29    27    2
    32    25    27    1
    33    25    28    1
