@<TRIPOS>MOLECULE
79623_out_ligand_01.pdbqt
 26 29 0 0 0
SMALL
GASTEIGER

@<TRIPOS>ATOM
      1  C         20.2690  -22.5890   -8.0770 C.2     1  UNL1        0.2570
      2  O         21.2630  -22.1060   -7.5480 O.2     1  UNL1       -0.2670
      3  N         20.0790  -22.8370   -9.4230 N.am    1  UNL1       -0.3230
      4  H         19.2630  -23.3850   -9.6660 H       1  UNL1        0.1690
      5  C         20.9300  -22.4850  -10.4900 C.2     1  UNL1        0.0350
      6  C         20.3890  -21.6640  -11.4870 C.2     1  UNL1        0.0290
      7  C         21.1610  -21.2640  -12.5770 C.2     1  UNL1        0.0030
      8  C         22.4880  -21.6810  -12.6800 C.2     1  UNL1        0.0150
      9  C         23.0560  -22.4990  -11.6930 C.2     1  UNL1        0.0140
     10  C         22.2640  -22.8890  -10.5970 C.2     1  UNL1        0.0440
     11  C         24.4470  -22.9410  -11.7740 C.2     1  UNL1        0.1610
     12  N         25.4510  -22.5770  -10.9960 N.2     1  UNL1       -0.1300
     13  N         26.5890  -23.2310  -11.4100 N.2     1  UNL1       -0.1430
     14  C         26.2580  -23.9960  -12.4200 C.2     1  UNL1        0.2330
     15  N         24.9320  -23.8480  -12.6830 N.pl3   1  UNL1       -0.3320
     16  H         24.3990  -24.3340  -13.3860 H       1  UNL1        0.1680
     17  C         19.1610  -23.0500   -7.2030 C.2     1  UNL1        0.0440
     18  C         18.7680  -22.3370   -6.0440 C.2     1  UNL1        0.0080
     19  C         19.2380  -21.1730   -5.3640 C.2     1  UNL1        0.0320
     20  C         17.6870  -22.8270   -5.2980 C.2     1  UNL1        0.0450
     21  C         18.4320  -20.9620   -4.2710 C.2     1  UNL1        0.0910
     22  N         17.5000  -21.9630   -4.2370 N.pl3   1  UNL1       -0.3600
     23  C         16.4820  -22.1070   -3.2210 C.3     1  UNL1        0.1550
     24  C         17.0010  -24.0010   -5.6550 C.2     1  UNL1        0.0300
     25  C         17.4300  -24.7020   -6.7850 C.2     1  UNL1        0.0030
     26  C         18.4970  -24.2390   -7.5480 C.2     1  UNL1        0.0180
@<TRIPOS>BOND
     1    16    15    1
     2    15    14    1
     3    15    11    1
     4     8     7    2
     5     8     9    1
     6     7     6    1
     7    14    13    2
     8    11     9    1
     9    11    12    2
    10     9    10    2
    11     6     5    2
    12    13    12    1
    13    10     5    1
    14     5     3    1
    15     4     3    1
    16     3     1   am
    17     1     2    2
    18     1    17    1
    19    26    17    2
    20    26    25    1
    21    17    18    1
    22    25    24    2
    23    18    19    1
    24    18    20    2
    25    24    20    1
    26    19    21    2
    27    20    22    1
    28    21    22    1
    29    22    23    1
