@<TRIPOS>MOLECULE
79646_out_ligand_01.pdbqt
 32 35 0 0 0
SMALL
GASTEIGER

@<TRIPOS>ATOM
      1  C         18.8820  -23.7590   -8.3660 C.2     1  UNL1        0.0760
      2  C         20.2250  -24.1410   -8.4110 C.2     1  UNL1        0.0330
      3  C         21.0750  -23.6450   -9.4040 C.2     1  UNL1        0.0190
      4  C         20.5790  -22.7590  -10.3690 C.2     1  UNL1        0.0320
      5  C         19.2400  -22.3490  -10.3070 C.2     1  UNL1        0.0190
      6  C         18.4000  -22.8470   -9.3070 C.2     1  UNL1        0.0330
      7  C         21.4430  -22.1960  -11.4490 C.2     1  UNL1        0.2560
      8  O         20.9010  -21.6880  -12.4240 O.2     1  UNL1       -0.2670
      9  N         22.8060  -22.3510  -11.2520 N.am    1  UNL1       -0.3230
     10  H         23.0980  -22.9110  -10.4630 H       1  UNL1        0.1690
     11  C         23.8470  -21.8900  -12.0860 C.2     1  UNL1        0.0350
     12  C         25.0440  -21.5110  -11.4680 C.2     1  UNL1        0.0290
     13  C         26.1160  -21.0440  -12.2270 C.2     1  UNL1        0.0030
     14  C         25.9980  -20.9500  -13.6140 C.2     1  UNL1        0.0150
     15  C         24.8100  -21.3170  -14.2580 C.2     1  UNL1        0.0140
     16  C         23.7400  -21.7830  -13.4760 C.2     1  UNL1        0.0440
     17  C         24.7210  -21.2070  -15.7160 C.2     1  UNL1        0.1610
     18  N         24.2770  -22.1270  -16.5560 N.2     1  UNL1       -0.1300
     19  N         24.3540  -21.6310  -17.8370 N.2     1  UNL1       -0.1430
     20  C         24.8420  -20.4170  -17.7590 C.2     1  UNL1        0.2330
     21  N         25.0850  -20.1080  -16.4570 N.pl3   1  UNL1       -0.3320
     22  H         25.4550  -19.2380  -16.1050 H       1  UNL1        0.1680
     23  N         18.0530  -24.2480   -7.3550 N.pl3   1  UNL1       -0.0630
     24  C         17.8860  -23.5610   -6.2670 C.cat   1  UNL1        0.7270
     25  N         18.4550  -22.3460   -5.9720 N.pl3   1  UNL1       -0.1920
     26  N         17.0460  -24.1570   -5.3550 N.2     1  UNL1       -0.0680
     27  C         18.2440  -21.6780   -4.7880 C.3     1  UNL1        0.0250
     28  H         19.0740  -21.9330   -6.6540 H       1  UNL1        0.1840
     29  C         17.4380  -22.2190   -3.8630 C.2     1  UNL1        0.0520
     30  C         18.9350  -20.3650   -4.5860 C.3     1  UNL1        0.0680
     31  C         16.8390  -23.5320   -4.2380 C.2     1  UNL1        0.0510
     32  C         15.9190  -24.1800   -3.2330 C.3     1  UNL1        0.0710
@<TRIPOS>BOND
     1    19    20    2
     2    19    18    1
     3    20    21    1
     4    18    17    2
     5    21    22    1
     6    21    17    1
     7    17    15    1
     8    15    14    2
     9    15    16    1
    10    14    13    1
    11    16    11    2
    12     8     7    2
    13    13    12    2
    14    11    12    1
    15    11     9    1
    16     7     9   am
    17     7     4    1
    18     9    10    1
    19     4     5    2
    20     4     3    1
    21     5     6    1
    22     3     2    2
    23     6     1    2
    24     2     1    1
    25     1    23    1
    26    23    24    1
    27    28    25    1
    28    24    25    1
    29    24    26    2
    30    25    27    1
    31    26    31    1
    32    27    30    1
    33    27    29    1
    34    31    29    2
    35    31    32    1
