@<TRIPOS>MOLECULE
79642_out_ligand_01.pdbqt
 31 34 0 0 0
SMALL
GASTEIGER

@<TRIPOS>ATOM
      1  N         21.7680  -23.2660   -8.7800 N.am    1  UNL1       -0.3530
      2  C         20.7580  -24.1960   -8.7290 C.2     1  UNL1        0.2540
      3  O         20.9210  -25.4020   -8.8660 O.2     1  UNL1       -0.2680
      4  H         21.5190  -22.2870   -8.8360 H       1  UNL1        0.1630
      5  C         19.4050  -23.5990   -8.5680 C.2     1  UNL1        0.0590
      6  C         18.7830  -23.9120   -7.4210 C.2     1  UNL1        0.1120
      7  N         17.4880  -23.5170   -7.1420 N.am    1  UNL1       -0.3180
      8  C         16.7010  -22.8170   -8.0650 C.2     1  UNL1        0.2590
      9  O         15.5160  -22.5390   -7.8900 O.2     1  UNL1       -0.2670
     10  C         17.3750  -22.4020   -9.3270 C.2     1  UNL1        0.0430
     11  C         16.6690  -21.6280  -10.2590 C.2     1  UNL1        0.0180
     12  C         18.7100  -22.7720   -9.5650 C.2     1  UNL1       -0.0030
     13  C         17.2960  -21.2030  -11.4290 C.2     1  UNL1        0.0010
     14  C         18.6260  -21.5410  -11.6640 C.2     1  UNL1        0.0010
     15  C         19.3310  -22.3150  -10.7360 C.2     1  UNL1        0.0130
     16  C         16.8880  -23.9830   -5.9110 C.3     1  UNL1        0.0920
     17  C         16.2300  -23.0180   -4.9570 C.3     1  UNL1        0.0280
     18  C         17.4880  -23.7200   -4.5510 C.3     1  UNL1        0.0280
     19  C         23.1100  -23.6350   -9.1690 C.3     1  UNL1        0.1610
     20  C         23.5180  -22.8980  -10.4210 C.2     1  UNL1       -0.0400
     21  C         22.5620  -22.5390  -11.3820 C.2     1  UNL1        0.0100
     22  C         22.9500  -21.9010  -12.5620 C.2     1  UNL1        0.0250
     23  C         24.3010  -21.6180  -12.7780 C.2     1  UNL1        0.0740
     24  C         25.2690  -21.9800  -11.8400 C.2     1  UNL1        0.0250
     25  C         24.8740  -22.6220  -10.6650 C.2     1  UNL1        0.0100
     26  S         24.7750  -20.8090  -14.2820 S.O2    1  UNL1        0.2390
     27  O         25.4630  -19.5800  -13.9540 O.2     1  UNL1       -0.2060
     28  O         25.3240  -21.8010  -15.1730 O.2     1  UNL1       -0.2060
     29  N         23.2790  -20.3210  -14.8940 N.3     1  UNL1       -0.2250
     30  H         22.5950  -20.3380  -14.1310 H       1  UNL1        0.1360
     31  H         22.9620  -20.8820  -15.6850 H       1  UNL1        0.1360
@<TRIPOS>BOND
     1    31    29    1
     2    28    26    2
     3    29    26    1
     4    29    30    1
     5    26    27    2
     6    26    23    1
     7    23    22    2
     8    23    24    1
     9    22    21    1
    10    24    25    2
    11    14    13    2
    12    14    15    1
    13    13    11    1
    14    21    20    2
    15    15    12    2
    16    25    20    1
    17    20    19    1
    18    11    10    2
    19    12    10    1
    20    12     5    1
    21    10     8    1
    22    19     1    1
    23     3     2    2
    24     4     1    1
    25     1     2   am
    26     2     5    1
    27     5     6    2
    28     8     9    2
    29     8     7   am
    30     6     7    1
    31     7    16    1
    32    16    17    1
    33    16    18    1
    34    17    18    1
