@<TRIPOS>MOLECULE
79723_out_ligand_01.pdbqt
 34 37 0 0 0
SMALL
GASTEIGER

@<TRIPOS>ATOM
      1  C         21.5640  -22.2560   -9.6770 C.2     1  UNL1        0.0340
      2  C         22.8030  -21.8660   -9.1610 C.2     1  UNL1        0.0310
      3  C         23.8890  -21.6360  -10.0130 C.2     1  UNL1        0.0270
      4  C         23.7320  -21.7860  -11.3910 C.2     1  UNL1        0.0750
      5  C         22.5070  -22.1930  -11.9220 C.2     1  UNL1        0.0270
      6  C         21.4280  -22.4240  -11.0640 C.2     1  UNL1        0.0310
      7  N         20.4260  -22.5140   -8.8890 N.am    1  UNL1       -0.3260
      8  C         20.0220  -23.7310   -8.3410 C.2     1  UNL1        0.2350
      9  O         20.6410  -24.7870   -8.4460 O.2     1  UNL1       -0.2720
     10  H         19.8790  -21.7020   -8.6240 H       1  UNL1        0.1690
     11  C         18.6730  -23.6120   -7.5870 C.3     1  UNL1        0.1440
     12  C         18.6990  -22.6870   -6.3710 C.2     1  UNL1       -0.0410
     13  C         17.9360  -23.0040   -5.2340 C.2     1  UNL1        0.0080
     14  C         17.9230  -22.1600   -4.1220 C.2     1  UNL1        0.0010
     15  C         18.6690  -20.9840   -4.1310 C.2     1  UNL1        0.0000
     16  C         19.4280  -20.6520   -5.2510 C.2     1  UNL1        0.0010
     17  C         19.4400  -21.4950   -6.3640 C.2     1  UNL1        0.0080
     18  C         17.4960  -23.3020   -8.5150 C.2     1  UNL1       -0.0410
     19  C         16.3100  -24.0490   -8.4060 C.2     1  UNL1        0.0080
     20  C         15.2260  -23.7850   -9.2430 C.2     1  UNL1        0.0010
     21  C         15.3060  -22.7700  -10.1940 C.2     1  UNL1        0.0000
     22  C         16.4700  -22.0120  -10.3040 C.2     1  UNL1        0.0010
     23  C         17.5570  -22.2720   -9.4670 C.2     1  UNL1        0.0080
     24  S         25.1100  -21.5280  -12.4810 S.O2    1  UNL1        0.2480
     25  O         25.9470  -20.4680  -11.9600 O.2     1  UNL1       -0.2050
     26  O         25.6780  -22.8390  -12.7350 O.2     1  UNL1       -0.2050
     27  N         24.4080  -21.0580  -13.9100 N.pl3   1  UNL1       -0.1480
     28  H         23.3960  -21.1000  -13.8970 H       1  UNL1        0.1490
     29  C         24.9570  -21.5590  -15.0840 C.cat   1  UNL1        0.2150
     30  N         26.1070  -21.0530  -15.5310 N.2     1  UNL1       -0.2300
     31  C         26.4970  -21.4820  -16.7460 C.2     1  UNL1        0.1210
     32  C         25.7550  -22.3460  -17.5170 C.2     1  UNL1        0.0390
     33  C         24.5590  -22.7510  -16.9710 C.2     1  UNL1        0.1210
     34  N         24.1230  -22.3550  -15.7610 N.2     1  UNL1       -0.2300
@<TRIPOS>BOND
     1    32    33    1
     2    32    31    2
     3    33    34    2
     4    31    30    1
     5    34    29    1
     6    30    29    2
     7    29    27    1
     8    27    28    1
     9    27    24    1
    10    26    24    2
    11    24    25    2
    12    24     4    1
    13     5     4    2
    14     5     6    1
    15     4     3    1
    16     6     1    2
    17    22    21    2
    18    22    23    1
    19    21    20    1
    20     3     2    2
    21     1     2    1
    22     1     7    1
    23    23    18    2
    24    20    19    2
    25     7    10    1
    26     7     8   am
    27    18    19    1
    28    18    11    1
    29     9     8    2
    30     8    11    1
    31    11    12    1
    32    12    17    2
    33    12    13    1
    34    17    16    1
    35    16    15    2
    36    13    14    2
    37    15    14    1
