@<TRIPOS>MOLECULE
79731_out_ligand_01.pdbqt
 37 41 0 0 0
SMALL
GASTEIGER

@<TRIPOS>ATOM
      1  C         19.2890  -22.6970   -9.9250 C.2     1  UNL1        0.0750
      2  C         19.3500  -21.8480  -11.0310 C.2     1  UNL1        0.0270
      3  C         20.5470  -21.7230  -11.7440 C.2     1  UNL1        0.0310
      4  C         21.6780  -22.4510  -11.3670 C.2     1  UNL1        0.0340
      5  C         21.5960  -23.3140  -10.2640 C.2     1  UNL1        0.0310
      6  C         20.4050  -23.4420   -9.5430 C.2     1  UNL1        0.0270
      7  N         22.9170  -22.3850  -12.0320 N.am    1  UNL1       -0.3260
      8  C         23.2170  -21.7230  -13.2150 C.2     1  UNL1        0.2350
      9  O         22.4350  -21.0530  -13.8870 O.2     1  UNL1       -0.2720
     10  H         23.6860  -22.8770  -11.5900 H       1  UNL1        0.1690
     11  C         24.6830  -21.8810  -13.6630 C.2     1  UNL1        0.1490
     12  C         24.7880  -21.9740  -15.1690 C.2     1  UNL1       -0.0070
     13  C         24.2290  -23.0600  -15.8620 C.2     1  UNL1        0.0110
     14  C         25.4260  -20.9630  -15.8900 C.3     1  UNL1        0.0830
     15  C         24.3030  -23.1230  -17.2540 C.2     1  UNL1        0.0010
     16  C         24.9340  -22.1040  -17.9650 C.2     1  UNL1        0.0030
     17  C         25.4950  -21.0250  -17.2830 C.2     1  UNL1        0.0380
     18  O         26.0070  -19.8640  -15.3040 O.2     1  UNL1       -0.3100
     19  C         26.1480  -19.8480  -13.9380 C.2     1  UNL1        0.0830
     20  C         26.9230  -18.8130  -13.4130 C.2     1  UNL1        0.0380
     21  C         25.5560  -20.7870  -13.0910 C.2     1  UNL1       -0.0070
     22  C         27.1210  -18.7160  -12.0350 C.2     1  UNL1        0.0030
     23  C         26.5410  -19.6530  -11.1820 C.2     1  UNL1        0.0010
     24  C         25.7610  -20.6850  -11.7050 C.2     1  UNL1        0.0110
     25  S         17.7670  -22.8860   -9.0280 S.O2    1  UNL1        0.2480
     26  O         16.8860  -23.6600   -9.8830 O.2     1  UNL1       -0.2050
     27  O         17.3380  -21.5970   -8.5270 O.2     1  UNL1       -0.2050
     28  N         18.1670  -23.8890   -7.7660 N.pl3   1  UNL1       -0.1480
     29  H         18.1590  -24.8710   -8.0130 H       1  UNL1        0.1490
     30  C         17.5640  -23.6330   -6.5410 C.cat   1  UNL1        0.2160
     31  N         16.3150  -24.0480   -6.3360 N.2     1  UNL1       -0.2230
     32  C         15.7370  -23.6480   -5.1880 C.2     1  UNL1        0.0360
     33  C         16.3800  -22.8160   -4.2910 C.2     1  UNL1        0.0530
     34  C         14.3500  -24.1430   -4.9060 C.3     1  UNL1        0.0700
     35  C         17.6540  -22.3970   -4.6340 C.2     1  UNL1        0.0360
     36  C         18.4150  -21.4780   -3.7280 C.3     1  UNL1        0.0700
     37  N         18.2550  -22.7820   -5.7770 N.2     1  UNL1       -0.2230
@<TRIPOS>BOND
     1    16    17    2
     2    16    15    1
     3    17    14    1
     4    15    13    2
     5    14    18    1
     6    14    12    1
     7    13    12    1
     8    18    19    1
     9    12    11    2
    10    19    20    2
    11    19    21    1
    12     9     8    2
    13    11     8    1
    14    11    21    1
    15    20    22    1
    16     8     7   am
    17    21    24    2
    18    22    23    2
    19     7    10    1
    20     7     4    1
    21     3     4    2
    22     3     2    1
    23    24    23    1
    24     4     5    1
    25     2     1    2
    26     5     6    2
    27     1     6    1
    28     1    25    1
    29    26    25    2
    30    25    27    2
    31    25    28    1
    32    29    28    1
    33    28    30    1
    34    30    31    2
    35    30    37    1
    36    31    32    1
    37    37    35    2
    38    32    34    1
    39    32    33    2
    40    35    33    1
    41    35    36    1
