@<TRIPOS>MOLECULE
79764_out_ligand_01.pdbqt
 27 29 0 0 0
SMALL
GASTEIGER

@<TRIPOS>ATOM
      1  N         19.5880  -22.3940   -9.2350 N.am    1  UNL1       -0.3220
      2  C         19.4750  -23.5820   -8.5380 C.2     1  UNL1        0.2570
      3  O         20.0380  -24.6420   -8.7810 O.2     1  UNL1       -0.2670
      4  H         18.9230  -21.6720   -8.9870 H       1  UNL1        0.1690
      5  C         20.4690  -22.1070  -10.3030 C.2     1  UNL1        0.0420
      6  C         21.8500  -22.2850  -10.1870 C.2     1  UNL1        0.0540
      7  C         22.6910  -22.0140  -11.2720 C.2     1  UNL1        0.0760
      8  C         22.1770  -21.5450  -12.4760 C.2     1  UNL1        0.0250
      9  C         20.8040  -21.3390  -12.5920 C.2     1  UNL1        0.0100
     10  C         19.9380  -21.6120  -11.5150 C.2     1  UNL1       -0.0350
     11  C         18.4630  -21.3720  -11.7100 C.3     1  UNL1        0.0500
     12  S         24.4320  -22.2790  -11.0890 S.O2    1  UNL1        0.2390
     13  O         25.0220  -21.0510  -10.6100 O.2     1  UNL1       -0.2060
     14  O         24.9180  -22.9680  -12.2620 O.2     1  UNL1       -0.2060
     15  N         24.4960  -23.3700   -9.8060 N.3     1  UNL1       -0.2250
     16  H         25.0390  -24.1860  -10.0960 H       1  UNL1        0.1360
     17  H         24.8670  -22.9600   -8.9490 H       1  UNL1        0.1360
     18  C         18.4760  -23.5410   -7.4390 C.2     1  UNL1        0.0430
     19  C         17.4540  -24.4980   -7.5010 C.2     1  UNL1        0.0180
     20  C         16.4390  -24.4900   -6.5510 C.2     1  UNL1        0.0020
     21  C         16.4470  -23.5290   -5.5410 C.2     1  UNL1        0.0120
     22  C         17.4760  -22.5770   -5.4490 C.2     1  UNL1       -0.0250
     23  C         17.4700  -21.6310   -4.4100 C.2     1  UNL1        0.0120
     24  C         18.5270  -22.5760   -6.3980 C.2     1  UNL1       -0.0100
     25  C         18.4950  -20.6940   -4.2840 C.2     1  UNL1        0.0010
     26  C         19.5460  -20.6960   -5.1910 C.2     1  UNL1        0.0010
     27  C         19.5660  -21.6260   -6.2320 C.2     1  UNL1        0.0130
@<TRIPOS>BOND
     1     9     8    2
     2     9    10    1
     3     8     7    1
     4    14    12    2
     5    11    10    1
     6    10     5    2
     7     7    12    1
     8     7     6    2
     9    12    13    2
    10    12    15    1
    11     5     6    1
    12     5     1    1
    13    16    15    1
    14    15    17    1
    15     1     4    1
    16     1     2   am
    17     3     2    2
    18     2    18    1
    19    19    18    2
    20    19    20    1
    21    18    24    1
    22    20    21    2
    23    24    27    1
    24    24    22    2
    25    27    26    2
    26    21    22    1
    27    22    23    1
    28    26    25    1
    29    23    25    2
