@<TRIPOS>MOLECULE
79772_out_ligand_01.pdbqt
 28 30 0 0 0
SMALL
GASTEIGER

@<TRIPOS>ATOM
      1  C         21.6460  -22.1540  -11.4740 C.2     1  UNL1        0.0490
      2  C         22.3320  -22.9360  -10.6330 C.2     1  UNL1        0.0920
      3  C         21.6660  -23.6440   -9.5280 C.2     1  UNL1        0.2490
      4  O         22.3490  -24.2670   -8.7150 O.2     1  UNL1       -0.2680
      5  N         20.2830  -23.5740   -9.4580 N.am    1  UNL1       -0.3050
      6  C         19.5360  -22.6650  -10.2710 C.2     1  UNL1        0.0490
      7  C         18.1620  -22.4520  -10.0800 C.2     1  UNL1        0.0300
      8  C         17.4630  -21.5270  -10.8590 C.2     1  UNL1        0.0020
      9  C         18.1290  -20.7930  -11.8310 C.2     1  UNL1        0.0010
     10  C         19.4940  -20.9880  -12.0320 C.2     1  UNL1        0.0150
     11  C         20.2070  -21.9330  -11.2730 C.2     1  UNL1        0.0070
     12  C         19.6270  -24.3920   -8.4380 C.3     1  UNL1        0.2350
     13  C         18.9390  -23.5400   -7.3690 C.2     1  UNL1        0.2400
     14  O         19.5100  -22.5670   -6.8840 O.2     1  UNL1       -0.2710
     15  N         17.6560  -23.9720   -7.0810 N.am    1  UNL1       -0.3260
     16  H         17.3310  -24.7860   -7.6050 H       1  UNL1        0.1690
     17  C         16.7480  -23.4280   -6.1520 C.2     1  UNL1        0.0370
     18  C         17.0140  -23.6590   -4.7940 C.2     1  UNL1        0.0290
     19  C         16.1680  -23.1570   -3.8010 C.2     1  UNL1        0.0050
     20  C         15.0450  -22.4170   -4.1600 C.2     1  UNL1        0.0420
     21  C         14.7860  -22.1860   -5.5060 C.2     1  UNL1        0.1180
     22  F         13.7050  -21.4730   -5.8490 F       1  UNL1       -0.2060
     23  C         15.6230  -22.6830   -6.5020 C.2     1  UNL1        0.0710
     24  C         22.4610  -21.5910  -12.5850 C.2     1  UNL1        0.2520
     25  N         23.8150  -21.7780  -12.4330 N.am    1  UNL1       -0.3610
     26  C         24.7510  -21.1810  -13.3490 C.3     1  UNL1        0.1490
     27  H         24.1630  -22.1560  -11.5610 H       1  UNL1        0.1620
     28  O         21.9510  -20.9650  -13.5060 O.2     1  UNL1       -0.2680
@<TRIPOS>BOND
     1    28    24    2
     2    26    25    1
     3    24    25   am
     4    24     1    1
     5    25    27    1
     6    10     9    2
     7    10    11    1
     8     9     8    1
     9     1    11    1
    10     1     2    2
    11    11     6    2
    12     8     7    2
    13     2     3    1
    14     6     7    1
    15     6     5    1
    16     3     5   am
    17     3     4    2
    18     5    12    1
    19    12    13    1
    20    16    15    1
    21    13    15   am
    22    13    14    2
    23    15    17    1
    24    23    17    2
    25    23    21    1
    26    17    18    1
    27    22    21    1
    28    21    20    2
    29    18    19    2
    30    20    19    1
