@<TRIPOS>MOLECULE
79794_out_ligand_01.pdbqt
 38 42 0 0 0
SMALL
GASTEIGER

@<TRIPOS>ATOM
      1  C         19.1730  -22.5750   -7.9430 C.2     1  UNL1        0.0710
      2  C         18.4990  -22.0280   -9.1640 C.2     1  UNL1        0.0690
      3  C         19.2830  -21.8090  -10.2380 C.2     1  UNL1        0.1460
      4  N         20.6440  -22.0850  -10.1630 N.pl3   1  UNL1       -0.2100
      5  N         21.5880  -21.9410  -11.1290 N.2     1  UNL1       -0.1600
      6  C         22.7440  -22.3290  -10.5540 C.2     1  UNL1        0.1490
      7  C         22.5440  -22.7260   -9.2150 C.2     1  UNL1        0.0910
      8  C         21.2000  -22.5710   -8.9780 C.2     1  UNL1        0.1540
      9  N         20.4530  -22.8100   -7.8620 N.2     1  UNL1       -0.2290
     10  C         24.0190  -22.3200  -11.2930 C.2     1  UNL1        0.2760
     11  O         24.9060  -21.5100  -11.0460 O.2     1  UNL1       -0.2660
     12  N         24.0700  -23.3100  -12.2520 N.am    1  UNL1       -0.3190
     13  H         23.2450  -23.8990  -12.3300 H       1  UNL1        0.1690
     14  C         25.1400  -23.5510  -13.0840 C.2     1  UNL1        0.0710
     15  C         26.3360  -24.2750  -12.8860 C.2     1  UNL1        0.1690
     16  N         27.1210  -24.2700  -13.9690 N.2     1  UNL1       -0.1830
     17  N         26.4280  -23.5260  -14.8570 N.pl3   1  UNL1       -0.2750
     18  C         25.2280  -23.0830  -14.3720 C.2     1  UNL1        0.1430
     19  C         26.9600  -23.3080  -16.1950 C.3     1  UNL1        0.1920
     20  C         26.3490  -22.0920  -16.8340 C.2     1  UNL1        0.0000
     21  C         26.9370  -20.8280  -16.6910 C.2     1  UNL1        0.0120
     22  C         26.3510  -19.7060  -17.2810 C.2     1  UNL1        0.0010
     23  C         25.1710  -19.8330  -18.0140 C.2     1  UNL1        0.0030
     24  C         24.5720  -21.0840  -18.1530 C.2     1  UNL1        0.0430
     25  C         25.1610  -22.1970  -17.5620 C.2     1  UNL1        0.1240
     26  F         24.5680  -23.3910  -17.6980 F       1  UNL1       -0.2050
     27  C         18.7890  -21.2660  -11.5230 C.3     1  UNL1        0.4340
     28  F         19.0050  -22.1050  -12.5650 F       1  UNL1       -0.1650
     29  F         19.3500  -20.0710  -11.8370 F       1  UNL1       -0.1650
     30  F         17.4450  -21.0510  -11.4890 F       1  UNL1       -0.1650
     31  C         18.3090  -22.8300   -6.7540 C.2     1  UNL1       -0.0070
     32  C         17.2560  -23.7470   -6.7890 C.2     1  UNL1        0.0140
     33  C         16.4760  -23.9570   -5.6480 C.2     1  UNL1        0.0080
     34  C         16.7400  -23.2650   -4.4560 C.2     1  UNL1       -0.0560
     35  C         15.8780  -23.5220   -3.2500 C.3     1  UNL1        0.0490
     36  C         17.8080  -22.3470   -4.4130 C.2     1  UNL1       -0.0550
     37  C         18.5880  -22.1460   -5.5640 C.2     1  UNL1        0.0210
     38  C         18.1450  -21.5920   -3.1560 C.3     1  UNL1        0.0490
@<TRIPOS>BOND
     1    24    23    2
     2    24    25    1
     3    23    22    1
     4    26    25    1
     5    25    20    2
     6    22    21    2
     7    20    21    1
     8    20    19    1
     9    19    17    1
    10    17    18    1
    11    17    16    1
    12    18    14    2
    13    16    15    2
    14    14    15    1
    15    14    12    1
    16    28    27    1
    17    13    12    1
    18    12    10   am
    19    29    27    1
    20    27    30    1
    21    27     3    1
    22    10    11    2
    23    10     6    1
    24     5     6    2
    25     5     4    1
    26     6     7    1
    27     3     4    1
    28     3     2    2
    29     4     8    1
    30     7     8    2
    31     2     1    1
    32     8     9    1
    33     1     9    2
    34     1    31    1
    35    32    31    2
    36    32    33    1
    37    31    37    1
    38    33    34    2
    39    37    36    2
    40    34    36    1
    41    34    35    1
    42    36    38    1
