@<TRIPOS>MOLECULE
7983_out_ligand_01.pdbqt
 35 37 0 0 0
SMALL
GASTEIGER

@<TRIPOS>ATOM
      1  C         22.2320  -22.6160  -10.1440 C.3     1  UNL1        0.1890
      2  C         21.3440  -23.2310   -9.0500 C.2     1  UNL1        0.2450
      3  N         20.5110  -22.3000   -8.4480 N.am    1  UNL1       -0.3250
      4  H         20.5980  -21.3610   -8.8250 H       1  UNL1        0.1690
      5  O         21.4140  -24.4260   -8.7750 O.2     1  UNL1       -0.2710
      6  C         19.6520  -22.4860   -7.3520 C.2     1  UNL1        0.0340
      7  C         18.8720  -23.6510   -7.3380 C.2     1  UNL1        0.0300
      8  C         17.9530  -23.8870   -6.3090 C.2     1  UNL1        0.0190
      9  C         17.8150  -22.9590   -5.2720 C.2     1  UNL1        0.0320
     10  C         18.6170  -21.8140   -5.2640 C.2     1  UNL1        0.0190
     11  C         19.5250  -21.5760   -6.3020 C.2     1  UNL1        0.0300
     12  C         16.8440  -23.1480   -4.1640 C.2     1  UNL1        0.2490
     13  N         16.3250  -22.0220   -3.5820 N.am    1  UNL1       -0.3660
     14  H         16.7250  -21.1040   -3.7140 H       1  UNL1        0.1590
     15  H         15.7700  -22.1710   -2.7480 H       1  UNL1        0.1590
     16  O         16.5530  -24.2620   -3.7510 O.2     1  UNL1       -0.2680
     17  C         21.4730  -22.5380  -11.4830 C.3     1  UNL1        0.0740
     18  C         20.0340  -22.0770  -11.3640 C.2     1  UNL1       -0.0560
     19  C         19.0290  -22.9890  -11.0140 C.2     1  UNL1        0.0070
     20  C         17.7050  -22.5640  -10.8700 C.2     1  UNL1        0.0010
     21  C         17.3750  -21.2270  -11.0730 C.2     1  UNL1        0.0000
     22  C         18.3640  -20.3130  -11.4270 C.2     1  UNL1        0.0010
     23  C         19.6870  -20.7360  -11.5790 C.2     1  UNL1        0.0070
     24  N         23.5160  -23.3690  -10.2790 N.3     1  UNL1       -0.3010
     25  H         23.4650  -24.2710  -10.7650 H       1  UNL1        0.1730
     26  S         24.8840  -22.5040  -10.7320 S.O2    1  UNL1        0.2590
     27  O         26.0410  -23.2120  -10.2330 O.2     1  UNL1       -0.2010
     28  O         24.6180  -21.1250  -10.3880 O.2     1  UNL1       -0.2010
     29  C         24.8270  -22.6370  -12.5000 C.2     1  UNL1        0.0790
     30  C         24.3580  -21.5630  -13.2650 C.2     1  UNL1        0.0260
     31  C         24.3230  -21.6770  -14.6570 C.2     1  UNL1        0.0200
     32  C         24.7480  -22.8590  -15.2690 C.2     1  UNL1        0.0110
     33 BR         24.6980  -23.0100  -17.1540 Br      1  UNL1       -0.0510
     34  C         25.2060  -23.9330  -14.5030 C.2     1  UNL1        0.0200
     35  C         25.2420  -23.8260  -13.1100 C.2     1  UNL1        0.0260
@<TRIPOS>BOND
     1    33    32    1
     2    32    31    2
     3    32    34    1
     4    31    30    1
     5    34    35    2
     6    30    29    2
     7    35    29    1
     8    29    26    1
     9    23    22    1
    10    23    18    2
    11    17    18    1
    12    17     1    1
    13    22    21    2
    14    18    19    1
    15    21    20    1
    16    19    20    2
    17    25    24    1
    18    26    28    2
    19    26    24    1
    20    26    27    2
    21    24     1    1
    22     1     2    1
    23     2     5    2
    24     2     3   am
    25     4     3    1
    26     3     6    1
    27     6     7    2
    28     6    11    1
    29     7     8    1
    30     8     9    2
    31    11    10    2
    32     9    10    1
    33     9    12    1
    34    12    16    2
    35    12    13   am
    36    14    13    1
    37    13    15    1
