@<TRIPOS>MOLECULE
79831_out_ligand_01.pdbqt
 36 39 0 0 0
SMALL
GASTEIGER

@<TRIPOS>ATOM
      1  C         17.6760  -21.3870  -10.9640 C.2     1  UNL1        0.2930
      2  O         17.2140  -20.6730  -11.8590 O.2     1  UNL1       -0.2640
      3  N         19.0510  -21.4850  -10.7950 N.am    1  UNL1       -0.2600
      4  H         19.4550  -22.2880  -10.3160 H       1  UNL1        0.1900
      5  C         16.8810  -22.1740  -10.0430 C.2     1  UNL1        0.1450
      6  C         16.0390  -23.2620  -10.2080 C.2     1  UNL1        0.0450
      7  C         15.5580  -23.6080   -8.9220 C.2     1  UNL1        0.0380
      8  C         16.1320  -22.7200   -8.0380 C.2     1  UNL1        0.0780
      9  O         16.9260  -21.8440   -8.7140 O.2     1  UNL1       -0.3070
     10  C         16.0540  -22.5420   -6.5630 C.3     1  UNL1        0.2400
     11  O         17.0960  -23.3400   -5.9960 O.2     1  UNL1       -0.3440
     12  C         18.3310  -23.1670   -6.5660 C.2     1  UNL1        0.0760
     13  C         19.0660  -22.0260   -6.2000 C.2     1  UNL1       -0.0210
     14  C         20.3230  -21.8250   -6.7990 C.2     1  UNL1        0.0110
     15  C         20.8310  -22.7270   -7.7360 C.2     1  UNL1        0.0070
     16  C         20.0950  -23.8540   -8.1030 C.2     1  UNL1       -0.0590
     17  C         20.6170  -24.7970   -9.1460 C.3     1  UNL1        0.0480
     18  C         18.8330  -24.0550   -7.5280 C.2     1  UNL1        0.0440
     19  C         18.5850  -21.0000   -5.1830 C.3     1  UNL1        0.0130
     20  C         18.4150  -21.5930   -3.7820 C.3     1  UNL1        0.0150
     21  C         19.4620  -19.7450   -5.1570 C.3     1  UNL1        0.0150
     22  N         19.8690  -20.9400  -11.8180 N.am    1  UNL1       -0.2480
     23  C         21.1360  -21.5000  -11.9360 C.2     1  UNL1        0.3390
     24  O         21.5590  -22.2950  -11.1030 O.2     1  UNL1       -0.2450
     25  N         21.7960  -21.0130  -13.0440 N.am    1  UNL1       -0.3080
     26  H         21.3400  -20.2460  -13.5160 H       1  UNL1        0.1700
     27  H         19.3540  -20.7760  -12.6850 H       1  UNL1        0.1920
     28  C         23.0840  -21.3580  -13.4990 C.2     1  UNL1        0.0390
     29  C         23.5720  -20.6550  -14.6230 C.2     1  UNL1        0.0320
     30  C         24.8430  -20.9200  -15.1490 C.2     1  UNL1        0.0420
     31  C         25.5970  -21.8900  -14.5330 C.2     1  UNL1        0.1050
     32  C         25.1270  -22.5850  -13.4450 C.2     1  UNL1        0.1070
     33  O         26.8460  -22.2790  -14.9000 O.2     1  UNL1       -0.3230
     34  C         23.8780  -22.3440  -12.9050 C.2     1  UNL1        0.0690
     35  O         26.0240  -23.5020  -12.9910 O.2     1  UNL1       -0.3230
     36  C         27.1190  -23.2890  -13.9060 C.3     1  UNL1        0.3520
@<TRIPOS>BOND
     1    30    29    1
     2    30    31    2
     3    33    31    1
     4    33    36    1
     5    29    28    2
     6    31    32    1
     7    36    35    1
     8    26    25    1
     9    28    25    1
    10    28    34    1
    11    32    35    1
    12    32    34    2
    13    25    23   am
    14    27    22    1
    15    23    22   am
    16    23    24    2
    17     2     1    2
    18    22     3    1
    19     1     3   am
    20     1     5    1
    21     3     4    1
    22     6     5    2
    23     6     7    1
    24     5     9    1
    25    17    16    1
    26     7     8    2
    27     9     8    1
    28    16    15    2
    29    16    18    1
    30     8    10    1
    31    15    14    1
    32    18    12    2
    33    14    13    2
    34    12    13    1
    35    12    11    1
    36    10    11    1
    37    13    19    1
    38    19    21    1
    39    19    20    1
