@<TRIPOS>MOLECULE
79859_out_ligand_01.pdbqt
 29 32 0 0 0
SMALL
GASTEIGER

@<TRIPOS>ATOM
      1  C         24.1530  -23.0370  -10.4960 C.2     1  UNL1        0.0320
      2  C         23.4620  -23.5860   -9.4150 C.2     1  UNL1        0.0190
      3  C         22.0840  -23.3710   -9.2790 C.2     1  UNL1        0.0310
      4  C         21.3700  -22.5920  -10.2010 C.2     1  UNL1        0.0430
      5  C         22.0610  -22.0900  -11.3240 C.2     1  UNL1       -0.0300
      6  C         23.4450  -22.3120  -11.4570 C.2     1  UNL1        0.0260
      7  C         21.3560  -21.3620  -12.4430 C.3     1  UNL1        0.0420
      8  C         19.9480  -20.9320  -12.0660 C.3     1  UNL1        0.0250
      9  C         19.2520  -22.0590  -11.3250 C.3     1  UNL1        0.1320
     10  N         19.9630  -22.3610  -10.0790 N.am    1  UNL1       -0.3170
     11  C         19.1840  -22.4780   -8.9240 C.2     1  UNL1        0.2280
     12  O         17.9730  -22.7180   -8.9870 O.2     1  UNL1       -0.2730
     13  C         19.8450  -22.1810   -7.5780 C.3     1  UNL1        0.1430
     14  C         18.8580  -22.2060   -6.4260 C.2     1  UNL1       -0.0290
     15  C         17.8940  -23.2330   -6.4030 C.2     1  UNL1        0.0480
     16  C         16.9700  -23.3220   -5.3630 C.2     1  UNL1        0.1020
     17  C         17.0160  -22.4090   -4.3090 C.2     1  UNL1        0.1030
     18  O         16.0540  -24.3400   -5.4380 O.2     1  UNL1       -0.3460
     19  C         17.9570  -21.3830   -4.3170 C.2     1  UNL1        0.0590
     20  O         16.1620  -22.4560   -3.2370 O.2     1  UNL1       -0.3460
     21  C         18.8780  -21.2840   -5.3660 C.2     1  UNL1        0.0200
     22 BR         20.1320  -19.8580   -5.2760 Br      1  UNL1       -0.0500
     23  C         15.5020  -23.7240   -3.1530 C.3     1  UNL1        0.2020
     24  C         14.9760  -24.1430   -4.5160 C.3     1  UNL1        0.2020
     25  C         25.6120  -23.2420  -10.6940 C.2     1  UNL1        0.2490
     26  N         26.2620  -24.0630   -9.8140 N.am    1  UNL1       -0.3660
     27  H         25.8680  -24.3160   -8.9200 H       1  UNL1        0.1590
     28  H         27.2700  -24.0840   -9.8970 H       1  UNL1        0.1590
     29  O         26.2260  -22.6730  -11.5870 O.2     1  UNL1       -0.2680
@<TRIPOS>BOND
     1     7     8    1
     2     7     5    1
     3     8     9    1
     4    29    25    2
     5     6     5    1
     6     6     1    2
     7     9    10    1
     8     5     4    2
     9    25     1    1
    10    25    26   am
    11     1     2    1
    12     4    10    1
    13     4     3    1
    14    10    11   am
    15    28    26    1
    16    26    27    1
    17     2     3    2
    18    12    11    2
    19    11    13    1
    20    13    14    1
    21    14    15    2
    22    14    21    1
    23    15    16    1
    24    18    16    1
    25    18    24    1
    26    21    22    1
    27    21    19    2
    28    16    17    2
    29    24    23    1
    30    19    17    1
    31    17    20    1
    32    20    23    1
