@<TRIPOS>MOLECULE
79879_out_ligand_01.pdbqt
 28 30 0 0 0
SMALL
GASTEIGER

@<TRIPOS>ATOM
      1  C         20.3540  -21.8360  -11.4770 C.2     1  UNL1        0.0320
      2  C         19.2850  -21.1060  -12.0090 C.2     1  UNL1        0.0170
      3  C         18.0010  -21.2670  -11.4820 C.2     1  UNL1        0.0100
      4  C         17.7670  -22.1660  -10.4310 C.2     1  UNL1       -0.0400
      5  C         18.8420  -22.9000   -9.9090 C.2     1  UNL1        0.0100
      6  C         20.1250  -22.7420  -10.4350 C.2     1  UNL1        0.0170
      7  C         16.3810  -22.3140   -9.8560 C.3     1  UNL1        0.1610
      8  N         16.4200  -22.3000   -8.4120 N.am    1  UNL1       -0.3530
      9  C         16.0560  -23.3910   -7.6570 C.2     1  UNL1        0.2550
     10  O         15.7510  -24.4710   -8.1540 O.2     1  UNL1       -0.2680
     11  H         16.5660  -21.4070   -7.9570 H       1  UNL1        0.1630
     12  C         16.0330  -23.2250   -6.1760 C.2     1  UNL1        0.0700
     13  C         14.9880  -22.4810   -5.6060 C.2     1  UNL1        0.0200
     14  C         14.9190  -22.2990   -4.2210 C.2     1  UNL1        0.0010
     15  C         15.8920  -22.8550   -3.3930 C.2     1  UNL1        0.0030
     16  C         16.9340  -23.5950   -3.9490 C.2     1  UNL1        0.0430
     17  C         16.9990  -23.7760   -5.3300 C.2     1  UNL1        0.1320
     18  F         18.0240  -24.4930   -5.8200 F       1  UNL1       -0.2050
     19  C         21.7400  -21.6950  -12.0050 C.2     1  UNL1        0.2560
     20  O         21.9050  -21.0870  -13.0560 O.2     1  UNL1       -0.2670
     21  N         22.7170  -22.3190  -11.2490 N.am    1  UNL1       -0.3220
     22  H         22.4030  -22.8950  -10.4790 H       1  UNL1        0.1690
     23  C         24.1090  -22.3170  -11.4900 C.2     1  UNL1        0.0520
     24  C         25.0120  -21.4340  -10.9030 C.2     1  UNL1        0.0320
     25  C         26.3700  -21.5270  -11.2080 C.2     1  UNL1        0.0210
     26  C         26.7870  -22.5070  -12.0920 C.2     1  UNL1        0.1160
     27  N         25.9500  -23.3850  -12.6810 N.2     1  UNL1       -0.2710
     28  C         24.6370  -23.2670  -12.3650 C.2     1  UNL1        0.1450
@<TRIPOS>BOND
     1    20    19    2
     2    27    28    1
     3    27    26    2
     4    28    23    2
     5    26    25    1
     6     2     3    1
     7     2     1    2
     8    19     1    1
     9    19    21   am
    10    23    21    1
    11    23    24    1
    12     3     4    2
    13     1     6    1
    14    21    22    1
    15    25    24    2
    16     6     5    2
    17     4     5    1
    18     4     7    1
    19     7     8    1
    20     8    11    1
    21     8     9   am
    22    10     9    2
    23     9    12    1
    24    12    13    2
    25    12    17    1
    26    18    17    1
    27    13    14    1
    28    17    16    2
    29    14    15    2
    30    16    15    1
