@<TRIPOS>MOLECULE
7987_out_ligand_01.pdbqt
 33 35 0 0 0
SMALL
GASTEIGER

@<TRIPOS>ATOM
      1  C         21.3280  -24.1540   -8.8000 C.2     1  UNL1        0.2180
      2  O         20.8120  -25.1650   -9.2640 O.2     1  UNL1       -0.2740
      3  N         20.6110  -23.1110   -8.2640 N.am    1  UNL1       -0.3480
      4  H         21.0890  -22.3270   -7.8470 H       1  UNL1        0.1630
      5  C         22.8250  -23.9030   -8.8080 C.3     1  UNL1        0.1070
      6  C         23.1750  -22.4260   -8.9740 C.3     1  UNL1        0.0470
      7  C         23.5860  -22.0870  -10.3890 C.2     1  UNL1       -0.0580
      8  C         22.6240  -22.0170  -11.4080 C.2     1  UNL1        0.0090
      9  C         23.0020  -21.7290  -12.7210 C.2     1  UNL1        0.0260
     10  C         24.3490  -21.5030  -13.0140 C.2     1  UNL1        0.0790
     11  C         25.3200  -21.5790  -12.0140 C.2     1  UNL1        0.0260
     12  C         24.9360  -21.8710  -10.7030 C.2     1  UNL1        0.0090
     13  S         24.8190  -21.1380  -14.6840 S.O2    1  UNL1        0.2590
     14  O         23.6380  -21.2650  -15.5090 O.2     1  UNL1       -0.2010
     15  O         26.0440  -21.8430  -14.9910 O.2     1  UNL1       -0.2010
     16  N         25.1640  -19.5050  -14.5980 N.3     1  UNL1       -0.3110
     17  H         24.3730  -18.8810  -14.7470 H       1  UNL1        0.1720
     18  C         26.5350  -19.0180  -14.7460 C.3     1  UNL1        0.0850
     19  C         26.5240  -17.7160  -15.5370 C.3     1  UNL1        0.0320
     20  C         27.1210  -18.8070  -13.3540 C.3     1  UNL1        0.0320
     21  C         19.1640  -23.1480   -8.1390 C.3     1  UNL1        0.1510
     22  C         18.4470  -22.4510   -9.2940 C.2     1  UNL1       -0.0310
     23  C         17.0460  -22.3350   -9.2570 C.2     1  UNL1        0.0090
     24  C         16.3510  -21.6870  -10.2800 C.2     1  UNL1        0.0010
     25  C         17.0470  -21.1410  -11.3560 C.2     1  UNL1        0.0000
     26  C         18.4340  -21.2440  -11.4100 C.2     1  UNL1        0.0010
     27  C         19.1310  -21.8910  -10.3870 C.2     1  UNL1        0.0090
     28  C         18.7910  -22.6190   -6.7560 C.2     1  UNL1       -0.0310
     29  C         19.2950  -21.4100   -6.2480 C.2     1  UNL1        0.0090
     30  C         18.9630  -20.9850   -4.9590 C.2     1  UNL1        0.0010
     31  C         18.1350  -21.7660   -4.1570 C.2     1  UNL1        0.0000
     32  C         17.6390  -22.9730   -4.6390 C.2     1  UNL1        0.0010
     33  C         17.9680  -23.3990   -5.9270 C.2     1  UNL1        0.0090
@<TRIPOS>BOND
     1    19    18    1
     2    14    13    2
     3    15    13    2
     4    17    16    1
     5    18    16    1
     6    18    20    1
     7    13    16    1
     8    13    10    1
     9    10     9    2
    10    10    11    1
    11     9     8    1
    12    11    12    2
    13    26    25    2
    14    26    27    1
    15     8     7    2
    16    25    24    1
    17    12     7    1
    18     7     6    1
    19    27    22    2
    20    24    23    2
    21    22    23    1
    22    22    21    1
    23     2     1    2
    24     6     5    1
    25     5     1    1
    26     1     3   am
    27     3    21    1
    28     3     4    1
    29    21    28    1
    30    28    29    2
    31    28    33    1
    32    29    30    1
    33    33    32    2
    34    30    31    2
    35    32    31    1
