@<TRIPOS>MOLECULE
79881_out_ligand_01.pdbqt
 31 33 0 0 0
SMALL
GASTEIGER

@<TRIPOS>ATOM
      1  C         19.3130  -22.2940   -9.7650 C.2     1  UNL1        0.0210
      2  C         17.9090  -22.2750   -9.6980 C.2     1  UNL1        0.0200
      3  C         17.1520  -21.6540  -10.6930 C.2     1  UNL1        0.0010
      4  C         17.7840  -21.0450  -11.7710 C.2     1  UNL1        0.0010
      5  C         19.1760  -21.0470  -11.8490 C.2     1  UNL1        0.0180
      6  C         19.9500  -21.6520  -10.8420 C.2     1  UNL1        0.0490
      7  S         20.1680  -23.1670   -8.4540 S.3     1  UNL1       -0.0900
      8  C         18.8750  -23.2370   -7.2290 C.2     1  UNL1        0.0050
      9  C         18.0340  -24.3560   -7.1740 C.2     1  UNL1        0.0200
     10  C         17.0090  -24.4230   -6.2290 C.2     1  UNL1        0.0260
     11  C         16.8280  -23.3610   -5.3360 C.2     1  UNL1        0.0740
     12  C         17.6480  -22.2310   -5.3920 C.2     1  UNL1        0.0260
     13  C         18.6730  -22.1710   -6.3400 C.2     1  UNL1        0.0200
     14  S         15.5170  -23.4280   -4.1430 S.O2    1  UNL1        0.2390
     15  O         15.1410  -22.0770   -3.7960 O.2     1  UNL1       -0.2060
     16  O         15.8620  -24.4180   -3.1530 O.2     1  UNL1       -0.2060
     17  N         14.2460  -24.0280   -5.0690 N.3     1  UNL1       -0.2250
     18  H         13.8050  -23.3230   -5.6560 H       1  UNL1        0.1360
     19  H         13.5750  -24.4920   -4.4510 H       1  UNL1        0.1360
     20  C         21.4280  -21.5740  -11.0240 C.2     1  UNL1        0.2570
     21  O         22.0880  -21.0520  -10.1350 O.2     1  UNL1       -0.2670
     22  N         21.9150  -22.1410  -12.1830 N.am    1  UNL1       -0.3230
     23  H         21.2240  -22.5130  -12.8230 H       1  UNL1        0.1690
     24  C         23.2540  -22.2140  -12.6150 C.2     1  UNL1        0.0360
     25  C         23.6100  -21.4170  -13.7160 C.2     1  UNL1        0.0320
     26  C         24.9170  -21.4230  -14.2060 C.2     1  UNL1        0.0460
     27  C         25.8740  -22.2310  -13.6020 C.2     1  UNL1        0.1380
     28  F         27.1210  -22.2230  -14.0910 F       1  UNL1       -0.2040
     29  C         25.5350  -23.0270  -12.5110 C.2     1  UNL1        0.0740
     30 CL         26.7200  -24.0300  -11.7640 Cl      1  UNL1       -0.0810
     31  C         24.2270  -23.0210  -12.0160 C.2     1  UNL1        0.0560
@<TRIPOS>BOND
     1    26    25    1
     2    26    27    2
     3    28    27    1
     4    25    24    2
     5    27    29    1
     6    23    22    1
     7    24    22    1
     8    24    31    1
     9    29    31    2
    10    29    30    1
    11    22    20   am
    12     5     4    2
    13     5     6    1
    14     4     3    1
    15    20     6    1
    16    20    21    2
    17     6     1    2
    18     3     2    2
    19     1     2    1
    20     1     7    1
    21     7     8    1
    22     8     9    2
    23     8    13    1
    24     9    10    1
    25    13    12    2
    26    10    11    2
    27    18    17    1
    28    12    11    1
    29    11    14    1
    30    17    19    1
    31    17    14    1
    32    14    15    2
    33    14    16    2
