@<TRIPOS>MOLECULE
79927_out_ligand_01.pdbqt
 29 32 0 0 0
SMALL
GASTEIGER

@<TRIPOS>ATOM
      1  N         20.3430  -22.2020  -11.0770 N.am    1  UNL1       -0.3220
      2  C         19.1830  -21.4660  -11.2830 C.2     1  UNL1        0.2750
      3  O         19.0740  -20.5240  -12.0600 O.2     1  UNL1       -0.2660
      4  H         20.2580  -23.0350  -10.5130 H       1  UNL1        0.1690
      5  C         18.0290  -21.9320  -10.4850 C.2     1  UNL1        0.1320
      6  C         16.7070  -21.5650  -10.6760 C.2     1  UNL1        0.0890
      7  S         15.6890  -22.3490   -9.5400 S.3     1  UNL1       -0.0840
      8  C         17.0590  -23.1420   -8.8780 C.2     1  UNL1        0.0760
      9  N         18.2060  -22.8500   -9.4470 N.2     1  UNL1       -0.2400
     10  C         16.9100  -24.1000   -7.7360 C.3     1  UNL1        0.0720
     11  C         18.2030  -24.1860   -6.9240 C.3     1  UNL1        0.0450
     12  C         18.2860  -23.0830   -5.8970 C.2     1  UNL1       -0.0580
     13  C         18.9840  -21.9000   -6.1760 C.2     1  UNL1        0.0070
     14  C         19.0760  -20.8920   -5.2160 C.2     1  UNL1        0.0010
     15  C         18.4750  -21.0570   -3.9700 C.2     1  UNL1        0.0000
     16  C         17.7820  -22.2310   -3.6810 C.2     1  UNL1        0.0010
     17  C         17.6890  -23.2410   -4.6390 C.2     1  UNL1        0.0070
     18  C         21.6150  -21.9810  -11.6490 C.2     1  UNL1        0.0370
     19  C         22.7230  -22.1030  -10.7990 C.2     1  UNL1        0.0300
     20  C         24.0200  -21.8880  -11.2750 C.2     1  UNL1        0.0120
     21  C         24.2270  -21.5600  -12.6160 C.2     1  UNL1       -0.0310
     22  C         25.5950  -21.2250  -13.1380 C.3     1  UNL1        0.0500
     23  C         23.1230  -21.4400  -13.4640 C.2     1  UNL1        0.0430
     24  C         25.7170  -21.5560  -14.6170 C.3     1  UNL1        0.1080
     25  C         24.5450  -21.0310  -15.4130 C.2     1  UNL1        0.2220
     26  O         24.6600  -20.6570  -16.5780 O.2     1  UNL1       -0.2730
     27  N         23.3200  -21.0910  -14.8050 N.am    1  UNL1       -0.3270
     28  H         22.5240  -20.8700  -15.3910 H       1  UNL1        0.1690
     29  C         21.8240  -21.6360  -12.9860 C.2     1  UNL1        0.0590
@<TRIPOS>BOND
     1    26    25    2
     2    25    27   am
     3    25    24    1
     4    28    27    1
     5    27    23    1
     6    24    22    1
     7    23    29    1
     8    23    21    2
     9    22    21    1
    10    29    18    2
    11    21    20    1
    12     3     2    2
    13    18     1    1
    14    18    19    1
    15     2     1   am
    16     2     5    1
    17    20    19    2
    18     1     4    1
    19     6     5    2
    20     6     7    1
    21     5     9    1
    22     7     8    1
    23     9     8    2
    24     8    10    1
    25    10    11    1
    26    11    12    1
    27    13    12    2
    28    13    14    1
    29    12    17    1
    30    14    15    2
    31    17    16    2
    32    15    16    1
