@<TRIPOS>MOLECULE
7993_out_ligand_01.pdbqt
 35 37 0 0 0
SMALL
GASTEIGER

@<TRIPOS>ATOM
      1  C         21.0340  -23.5150   -8.5360 C.2     1  UNL1       -0.0580
      2  C         20.1550  -24.6030   -8.4270 C.2     1  UNL1        0.0090
      3  C         19.0520  -24.5390   -7.5740 C.2     1  UNL1        0.0260
      4  C         18.8230  -23.3770   -6.8350 C.2     1  UNL1        0.0790
      5  C         19.7040  -22.2960   -6.9130 C.2     1  UNL1        0.0260
      6  C         20.8080  -22.3670   -7.7640 C.2     1  UNL1        0.0090
      7  C         22.2320  -23.5920   -9.4570 C.3     1  UNL1        0.0480
      8  C         23.2830  -22.5380   -9.1250 C.3     1  UNL1        0.1080
      9  C         23.9530  -21.9950  -10.3750 C.2     1  UNL1        0.2220
     10  N         23.6860  -22.7650  -11.5000 N.am    1  UNL1       -0.3260
     11  H         22.7650  -23.1840  -11.4820 H       1  UNL1        0.1690
     12  O         24.6550  -20.9880  -10.3390 O.2     1  UNL1       -0.2730
     13  C         24.1770  -22.4390  -12.7890 C.2     1  UNL1        0.0470
     14  C         25.3930  -22.9630  -13.2940 C.2     1  UNL1       -0.0270
     15  C         25.8020  -22.5730  -14.5860 C.2     1  UNL1        0.0100
     16  C         25.0260  -21.7260  -15.3720 C.2     1  UNL1        0.0010
     17  C         23.8120  -21.2550  -14.8880 C.2     1  UNL1        0.0090
     18  C         23.3710  -21.6030  -13.6030 C.2     1  UNL1       -0.0350
     19  C         22.0590  -21.0340  -13.1270 C.3     1  UNL1        0.0500
     20  C         26.2330  -24.0050  -12.5590 C.3     1  UNL1        0.0130
     21  C         27.1210  -24.7930  -13.5330 C.3     1  UNL1        0.0150
     22  C         27.0880  -23.3800  -11.4500 C.3     1  UNL1        0.0150
     23  S         17.4070  -23.2700   -5.7680 S.O2    1  UNL1        0.2580
     24  O         17.2560  -21.8840   -5.3830 O.2     1  UNL1       -0.2010
     25  O         17.4960  -24.3310   -4.7910 O.2     1  UNL1       -0.2010
     26  N         16.1500  -23.6170   -6.8160 N.3     1  UNL1       -0.3150
     27  H         15.4530  -24.2670   -6.4610 H       1  UNL1        0.1720
     28  C         15.8180  -22.6930   -7.9020 C.3     1  UNL1        0.1370
     29  C         16.1440  -23.3110   -9.2680 C.3     1  UNL1        0.0580
     30  C         17.0250  -22.4570  -10.1480 C.2     1  UNL1       -0.0570
     31  C         16.6280  -21.1660  -10.5230 C.2     1  UNL1        0.0070
     32  C         17.4430  -20.3820  -11.3420 C.2     1  UNL1        0.0010
     33  C         18.6610  -20.8810  -11.7990 C.2     1  UNL1        0.0000
     34  C         19.0630  -22.1670  -11.4400 C.2     1  UNL1        0.0010
     35  C         18.2500  -22.9510  -10.6200 C.2     1  UNL1        0.0070
@<TRIPOS>BOND
     1    16    17    2
     2    16    15    1
     3    17    18    1
     4    15    14    2
     5    18    19    1
     6    18    13    2
     7    21    20    1
     8    14    13    1
     9    14    20    1
    10    13    10    1
    11    20    22    1
    12    33    34    2
    13    33    32    1
    14    10    11    1
    15    10     9   am
    16    34    35    1
    17    32    31    2
    18    35    30    2
    19    31    30    1
    20     9    12    2
    21     9     8    1
    22    30    29    1
    23     7     8    1
    24     7     1    1
    25    29    28    1
    26     1     2    2
    27     1     6    1
    28     2     3    1
    29    28    26    1
    30     6     5    2
    31     3     4    2
    32     5     4    1
    33     4    23    1
    34    26    27    1
    35    26    23    1
    36    23    24    2
    37    23    25    2
