@<TRIPOS>MOLECULE
79935_out_ligand_01.pdbqt
 31 33 0 0 0
SMALL
GASTEIGER

@<TRIPOS>ATOM
      1  C         20.0550  -23.6660   -8.9660 C.2     1  UNL1        0.2520
      2  O         19.9820  -24.7550   -8.4110 O.2     1  UNL1       -0.2680
      3  N         19.0490  -22.7250   -8.9270 N.am    1  UNL1       -0.3490
      4  H         19.2340  -21.7820   -9.2380 H       1  UNL1        0.1630
      5  C         21.2940  -23.2750   -9.6950 C.2     1  UNL1        0.0320
      6  C         22.5710  -23.5850   -9.2120 C.2     1  UNL1        0.0170
      7  C         23.7060  -23.2040   -9.9350 C.2     1  UNL1        0.0100
      8  C         23.5790  -22.4990  -11.1400 C.2     1  UNL1       -0.0400
      9  C         22.2970  -22.1830  -11.6130 C.2     1  UNL1        0.0100
     10  C         21.1620  -22.5620  -10.8920 C.2     1  UNL1        0.0170
     11  C         24.7970  -22.1100  -11.9410 C.3     1  UNL1        0.1610
     12  N         24.6140  -22.4340  -13.3370 N.am    1  UNL1       -0.3530
     13  C         24.6050  -21.4560  -14.3000 C.2     1  UNL1        0.2410
     14  O         24.8680  -20.2790  -14.1030 O.2     1  UNL1       -0.2690
     15  H         24.2380  -23.3430  -13.5590 H       1  UNL1        0.1630
     16  C         24.2360  -21.9930  -15.6360 C.2     1  UNL1        0.0760
     17  C         25.1030  -22.5370  -16.5130 C.2     1  UNL1       -0.0820
     18  C         26.5930  -22.6190  -16.3200 C.3     1  UNL1        0.0430
     19  C         24.6110  -23.1150  -17.8120 C.3     1  UNL1        0.0430
     20  C         17.8170  -22.9490   -8.1820 C.3     1  UNL1        0.1140
     21  C         16.6180  -22.4220   -8.9830 C.3     1  UNL1        0.0370
     22  C         17.9760  -22.3710   -6.7760 C.2     1  UNL1       -0.0250
     23  C         19.0460  -21.5030   -6.4810 C.2     1  UNL1        0.0100
     24  C         19.2180  -20.9770   -5.2040 C.2     1  UNL1        0.0020
     25  C         18.3310  -21.3150   -4.1890 C.2     1  UNL1        0.0120
     26  C         17.2660  -22.1920   -4.4300 C.2     1  UNL1       -0.0250
     27  C         16.3940  -22.5280   -3.3800 C.2     1  UNL1        0.0120
     28  C         17.0730  -22.7380   -5.7260 C.2     1  UNL1       -0.0180
     29  C         15.3310  -23.4050   -3.5800 C.2     1  UNL1        0.0010
     30  C         15.1290  -23.9590   -4.8360 C.2     1  UNL1        0.0010
     31  C         15.9860  -23.6310   -5.8900 C.2     1  UNL1        0.0130
@<TRIPOS>BOND
     1    19    17    1
     2    17    18    1
     3    17    16    2
     4    16    13    1
     5    13    14    2
     6    13    12   am
     7    15    12    1
     8    12    11    1
     9    11     8    1
    10     9     8    2
    11     9    10    1
    12     8     7    1
    13    10     5    2
    14     7     6    2
    15     5     6    1
    16     5     1    1
    17     4     3    1
    18    21    20    1
    19     1     3   am
    20     1     2    2
    21     3    20    1
    22    20    22    1
    23    22    23    2
    24    22    28    1
    25    23    24    1
    26    31    28    1
    27    31    30    2
    28    28    26    2
    29    24    25    2
    30    30    29    1
    31    26    25    1
    32    26    27    1
    33    29    27    2
