@<TRIPOS>MOLECULE
79937_out_ligand_01.pdbqt
 27 30 0 0 0
SMALL
GASTEIGER

@<TRIPOS>ATOM
      1  C         17.0610  -22.4030   -9.0190 C.2     1  UNL1        0.2790
      2  O         16.3300  -21.6510   -9.6650 O.2     1  UNL1       -0.2650
      3  N         18.4230  -22.5470   -9.2800 N.am    1  UNL1       -0.3110
      4  C         19.3920  -23.3570   -8.5180 C.3     1  UNL1        0.1470
      5  C         20.8060  -23.0060   -9.0350 C.3     1  UNL1        0.0090
      6  C         21.7190  -24.2320   -9.1520 C.3     1  UNL1        0.0160
      7  C         23.1400  -23.7490   -8.8480 C.3     1  UNL1        0.0010
      8  C         23.0300  -22.3020   -8.3780 C.3     1  UNL1        0.0010
      9  C         21.5570  -22.0930   -8.0550 C.3     1  UNL1        0.0160
     10  C         20.4650  -22.3180  -10.3340 C.2     1  UNL1        0.0180
     11  C         21.2970  -21.9520  -11.3810 C.2     1  UNL1        0.1250
     12  F         22.6000  -22.2530  -11.3660 F       1  UNL1       -0.2050
     13  C         20.7820  -21.2630  -12.4770 C.2     1  UNL1        0.0430
     14  C         19.4230  -20.9430  -12.5240 C.2     1  UNL1        0.0050
     15  C         18.5730  -21.3240  -11.4820 C.2     1  UNL1        0.0300
     16  C         19.1000  -22.0180  -10.4000 C.2     1  UNL1        0.0470
     17  C         16.4730  -23.1750   -7.9170 C.2     1  UNL1        0.1590
     18  C         16.3580  -22.7460   -6.6060 C.2     1  UNL1        0.1470
     19  N         15.7390  -23.7710   -5.9630 N.pl3   1  UNL1       -0.2740
     20  N         15.4830  -24.7900   -6.8030 N.2     1  UNL1        0.0050
     21  N         15.9130  -24.4290   -8.0030 N.2     1  UNL1       -0.1530
     22  C         15.3750  -23.8680   -4.5700 C.3     1  UNL1        0.2480
     23  C         15.2540  -22.5020   -3.9420 C.2     1  UNL1        0.2340
     24  N         16.2970  -22.1010   -3.1540 N.am    1  UNL1       -0.3690
     25  H         16.8840  -22.7990   -2.7030 H       1  UNL1        0.1590
     26  H         16.1640  -21.2330   -2.6490 H       1  UNL1        0.1590
     27  O         14.3030  -21.7530   -4.1490 O.2     1  UNL1       -0.2720
@<TRIPOS>BOND
     1    14    13    2
     2    14    15    1
     3    13    11    1
     4    15    16    2
     5    11    12    1
     6    11    10    2
     7    16    10    1
     8    16     3    1
     9    10     5    1
    10     2     1    2
    11     3     1   am
    12     3     4    1
    13     6     5    1
    14     6     7    1
    15     5     4    1
    16     5     9    1
    17     1    17    1
    18     7     8    1
    19     8     9    1
    20    21    17    1
    21    21    20    2
    22    17    18    2
    23    20    19    1
    24    18    19    1
    25    19    22    1
    26    22    23    1
    27    27    23    2
    28    23    24   am
    29    24    25    1
    30    24    26    1
