@<TRIPOS>MOLECULE
7994_out_ligand_01.pdbqt
 37 40 0 0 0
SMALL
GASTEIGER

@<TRIPOS>ATOM
      1  C         23.2560  -22.5780   -9.0660 C.3     1  UNL1        0.0470
      2  C         23.5730  -22.3740  -10.5300 C.2     1  UNL1       -0.0580
      3  C         22.5590  -22.0300  -11.4380 C.2     1  UNL1        0.0090
      4  C         22.8540  -21.8330  -12.7890 C.2     1  UNL1        0.0260
      5  C         24.1670  -21.9910  -13.2350 C.2     1  UNL1        0.0790
      6  C         25.1910  -22.3080  -12.3410 C.2     1  UNL1        0.0260
      7  C         24.8900  -22.5030  -10.9930 C.2     1  UNL1        0.0090
      8  S         24.5560  -21.7470  -14.9540 S.O2    1  UNL1        0.2630
      9  O         23.6190  -20.7690  -15.4770 O.2     1  UNL1       -0.2000
     10  O         24.7040  -23.0480  -15.5760 O.2     1  UNL1       -0.2000
     11  N         26.0530  -20.9640  -14.8980 N.pl3   1  UNL1       -0.2810
     12  H         26.8250  -21.6280  -14.8870 H       1  UNL1        0.1790
     13  C         26.2340  -19.7490  -15.6150 C.2     1  UNL1        0.0420
     14  C         26.2840  -19.7420  -17.0080 C.2     1  UNL1        0.0300
     15  C         26.4850  -18.5420  -17.6960 C.2     1  UNL1        0.0090
     16  C         26.6330  -17.3400  -16.9950 C.2     1  UNL1       -0.0620
     17  C         26.8700  -16.0590  -17.7400 C.3     1  UNL1        0.0480
     18  C         26.5950  -17.3600  -15.5940 C.2     1  UNL1        0.0090
     19  C         26.3910  -18.5590  -14.9060 C.2     1  UNL1        0.0300
     20  C         22.8510  -24.0140   -8.7400 C.3     1  UNL1        0.1070
     21  C         21.3500  -24.2370   -8.7810 C.2     1  UNL1        0.2180
     22  O         20.8300  -25.2730   -9.1820 O.2     1  UNL1       -0.2740
     23  N         20.6340  -23.1320   -8.3790 N.am    1  UNL1       -0.3480
     24  H         21.1170  -22.4050   -7.8750 H       1  UNL1        0.1630
     25  C         19.1900  -23.1770   -8.2060 C.3     1  UNL1        0.1510
     26  C         18.4350  -22.4570   -9.3250 C.2     1  UNL1       -0.0310
     27  C         19.1710  -21.8330  -10.3500 C.2     1  UNL1        0.0090
     28  C         18.5290  -21.1470  -11.3830 C.2     1  UNL1        0.0010
     29  C         17.1390  -21.0680  -11.4070 C.2     1  UNL1        0.0000
     30  C         16.3910  -21.6770  -10.4040 C.2     1  UNL1        0.0010
     31  C         17.0330  -22.3640   -9.3690 C.2     1  UNL1        0.0090
     32  C         18.8740  -22.6690   -6.8010 C.2     1  UNL1       -0.0310
     33  C         19.4080  -21.4380   -6.3800 C.2     1  UNL1        0.0090
     34  C         19.1100  -20.9270   -5.1150 C.2     1  UNL1        0.0010
     35  C         18.2670  -21.6330   -4.2580 C.2     1  UNL1        0.0000
     36  C         17.7150  -22.8450   -4.6680 C.2     1  UNL1        0.0010
     37  C         18.0090  -23.3570   -5.9330 C.2     1  UNL1        0.0090
@<TRIPOS>BOND
     1    17    16    1
     2    15    14    1
     3    15    16    2
     4    14    13    2
     5    16    18    1
     6    13    19    1
     7    13    11    1
     8    18    19    2
     9    10     8    2
    10     9     8    2
    11     8    11    1
    12     8     5    1
    13    11    12    1
    14     5     4    2
    15     5     6    1
    16     4     3    1
    17     6     7    2
    18     3     2    2
    19    29    28    2
    20    29    30    1
    21    28    27    1
    22     7     2    1
    23     2     1    1
    24    30    31    2
    25    27    26    2
    26    31    26    1
    27    26    25    1
    28    22    21    2
    29     1    20    1
    30    21    20    1
    31    21    23   am
    32    23    25    1
    33    23    24    1
    34    25    32    1
    35    32    33    2
    36    32    37    1
    37    33    34    1
    38    37    36    2
    39    34    35    2
    40    36    35    1
