@<TRIPOS>MOLECULE
79952_out_ligand_01.pdbqt
 26 29 0 0 0
SMALL
GASTEIGER

@<TRIPOS>ATOM
      1  C         22.1100  -22.1040  -11.8220 C.2     1  UNL1        0.0120
      2  C         22.5850  -22.9550  -10.8120 C.2     1  UNL1        0.0160
      3  C         21.7280  -23.4180   -9.8040 C.2     1  UNL1        0.0180
      4  C         20.3830  -23.0280   -9.7940 C.2     1  UNL1        0.0320
      5  C         19.8970  -22.1940  -10.8030 C.2     1  UNL1        0.0180
      6  C         20.7590  -21.7290  -11.8020 C.2     1  UNL1        0.0160
      7  C         19.4410  -23.5070   -8.7490 C.2     1  UNL1        0.2520
      8  O         19.7030  -24.5240   -8.1180 O.2     1  UNL1       -0.2680
      9  N         18.2950  -22.7510   -8.5920 N.am    1  UNL1       -0.3440
     10  H         18.1250  -21.9630   -9.2010 H       1  UNL1        0.1640
     11  C         17.3280  -22.9980   -7.5570 C.3     1  UNL1        0.0600
     12  C         15.8570  -22.8970   -7.9270 C.3     1  UNL1        0.0390
     13  C         16.4500  -24.2330   -7.6190 C.3     1  UNL1        0.0390
     14  C         17.7680  -22.4820   -6.1940 C.2     1  UNL1       -0.0300
     15  C         18.5850  -21.3440   -6.0820 C.2     1  UNL1        0.0100
     16  C         18.9830  -20.8490   -4.8360 C.2     1  UNL1        0.0010
     17  C         18.5670  -21.4840   -3.6710 C.2     1  UNL1        0.0000
     18  C         17.7500  -22.6080   -3.7510 C.2     1  UNL1        0.0010
     19  C         17.3530  -23.0970   -5.0000 C.2     1  UNL1        0.0100
     20  C         22.9740  -21.5980  -12.8900 C.ar    1  UNL1        0.1610
     21  N         22.5870  -21.0410  -14.0220 N.ar    1  UNL1       -0.1300
     22  N         23.7010  -20.7130  -14.7580 N.ar    1  UNL1       -0.1350
     23  C         24.7580  -21.0860  -14.0740 C.ar    1  UNL1        0.1240
     24  C         26.1770  -20.9540  -14.4600 C.3     1  UNL1        0.0930
     25  N         24.3460  -21.6460  -12.8950 N.ar    1  UNL1       -0.3260
     26  H         24.9370  -22.0430  -12.1830 H       1  UNL1        0.1690
@<TRIPOS>BOND
     1    22    23   ar
     2    22    21   ar
     3    24    23    1
     4    23    25   ar
     5    21    20   ar
     6    25    20   ar
     7    25    26    1
     8    20     1    1
     9     1     6    2
    10     1     2    1
    11     6     5    1
    12     2     3    2
    13     5     4    2
    14     3     4    1
    15     4     7    1
    16    10     9    1
    17     7     9   am
    18     7     8    2
    19     9    11    1
    20    12    13    1
    21    12    11    1
    22    13    11    1
    23    11    14    1
    24    14    15    2
    25    14    19    1
    26    15    16    1
    27    19    18    2
    28    16    17    2
    29    18    17    1
