@<TRIPOS>MOLECULE
79994_out_ligand_01.pdbqt
 32 35 0 0 0
SMALL
GASTEIGER

@<TRIPOS>ATOM
      1  C         19.5100  -22.6470  -10.2140 C.2     1  UNL1       -0.0080
      2  C         19.5410  -23.7410   -9.3500 C.2     1  UNL1        0.0130
      3  C         20.7680  -24.1940   -8.8730 C.2     1  UNL1        0.0030
      4  C         21.9550  -23.5590   -9.2640 C.2     1  UNL1        0.0290
      5  C         21.9280  -22.4680  -10.1360 C.2     1  UNL1        0.0350
      6  C         20.6910  -22.0060  -10.6010 C.2     1  UNL1        0.0430
      7  C         18.2050  -22.1540  -10.7160 C.2     1  UNL1        0.0610
      8  C         18.1110  -21.9140  -12.2040 C.3     1  UNL1        0.0730
      9  N         17.1600  -21.8710   -9.9900 N.2     1  UNL1       -0.1760
     10  N         17.1760  -22.2280   -8.6670 N.am    1  UNL1       -0.2430
     11  C         16.2850  -23.1730   -8.1590 C.2     1  UNL1        0.2720
     12  O         15.6140  -23.9540   -8.8270 O.2     1  UNL1       -0.2660
     13  H         17.4400  -21.4790   -8.0380 H       1  UNL1        0.1920
     14  C         16.2480  -23.1900   -6.6980 C.2     1  UNL1        0.0470
     15  C         15.2480  -23.8640   -6.0180 C.2     1  UNL1        0.0670
     16  S         15.4210  -23.7740   -4.3220 S.3     1  UNL1       -0.1050
     17  C         16.7870  -22.7740   -4.4630 C.2     1  UNL1       -0.0100
     18  C         17.1410  -22.5250   -5.7780 C.2     1  UNL1       -0.0290
     19  C         17.4990  -22.2460   -3.2560 C.3     1  UNL1        0.0460
     20  C         18.2720  -21.5920   -6.1180 C.3     1  UNL1        0.0400
     21  C         19.1890  -21.3300   -4.9130 C.3     1  UNL1        0.0050
     22  C         18.3870  -21.0510   -3.6360 C.3     1  UNL1        0.0050
     23  N         23.0770  -21.7930  -10.6030 N.am    1  UNL1       -0.3220
     24  C         23.9970  -22.2240  -11.5430 C.2     1  UNL1        0.2740
     25  O         23.9490  -23.3110  -12.1090 O.2     1  UNL1       -0.2660
     26  H         23.2190  -20.8720  -10.2190 H       1  UNL1        0.1690
     27  C         25.0590  -21.2680  -11.8200 C.2     1  UNL1        0.1210
     28  C         26.0990  -20.7900  -11.0350 C.2     1  UNL1        0.0580
     29  C         26.8070  -19.8860  -11.8450 C.2     1  UNL1        0.1410
     30  N         26.2760  -19.7810  -13.0590 N.2     1  UNL1       -0.1850
     31  N         25.2210  -20.6210  -13.0290 N.pl3   1  UNL1       -0.2690
     32  C         24.4030  -20.7460  -14.2160 C.3     1  UNL1        0.1800
@<TRIPOS>BOND
     1    32    31    1
     2    30    31    1
     3    30    29    2
     4    31    27    1
     5     8     7    1
     6    25    24    2
     7    29    28    1
     8    27    24    1
     9    27    28    2
    10    24    23   am
    11     7     1    1
    12     7     9    2
    13    23    26    1
    14    23     5    1
    15     6     1    2
    16     6     5    1
    17     1     2    1
    18     5     4    2
    19     9    10    1
    20     2     3    2
    21     4     3    1
    22    12    11    2
    23    10    11   am
    24    10    13    1
    25    11    14    1
    26    14    15    2
    27    14    18    1
    28    20    18    1
    29    20    21    1
    30    15    16    1
    31    18    17    2
    32    21    22    1
    33    17    16    1
    34    17    19    1
    35    22    19    1
