@<TRIPOS>MOLECULE
79990_out_ligand_01.pdbqt
 35 39 0 0 0
SMALL
GASTEIGER

@<TRIPOS>ATOM
      1  C         23.0600  -21.8070  -12.8180 C.2     1  UNL1        0.0350
      2  C         21.7040  -21.5750  -12.5740 C.2     1  UNL1        0.0310
      3  C         21.1230  -21.9630  -11.3620 C.2     1  UNL1        0.0270
      4  C         21.9060  -22.5710  -10.3800 C.2     1  UNL1        0.0790
      5  C         23.2580  -22.8290  -10.6160 C.2     1  UNL1        0.0270
      6  C         23.8310  -22.4420  -11.8310 C.2     1  UNL1        0.0310
      7  S         21.1870  -23.0660   -8.8370 S.O2    1  UNL1        0.2590
      8  O         21.6990  -22.1650   -7.8270 O.2     1  UNL1       -0.2010
      9  O         21.3170  -24.4980   -8.6960 O.2     1  UNL1       -0.2010
     10  N         19.5750  -22.6730   -9.0060 N.3     1  UNL1       -0.3050
     11  H         19.3510  -22.2770   -9.9170 H       1  UNL1        0.1730
     12  C         18.4750  -22.9290   -8.0630 C.3     1  UNL1        0.0410
     13  C         18.4720  -22.0200   -6.8200 C.3     1  UNL1        0.0360
     14  C         17.2600  -22.3350   -5.9220 C.3     1  UNL1       -0.0120
     15  C         17.3210  -23.8100   -5.4890 C.3     1  UNL1        0.0090
     16  C         15.9650  -22.0910   -6.7120 C.3     1  UNL1        0.0090
     17  C         17.2900  -24.7250   -6.7260 C.3     1  UNL1       -0.0120
     18  C         15.9940  -24.4670   -7.5150 C.3     1  UNL1        0.0090
     19  C         18.5020  -24.4080   -7.6200 C.3     1  UNL1        0.0360
     20  C         15.9330  -22.9960   -7.9550 C.3     1  UNL1       -0.0120
     21  C         17.1520  -22.6820   -8.8390 C.3     1  UNL1        0.0360
     22  N         23.7240  -21.4390  -14.0060 N.am    1  UNL1       -0.3220
     23  C         24.5990  -22.2010  -14.7560 C.2     1  UNL1        0.2770
     24  O         24.9700  -23.3390  -14.5110 O.2     1  UNL1       -0.2660
     25  H         23.5920  -20.4800  -14.3030 H       1  UNL1        0.1690
     26  C         25.0520  -21.5110  -15.9350 C.ar    1  UNL1        0.1550
     27  N         24.8310  -21.9120  -17.2250 N.ar    1  UNL1       -0.2660
     28  N         25.3400  -21.0740  -18.1470 N.ar    1  UNL1       -0.1750
     29  C         24.1440  -23.1060  -17.6680 C.3     1  UNL1        0.1800
     30  C         26.0110  -20.1600  -17.4300 C.ar    1  UNL1        0.0860
     31  C         26.7510  -19.0730  -18.1210 C.3     1  UNL1        0.0750
     32  C         25.8580  -20.3910  -16.0410 C.ar    1  UNL1        0.1620
     33  N         26.3790  -19.6140  -14.9610 N.pl3   1  UNL1       -0.1110
     34  O         26.0090  -18.4360  -14.8920 O.2     1  UNL1       -0.5320
     35  O         27.1210  -20.1940  -14.1600 O.2     1  UNL1       -0.5320
@<TRIPOS>BOND
     1    28    30   ar
     2    28    27   ar
     3    31    30    1
     4    29    27    1
     5    30    32   ar
     6    27    26   ar
     7    32    26   ar
     8    32    33    1
     9    26    23    1
    10    33    34    2
    11    33    35    2
    12    23    24    2
    13    23    22   am
    14    25    22    1
    15    22     1    1
    16     1     2    2
    17     1     6    1
    18     2     3    1
    19     6     5    2
    20     3     4    2
    21     5     4    1
    22     4     7    1
    23    11    10    1
    24    10     7    1
    25    10    12    1
    26    21    12    1
    27    21    20    1
    28     7     9    2
    29     7     8    2
    30    12    19    1
    31    12    13    1
    32    20    18    1
    33    20    16    1
    34    19    17    1
    35    18    17    1
    36    13    14    1
    37    17    15    1
    38    16    14    1
    39    14    15    1
