@<TRIPOS>MOLECULE
79996_out_ligand_01.pdbqt
 37 41 0 0 0
SMALL
GASTEIGER

@<TRIPOS>ATOM
      1  O         19.3960  -21.1190   -6.1210 O.2     1  UNL1       -0.2670
      2  C         19.5290  -22.2320   -6.6190 C.2     1  UNL1        0.2560
      3  N         18.6500  -23.2900   -6.5070 N.am    1  UNL1       -0.3220
      4  H         18.8380  -24.1180   -7.0730 H       1  UNL1        0.1690
      5  C         20.7280  -22.4880   -7.4740 C.2     1  UNL1        0.0320
      6  C         20.7960  -23.6970   -8.1760 C.2     1  UNL1        0.0170
      7  C         21.8950  -23.9790   -8.9910 C.2     1  UNL1        0.0100
      8  C         22.9380  -23.0530   -9.1300 C.2     1  UNL1       -0.0300
      9  C         22.8590  -21.8390   -8.4310 C.2     1  UNL1        0.0100
     10  C         21.7610  -21.5540   -7.6130 C.2     1  UNL1        0.0170
     11  C         24.1290  -23.3550  -10.0160 C.3     1  UNL1        0.3110
     12  N         24.5150  -22.3320  -10.9930 N.3     1  UNL1        0.0970
     13  C         25.8440  -21.7580  -10.7670 C.3     1  UNL1        0.2770
     14  C         26.0110  -20.4670  -11.5830 C.3     1  UNL1        0.0690
     15  C         25.5760  -20.6220  -13.0190 C.2     1  UNL1       -0.0490
     16  C         25.9380  -19.6600  -13.9720 C.2     1  UNL1        0.0070
     17  C         24.7530  -21.7000  -13.3910 C.2     1  UNL1       -0.0240
     18  C         25.5090  -19.7830  -15.2930 C.2     1  UNL1        0.0010
     19  C         24.7110  -20.8610  -15.6710 C.2     1  UNL1        0.0010
     20  C         24.3380  -21.8170  -14.7260 C.2     1  UNL1        0.0090
     21  C         24.3780  -22.7740  -12.3880 C.3     1  UNL1        0.3110
     22  C         17.4830  -23.3880   -5.7100 C.2     1  UNL1        0.0500
     23  C         17.5360  -23.6870   -4.3430 C.2     1  UNL1        0.0300
     24  C         16.3650  -23.8160   -3.5900 C.2     1  UNL1        0.0020
     25  C         15.1210  -23.6580   -4.1910 C.2     1  UNL1        0.0010
     26  C         15.0430  -23.3540   -5.5480 C.2     1  UNL1        0.0190
     27  C         16.2160  -23.1980   -6.3100 C.2     1  UNL1        0.0580
     28  C         16.1130  -22.8460   -7.7600 C.2     1  UNL1        0.2540
     29  O         15.0190  -22.5830   -8.2540 O.2     1  UNL1       -0.2680
     30  N         17.2810  -22.8910   -8.4950 N.am    1  UNL1       -0.3520
     31  H         18.1410  -23.1920   -8.0580 H       1  UNL1        0.1630
     32  C         17.3190  -22.5310   -9.9070 C.3     1  UNL1        0.0840
     33  C         18.6820  -22.8880  -10.5100 C.3     1  UNL1        0.0250
     34  C         18.7780  -22.4670  -11.9750 C.3     1  UNL1        0.0020
     35  C         18.4670  -20.9850  -12.1560 C.3     1  UNL1        0.0000
     36  C         17.1110  -20.6190  -11.5560 C.3     1  UNL1        0.0020
     37  C         17.0100  -21.0400  -10.0920 C.3     1  UNL1        0.0250
@<TRIPOS>BOND
     1    19    18    2
     2    19    20    1
     3    18    16    1
     4    20    17    2
     5    16    15    2
     6    17    15    1
     7    17    21    1
     8    15    14    1
     9    21    12    1
    10    35    34    1
    11    35    36    1
    12    34    33    1
    13    14    13    1
    14    36    37    1
    15    12    13    1
    16    12    11    1
    17    33    32    1
    18    37    32    1
    19    11     8    1
    20    32    30    1
    21     8     7    2
    22     8     9    1
    23     7     6    1
    24    30    31    1
    25    30    28   am
    26     9    10    2
    27    29    28    2
    28     6     5    2
    29    28    27    1
    30    10     5    1
    31     5     2    1
    32     4     3    1
    33     2     3   am
    34     2     1    2
    35     3    22    1
    36    27    22    2
    37    27    26    1
    38    22    23    1
    39    26    25    2
    40    23    24    2
    41    25    24    1
