@<TRIPOS>MOLECULE
79992_out_ligand_01.pdbqt
 32 35 0 0 0
SMALL
GASTEIGER

@<TRIPOS>ATOM
      1  C         21.6330  -23.3600   -9.5560 C.2     1  UNL1        0.0320
      2  C         21.4210  -22.5230  -10.6580 C.2     1  UNL1        0.0170
      3  C         22.5060  -21.9590  -11.3320 C.2     1  UNL1        0.0100
      4  C         23.8170  -22.2300  -10.9180 C.2     1  UNL1       -0.0300
      5  C         24.0230  -23.0910   -9.8280 C.2     1  UNL1        0.0100
      6  C         22.9390  -23.6560   -9.1510 C.2     1  UNL1        0.0170
      7  C         20.4470  -23.9330   -8.8600 C.2     1  UNL1        0.2560
      8  O         20.3710  -25.1510   -8.7440 O.2     1  UNL1       -0.2670
      9  N         19.5100  -23.0020   -8.4440 N.am    1  UNL1       -0.3230
     10  H         19.6600  -22.0460   -8.7390 H       1  UNL1        0.1690
     11  C         18.3190  -23.2500   -7.7320 C.2     1  UNL1        0.0350
     12  C         17.1610  -23.7700   -8.3070 C.2     1  UNL1        0.0310
     13  C         16.0210  -23.9900   -7.5280 C.2     1  UNL1        0.0270
     14  C         16.0260  -23.6960   -6.1630 C.2     1  UNL1        0.0490
     15 CL         14.5790  -23.9980   -5.2730 Cl      1  UNL1       -0.0830
     16  C         17.1770  -23.1780   -5.5600 C.2     1  UNL1        0.0710
     17  C         18.3170  -22.9610   -6.3610 C.2     1  UNL1        0.0470
     18  C         17.2150  -22.8520   -4.0920 C.3     1  UNL1        0.4190
     19  F         16.2160  -22.0000   -3.7140 F       1  UNL1       -0.1660
     20  F         18.3690  -22.2390   -3.7100 F       1  UNL1       -0.1660
     21  F         17.0720  -23.9460   -3.2960 F       1  UNL1       -0.1660
     22  C         24.9980  -21.6280  -11.6510 C.3     1  UNL1        0.3110
     23  N         24.7240  -21.3620  -13.0730 N.3     1  UNL1        0.0970
     24  C         25.6480  -20.3400  -13.5900 C.3     1  UNL1        0.2770
     25  C         25.2440  -19.9110  -15.0060 C.3     1  UNL1        0.0690
     26  C         25.0070  -21.0860  -15.9190 C.2     1  UNL1       -0.0490
     27  C         24.9570  -20.9020  -17.3080 C.2     1  UNL1        0.0070
     28  C         24.7750  -22.3590  -15.3740 C.2     1  UNL1       -0.0240
     29  C         24.7040  -21.9830  -18.1520 C.2     1  UNL1        0.0010
     30  C         24.4930  -23.2510  -17.6170 C.2     1  UNL1        0.0010
     31  C         24.5310  -23.4400  -16.2350 C.2     1  UNL1        0.0090
     32  C         24.8520  -22.5940  -13.8780 C.3     1  UNL1        0.3110
@<TRIPOS>BOND
     1    29    30    2
     2    29    27    1
     3    30    31    1
     4    27    26    2
     5    31    28    2
     6    26    28    1
     7    26    25    1
     8    28    32    1
     9    25    24    1
    10    32    23    1
    11    24    23    1
    12    23    22    1
    13    22     4    1
    14     3     4    2
    15     3     2    1
    16     4     5    1
    17     2     1    2
    18     5     6    2
    19     1     6    1
    20     1     7    1
    21     7     8    2
    22     7     9   am
    23    10     9    1
    24     9    11    1
    25    12    11    2
    26    12    13    1
    27    11    17    1
    28    13    14    2
    29    17    16    2
    30    14    16    1
    31    14    15    1
    32    16    18    1
    33    18    19    1
    34    18    20    1
    35    18    21    1
