@<TRIPOS>MOLECULE
79993_out_ligand_01.pdbqt
 32 35 0 0 0
SMALL
GASTEIGER

@<TRIPOS>ATOM
      1  C         23.2860  -21.9220  -11.1940 C.2     1  UNL1        0.0320
      2  C         23.3650  -21.9330   -9.7980 C.2     1  UNL1        0.0190
      3  C         22.2050  -22.0890   -9.0270 C.2     1  UNL1        0.0300
      4  C         20.9570  -22.2270   -9.6390 C.2     1  UNL1        0.0340
      5  C         20.8820  -22.1920  -11.0360 C.2     1  UNL1        0.0300
      6  C         22.0360  -22.0370  -11.8100 C.2     1  UNL1        0.0190
      7  N         19.7460  -22.3810   -8.9340 N.am    1  UNL1       -0.3260
      8  C         19.3300  -23.4740   -8.1840 C.2     1  UNL1        0.2350
      9  O         19.9610  -24.5190   -8.0460 O.2     1  UNL1       -0.2720
     10  H         19.0660  -21.6390   -9.0600 H       1  UNL1        0.1690
     11  C         17.9580  -23.2450   -7.4760 C.3     1  UNL1        0.0720
     12  C         17.2950  -24.6530   -7.3940 C.3     1  UNL1        0.0500
     13  C         15.7850  -24.5660   -7.5680 C.3     1  UNL1        0.1690
     14  O         15.4130  -24.0530   -8.8430 O.3     1  UNL1       -0.3910
     15  C         16.3150  -23.0980   -9.4030 C.3     1  UNL1        0.1690
     16  C         17.0650  -22.3090   -8.3380 C.3     1  UNL1        0.0500
     17  C         18.1770  -22.5360   -6.1190 C.2     1  UNL1       -0.0400
     18  C         17.6970  -23.1410   -4.9400 C.2     1  UNL1        0.0080
     19  C         17.8680  -22.5370   -3.6930 C.2     1  UNL1        0.0010
     20  C         18.5340  -21.3200   -3.5950 C.2     1  UNL1        0.0000
     21  C         19.0340  -20.7140   -4.7440 C.2     1  UNL1        0.0010
     22  C         18.8620  -21.3170   -5.9930 C.2     1  UNL1        0.0080
     23  C         24.4900  -21.7560  -12.0560 C.2     1  UNL1        0.2520
     24  O         25.6100  -21.8960  -11.5790 O.2     1  UNL1       -0.2680
     25  N         24.2560  -21.4070  -13.3730 N.am    1  UNL1       -0.3520
     26  H         23.3400  -21.0540  -13.6130 H       1  UNL1        0.1630
     27  C         25.3530  -21.0900  -14.2770 C.3     1  UNL1        0.0840
     28  C         25.0600  -21.6350  -15.6840 C.3     1  UNL1        0.0250
     29  C         25.7900  -20.8820  -16.7990 C.3     1  UNL1        0.0020
     30  C         27.0850  -20.2490  -16.3090 C.3     1  UNL1        0.0000
     31  C         26.8350  -19.2430  -15.1860 C.3     1  UNL1        0.0020
     32  C         25.6220  -19.5830  -14.3160 C.3     1  UNL1        0.0250
@<TRIPOS>BOND
     1    29    30    1
     2    29    28    1
     3    30    31    1
     4    28    27    1
     5    31    32    1
     6    32    27    1
     7    27    25    1
     8    26    25    1
     9    25    23   am
    10    23    24    2
    11    23     1    1
    12     6     1    2
    13     6     5    1
    14     1     2    1
    15     5     4    2
    16     2     3    2
    17     4     3    1
    18     4     7    1
    19    15    14    1
    20    15    16    1
    21    10     7    1
    22     7     8   am
    23    14    13    1
    24    16    11    1
    25     8     9    2
    26     8    11    1
    27    13    12    1
    28    11    12    1
    29    11    17    1
    30    17    22    2
    31    17    18    1
    32    22    21    1
    33    18    19    2
    34    21    20    2
    35    19    20    1
