@<TRIPOS>MOLECULE
80001_out_ligand_01.pdbqt
 33 38 0 0 0
SMALL
GASTEIGER

@<TRIPOS>ATOM
      1  S         19.9890  -23.5630   -8.9940 S.O2    1  UNL1        0.2460
      2  O         19.1220  -23.2990  -10.1240 O.2     1  UNL1       -0.2060
      3  O         20.4530  -24.8960   -8.6820 O.2     1  UNL1       -0.2060
      4  N         21.3140  -22.4950   -9.1440 N.pl3   1  UNL1       -0.1810
      5  H         21.1120  -21.6640   -8.5850 H       1  UNL1        0.1460
      6  C         21.6360  -22.1450  -10.4990 C.2     1  UNL1        0.0230
      7  C         20.7430  -21.3680  -11.2420 C.2     1  UNL1        0.0270
      8  C         21.0370  -20.9820  -12.5550 C.2     1  UNL1        0.0400
      9  C         22.2600  -21.4050  -13.0690 C.ar    1  UNL1        0.0870
     10  O         22.7300  -21.1290  -14.3220 O.2     1  UNL1       -0.3130
     11  C         23.1790  -22.1750  -12.3560 C.ar    1  UNL1        0.0160
     12  C         23.9450  -21.7180  -14.4030 C.ar    1  UNL1        0.0680
     13  C         24.7510  -21.6020  -15.6370 C.3     1  UNL1        0.0660
     14  C         24.2690  -22.3760  -13.2390 C.ar    1  UNL1        0.0520
     15  C         26.2220  -21.8650  -15.2680 C.3     1  UNL1        0.0140
     16  C         26.4010  -23.1100  -14.3790 C.3     1  UNL1        0.0840
     17  C         25.5280  -23.0820  -13.1210 C.2     1  UNL1        0.1630
     18  O         25.8500  -23.6820  -12.0990 O.2     1  UNL1       -0.2920
     19  C         22.8660  -22.5490  -11.0360 C.2     1  UNL1        0.0390
     20  C         19.1920  -22.9160   -7.5400 C.2     1  UNL1        0.0860
     21  C         19.8670  -21.9200   -6.7830 C.2     1  UNL1        0.0280
     22  C         19.2920  -21.3760   -5.6230 C.2     1  UNL1        0.0320
     23  C         18.0540  -21.8460   -5.2560 C.2     1  UNL1        0.0470
     24  C         17.4110  -22.8040   -5.9970 C.2     1  UNL1        0.0180
     25  N         17.2520  -21.5010   -4.1720 N.am    1  UNL1       -0.3220
     26  C         16.2000  -23.0920   -5.4180 C.2     1  UNL1        0.0450
     27  C         17.9050  -23.3930   -7.1570 C.2     1  UNL1        0.0000
     28  C         15.3530  -24.0270   -5.9720 C.2     1  UNL1        0.0180
     29  C         16.0810  -22.2420   -4.2130 C.2     1  UNL1        0.2570
     30  C         15.7800  -24.6650   -7.1450 C.2     1  UNL1        0.0020
     31  C         17.0310  -24.3600   -7.7330 C.2     1  UNL1        0.0140
     32  O         15.1480  -22.2160   -3.4380 O.2     1  UNL1       -0.2670
     33  H         17.4610  -20.8210   -3.4570 H       1  UNL1        0.1690
@<TRIPOS>BOND
     1    13    15    1
     2    13    12    1
     3    15    16    1
     4    12    10   ar
     5    12    14   ar
     6    16    17    1
     7    10     9   ar
     8    14    17    1
     9    14    11   ar
    10    17    18    2
    11     9     8    2
    12     9    11   ar
    13     8     7    1
    14    11    19    2
    15     7     6    2
    16    19     6    1
    17     6     4    1
    18     2     1    2
    19     4     1    1
    20     4     5    1
    21     1     3    2
    22     1    20    1
    23    31    27    1
    24    31    30    2
    25    20    27    2
    26    20    21    1
    27    27    24    1
    28    30    28    1
    29    21    22    2
    30    24    26    1
    31    24    23    2
    32    28    26    2
    33    22    23    1
    34    26    29    1
    35    23    25    1
    36    29    25   am
    37    29    32    2
    38    25    33    1
