@<TRIPOS>MOLECULE
80026_out_ligand_01.pdbqt
 34 37 0 0 0
SMALL
GASTEIGER

@<TRIPOS>ATOM
      1  C         22.3380  -22.7830   -8.9960 C.2     1  UNL1        0.0800
      2  C         21.4440  -23.8290   -9.2060 C.2     1  UNL1        0.0270
      3  C         20.2490  -23.8790   -8.4750 C.2     1  UNL1        0.0320
      4  C         19.9210  -22.8960   -7.5210 C.2     1  UNL1        0.0460
      5  C         20.8570  -21.8650   -7.3230 C.2     1  UNL1        0.0320
      6  C         22.0580  -21.8060   -8.0450 C.2     1  UNL1        0.0270
      7  S         23.8530  -22.7250   -9.9170 S.O2    1  UNL1        0.2630
      8  O         24.2770  -21.3460  -10.0370 O.2     1  UNL1       -0.2000
      9  O         24.7360  -23.7290   -9.3600 O.2     1  UNL1       -0.2000
     10  N         23.3820  -23.3100  -11.4340 N.pl3   1  UNL1       -0.2810
     11  H         23.3790  -24.3300  -11.4400 H       1  UNL1        0.1790
     12  C         23.8800  -22.6460  -12.5870 C.2     1  UNL1        0.0420
     13  C         25.1190  -23.0150  -13.1150 C.2     1  UNL1        0.0310
     14  C         25.5980  -22.3920  -14.2680 C.2     1  UNL1        0.0270
     15  C         24.8240  -21.4080  -14.8910 C.2     1  UNL1        0.0740
     16  C         23.5840  -21.0340  -14.3620 C.2     1  UNL1        0.0270
     17  C         23.1080  -21.6630  -13.2100 C.2     1  UNL1        0.0310
     18  S         25.4290  -20.5910  -16.3400 S.O2    1  UNL1        0.2390
     19  O         26.7510  -21.0890  -16.6370 O.2     1  UNL1       -0.2060
     20  O         24.3780  -20.5350  -17.3310 O.2     1  UNL1       -0.2060
     21  N         25.6260  -19.0160  -15.7970 N.3     1  UNL1       -0.2250
     22  H         25.8560  -18.4020  -16.5790 H       1  UNL1        0.1360
     23  H         26.3050  -18.9910  -15.0360 H       1  UNL1        0.1360
     24  N         18.6910  -22.9450   -6.7880 N.am    1  UNL1       -0.2440
     25  C         17.5970  -23.7220   -7.1200 C.2     1  UNL1        0.2660
     26  O         17.3950  -24.5050   -8.0320 O.2     1  UNL1       -0.2670
     27  C         16.5620  -23.4670   -6.1240 C.2     1  UNL1        0.0480
     28  C         15.2860  -23.9840   -6.0060 C.2     1  UNL1        0.0180
     29  C         17.0600  -22.5460   -5.2310 C.2     1  UNL1        0.0480
     30  C         14.5090  -23.5360   -4.9330 C.2     1  UNL1        0.0010
     31  C         15.0190  -22.5950   -4.0160 C.2     1  UNL1        0.0010
     32  C         16.3140  -22.0880   -4.1610 C.2     1  UNL1        0.0180
     33  C         18.4140  -22.2050   -5.6520 C.2     1  UNL1        0.2660
     34  O         19.0670  -21.3860   -5.0290 O.2     1  UNL1       -0.2670
@<TRIPOS>BOND
     1    20    18    2
     2    19    18    2
     3    22    21    1
     4    18    21    1
     5    18    15    1
     6    21    23    1
     7    15    16    2
     8    15    14    1
     9    16    17    1
    10    14    13    2
    11    17    12    2
    12    13    12    1
    13    12    10    1
    14    11    10    1
    15    10     7    1
    16     8     7    2
    17     7     9    2
    18     7     1    1
    19     2     1    2
    20     2     3    1
    21     1     6    1
    22     3     4    2
    23     6     5    2
    24    26    25    2
    25     4     5    1
    26     4    24    1
    27    25    24   am
    28    25    27    1
    29    24    33   am
    30    27    28    2
    31    27    29    1
    32    28    30    1
    33    33    29    1
    34    33    34    2
    35    29    32    2
    36    30    31    2
    37    32    31    1
