@<TRIPOS>MOLECULE
80060_out_ligand_01.pdbqt
 31 34 0 0 0
SMALL
GASTEIGER

@<TRIPOS>ATOM
      1  C         19.3650  -22.4260   -9.9390 C.2     1  UNL1        0.0340
      2  C         18.6290  -21.4310  -10.5950 C.2     1  UNL1        0.0170
      3  C         19.1770  -20.7910  -11.7030 C.2     1  UNL1        0.0030
      4  C         20.4530  -21.1440  -12.1510 C.2     1  UNL1        0.0290
      5  C         21.1990  -22.1370  -11.4960 C.2     1  UNL1        0.0350
      6  C         20.6500  -22.7700  -10.3810 C.2     1  UNL1        0.0460
      7  C         18.8050  -23.1120   -8.7450 C.2     1  UNL1        0.2560
      8  O         19.3330  -24.1530   -8.3770 O.2     1  UNL1       -0.2670
      9  N         17.7070  -22.4760   -8.1940 N.am    1  UNL1       -0.3220
     10  H         17.3480  -21.6960   -8.7230 H       1  UNL1        0.1690
     11  C         16.9770  -22.8330   -7.0300 C.2     1  UNL1        0.0460
     12  C         15.8610  -23.6760   -7.1080 C.2     1  UNL1        0.0300
     13  C         15.1540  -24.0400   -5.9650 C.2     1  UNL1        0.0030
     14  C         15.5540  -23.5690   -4.7210 C.2     1  UNL1        0.0120
     15  C         16.6660  -22.7260   -4.5990 C.2     1  UNL1       -0.0240
     16  C         17.0410  -22.2700   -3.3230 C.2     1  UNL1        0.0120
     17  C         17.4020  -22.3390   -5.7510 C.2     1  UNL1        0.0010
     18  C         18.1380  -21.4300   -3.1530 C.2     1  UNL1        0.0010
     19  C         18.8730  -21.0320   -4.2600 C.2     1  UNL1        0.0010
     20  C         18.5110  -21.4780   -5.5350 C.2     1  UNL1        0.0140
     21  N         22.4760  -22.4230  -12.0200 N.am    1  UNL1       -0.3230
     22  C         23.7000  -22.0510  -11.5010 C.2     1  UNL1        0.2570
     23  O         23.9020  -21.3930  -10.4870 O.2     1  UNL1       -0.2670
     24  H         22.4940  -22.9990  -12.8520 H       1  UNL1        0.1690
     25  C         24.8800  -22.4570  -12.3100 C.2     1  UNL1        0.0490
     26  C         24.7610  -23.6660  -13.0150 C.2     1  UNL1        0.0180
     27  C         25.8160  -24.1430  -13.7930 C.2     1  UNL1        0.0010
     28  C         26.9980  -23.4130  -13.8800 C.2     1  UNL1        0.0010
     29  C         27.1210  -22.2000  -13.1990 C.2     1  UNL1        0.0200
     30  C         26.0650  -21.7140  -12.4180 C.2     1  UNL1        0.0260
     31 BR         26.3210  -20.0210  -11.5950 Br      1  UNL1       -0.0500
@<TRIPOS>BOND
     1    28    27    2
     2    28    29    1
     3    27    26    1
     4    29    30    2
     5    26    25    2
     6    24    21    1
     7    30    25    1
     8    30    31    1
     9    25    22    1
    10     4     3    2
    11     4     5    1
    12    21    22   am
    13    21     5    1
    14     3     2    1
    15    22    23    2
    16     5     6    2
    17     2     1    2
    18     6     1    1
    19     1     7    1
    20     7     8    2
    21     7     9   am
    22    10     9    1
    23     9    11    1
    24    12    11    2
    25    12    13    1
    26    11    17    1
    27    13    14    2
    28    17    20    1
    29    17    15    2
    30    20    19    2
    31    14    15    1
    32    15    16    1
    33    19    18    1
    34    16    18    2
