@<TRIPOS>MOLECULE
8009_out_ligand_01.pdbqt
 36 38 0 0 0
SMALL
GASTEIGER

@<TRIPOS>ATOM
      1  N         17.6650  -23.2270   -8.1040 N.pl3   1  UNL1       -0.2630
      2  S         16.7920  -24.4100   -7.2620 S.O2    1  UNL1        0.2680
      3  O         17.7850  -25.2030   -6.5540 O.2     1  UNL1       -0.2000
      4  O         15.8290  -25.0520   -8.1280 O.2     1  UNL1       -0.2000
      5  C         15.8810  -23.4880   -6.0530 C.2     1  UNL1        0.1130
      6  C         14.8570  -22.6290   -6.4760 C.2     1  UNL1        0.0350
      7  C         14.1130  -21.9040   -5.5360 C.2     1  UNL1       -0.0600
      8  C         14.4240  -22.0320   -4.1760 C.2     1  UNL1        0.0090
      9  C         13.0340  -20.9600   -5.9800 C.3     1  UNL1        0.0480
     10  C         15.4490  -22.8850   -3.7580 C.2     1  UNL1        0.0390
     11  C         16.1920  -23.6020   -4.6980 C.2     1  UNL1        0.0910
     12  O         17.1600  -24.4700   -4.2750 O.2     1  UNL1       -0.3540
     13  C         17.8770  -23.9460   -3.1530 C.3     1  UNL1        0.2100
     14  C         16.9720  -22.5200   -9.2110 C.3     1  UNL1        0.2450
     15  C         17.8630  -21.9850  -10.3240 C.2     1  UNL1        0.2410
     16  O         17.4120  -21.1990  -11.1540 O.2     1  UNL1       -0.2710
     17  N         19.1700  -22.4400  -10.2620 N.am    1  UNL1       -0.3260
     18  H         19.3780  -23.1270   -9.5340 H       1  UNL1        0.1690
     19  C         20.2350  -22.1330  -11.1290 C.2     1  UNL1        0.0340
     20  C         20.1480  -21.2300  -12.1890 C.2     1  UNL1        0.0300
     21  C         21.2610  -20.9800  -13.0010 C.2     1  UNL1        0.0190
     22  C         22.4690  -21.6440  -12.7710 C.2     1  UNL1        0.0320
     23  C         22.5670  -22.5400  -11.7030 C.2     1  UNL1        0.0190
     24  C         21.4540  -22.7820  -10.8900 C.2     1  UNL1        0.0300
     25  C         23.6230  -21.3480  -13.6570 C.2     1  UNL1        0.2490
     26  N         23.3850  -20.5630  -14.7530 N.am    1  UNL1       -0.3660
     27  H         22.5810  -19.9520  -14.7920 H       1  UNL1        0.1590
     28  H         24.2130  -20.2600  -15.2510 H       1  UNL1        0.1590
     29  O         24.7520  -21.7480  -13.4070 O.2     1  UNL1       -0.2680
     30  C         18.6470  -22.4770   -7.3720 C.2     1  UNL1        0.0450
     31  C         19.9870  -22.6130   -7.7520 C.2     1  UNL1        0.0330
     32  C         20.9730  -21.8450   -7.1330 C.2     1  UNL1        0.0440
     33  C         20.6110  -20.9280   -6.1540 C.2     1  UNL1        0.1160
     34  F         21.5590  -20.1910   -5.5580 F       1  UNL1       -0.2060
     35  C         19.2810  -20.7610   -5.7870 C.2     1  UNL1        0.0440
     36  C         18.2940  -21.5310   -6.4030 C.2     1  UNL1        0.0330
@<TRIPOS>BOND
     1    28    26    1
     2    27    26    1
     3    26    25   am
     4    25    29    2
     5    25    22    1
     6    21    22    2
     7    21    20    1
     8    22    23    1
     9    20    19    2
    10    23    24    2
    11    16    15    2
    12    19    24    1
    13    19    17    1
    14    15    17   am
    15    15    14    1
    16    17    18    1
    17    14     1    1
    18     4     2    2
    19     1    30    1
    20     1     2    1
    21    31    30    2
    22    31    32    1
    23    30    36    1
    24     2     3    2
    25     2     5    1
    26    32    33    2
    27     6     5    2
    28     6     7    1
    29    36    35    2
    30    33    35    1
    31    33    34    1
    32     5    11    1
    33     9     7    1
    34     7     8    2
    35    11    12    1
    36    11    10    2
    37    12    13    1
    38     8    10    1
