@<TRIPOS>MOLECULE
80108_out_ligand_01.pdbqt
 26 29 0 0 0
SMALL
GASTEIGER

@<TRIPOS>ATOM
      1  O         15.3670  -22.5170   -9.7920 O.2     1  UNL1       -0.2670
      2  C         16.5520  -22.7020   -9.6050 C.2     1  UNL1        0.2570
      3  N         17.1530  -23.5400   -8.6790 N.am    1  UNL1       -0.3220
      4  C         18.5360  -23.4470   -8.8040 C.2     1  UNL1        0.0470
      5  C         19.5300  -24.0900   -8.1050 C.2     1  UNL1        0.0320
      6  C         20.8570  -23.7880   -8.4550 C.2     1  UNL1        0.0280
      7  C         21.1520  -22.8560   -9.4880 C.2     1  UNL1        0.0860
      8  C         20.1140  -22.2020  -10.2130 C.2     1  UNL1        0.0000
      9  C         20.1410  -21.2550  -11.2780 C.2     1  UNL1        0.0140
     10  C         18.9450  -20.7410  -11.8360 C.2     1  UNL1        0.0020
     11  C         17.6890  -21.1450  -11.3620 C.2     1  UNL1        0.0180
     12  C         17.6690  -22.0630  -10.3350 C.2     1  UNL1        0.0450
     13  C         18.8330  -22.5550   -9.8010 C.2     1  UNL1        0.0180
     14  H         16.6410  -24.1210   -8.0320 H       1  UNL1        0.1690
     15  S         22.8580  -22.5220   -9.8650 S.O2    1  UNL1        0.2460
     16  O         23.6690  -23.4010   -9.0540 O.2     1  UNL1       -0.2060
     17  O         23.0390  -21.0850   -9.8520 O.2     1  UNL1       -0.2060
     18  N         22.9320  -22.9930  -11.5060 N.pl3   1  UNL1       -0.1810
     19  H         21.9710  -23.0700  -11.8450 H       1  UNL1        0.1460
     20  C         23.6910  -22.0950  -12.3280 C.2     1  UNL1        0.0220
     21  C         25.0470  -21.8870  -12.0720 C.2     1  UNL1        0.0260
     22  C         25.7900  -21.0460  -12.9030 C.2     1  UNL1        0.0210
     23  C         25.1750  -20.4300  -13.9920 C.2     1  UNL1        0.0110
     24 BR         26.1830  -19.2930  -15.1180 Br      1  UNL1       -0.0510
     25  C         23.8260  -20.6520  -14.2630 C.2     1  UNL1        0.0210
     26  C         23.0830  -21.4930  -13.4310 C.2     1  UNL1        0.0260
@<TRIPOS>BOND
     1    24    23    1
     2    25    23    2
     3    25    26    1
     4    23    22    1
     5    26    20    2
     6    22    21    2
     7    20    21    1
     8    20    18    1
     9    19    18    1
    10    10    11    1
    11    10     9    2
    12    18    15    1
    13    11    12    2
    14     9     8    1
    15    12    13    1
    16    12     2    1
    17     8    13    1
    18     8     7    2
    19    15    17    2
    20    15     7    1
    21    15    16    2
    22    13     4    2
    23     1     2    2
    24     2     3   am
    25     7     6    1
    26     4     3    1
    27     4     5    1
    28     3    14    1
    29     6     5    2
