@<TRIPOS>MOLECULE
80127_out_ligand_01.pdbqt
 34 38 0 0 0
SMALL
GASTEIGER

@<TRIPOS>ATOM
      1  C         22.3000  -22.1950  -10.3060 C.2     1  UNL1       -0.0070
      2  C         22.0940  -23.3660   -9.6160 C.2     1  UNL1        0.1030
      3  N         20.7410  -23.6020   -9.5900 N.pl3   1  UNL1       -0.3530
      4  C         20.0690  -22.6150  -10.2850 C.2     1  UNL1        0.0450
      5  C         18.7010  -22.4340  -10.5490 C.2     1  UNL1        0.0300
      6  C         18.3140  -21.3230  -11.3030 C.2     1  UNL1        0.0020
      7  C         19.2550  -20.4170  -11.7790 C.2     1  UNL1        0.0010
      8  C         20.6160  -20.6020  -11.5110 C.2     1  UNL1        0.0140
      9  C         21.0350  -21.7150  -10.7510 C.2     1  UNL1        0.0020
     10  C         23.5840  -21.6350  -10.5600 C.3     1  UNL1        0.0340
     11  C         24.2130  -21.5050  -11.7450 C.ar    1  UNL1        0.0820
     12  C         23.6490  -21.8930  -13.0830 C.ar    1  UNL1        0.1620
     13  C         25.6190  -20.9430  -11.7040 C.ar    1  UNL1        0.2830
     14  N         24.5420  -21.8340  -14.1360 N.ar    1  UNL1       -0.1890
     15  N         22.4110  -22.2390  -13.2690 N.pl3   1  UNL1       -0.2810
     16  N         24.1960  -22.2000  -15.4300 N.ar    1  UNL1       -0.1610
     17  C         25.8260  -21.3930  -13.9430 C.ar    1  UNL1        0.2010
     18  C         25.2370  -22.0450  -16.1890 C.ar    1  UNL1        0.0950
     19  C         25.2500  -22.3420  -17.6490 C.3     1  UNL1        0.0810
     20  S         26.7120  -21.4510  -15.4480 S.2     1  UNL1       -0.0330
     21  N         26.3750  -20.9780  -12.8590 N.ar    1  UNL1       -0.1820
     22  H         22.3120  -22.4500  -14.2710 H       1  UNL1        0.1880
     23  O         26.0770  -20.4800  -10.6640 O.2     1  UNL1       -0.2650
     24  C         20.1300  -24.7210   -8.8870 C.3     1  UNL1        0.1550
     25  C         19.3530  -24.2830   -7.6450 C.3     1  UNL1        0.1960
     26  O         17.9390  -24.3590   -7.8310 O.2     1  UNL1       -0.3490
     27  C         17.0980  -23.8180   -6.8970 C.2     1  UNL1        0.0750
     28  C         17.2290  -23.9580   -5.5120 C.2     1  UNL1        0.0440
     29  C         16.3190  -23.3440   -4.6360 C.2     1  UNL1       -0.0590
     30  C         16.4520  -23.5280   -3.1530 C.3     1  UNL1        0.0480
     31  C         15.2550  -22.6090   -5.1640 C.2     1  UNL1        0.0070
     32  C         15.1150  -22.4650   -6.5430 C.2     1  UNL1        0.0100
     33  C         16.0310  -23.0640   -7.4190 C.2     1  UNL1       -0.0290
     34  C         15.8620  -22.8950   -8.9040 C.3     1  UNL1        0.0510
@<TRIPOS>BOND
     1    19    18    1
     2    18    20   ar
     3    18    16   ar
     4    20    17   ar
     5    16    14   ar
     6    22    15    1
     7    14    17   ar
     8    14    12   ar
     9    17    21   ar
    10    15    12    1
    11    12    11   ar
    12    21    13   ar
    13     7     8    2
    14     7     6    1
    15    11    13   ar
    16    11    10    1
    17    13    23    2
    18     8     9    1
    19     6     5    2
    20     9     1    1
    21     9     4    2
    22    10     1    1
    23     5     4    1
    24     1     2    2
    25     4     3    1
    26     2     3    1
    27     3    24    1
    28    34    33    1
    29    24    25    1
    30    26    25    1
    31    26    27    1
    32    33    27    2
    33    33    32    1
    34    27    28    1
    35    32    31    2
    36    28    29    2
    37    31    29    1
    38    29    30    1
