@<TRIPOS>MOLECULE
80156_out_ligand_01.pdbqt
 32 35 0 0 0
SMALL
GASTEIGER

@<TRIPOS>ATOM
      1  C         18.8480  -22.1290   -9.8950 C.2     1  UNL1        0.0330
      2  C         18.6140  -21.3910  -11.0840 C.2     1  UNL1        0.0180
      3  C         19.6250  -21.2020  -12.0340 C.2     1  UNL1        0.0190
      4  C         20.8530  -21.7690  -11.7650 C.2     1  UNL1        0.0480
      5  C         21.0830  -22.5000  -10.6120 C.2     1  UNL1        0.0490
      6  C         20.1040  -22.7090   -9.6580 C.2     1  UNL1        0.0350
      7  C         22.4710  -22.9550  -10.6480 C.2     1  UNL1        0.2620
      8  O         22.9930  -23.6110   -9.7650 O.2     1  UNL1       -0.2670
      9  N         23.0030  -22.4860  -11.8150 N.am    1  UNL1       -0.2760
     10  C         22.0960  -21.7630  -12.5380 C.2     1  UNL1        0.2620
     11  O         22.2380  -21.2010  -13.6060 O.2     1  UNL1       -0.2670
     12  C         17.7130  -22.2900   -8.9360 C.2     1  UNL1        0.2560
     13  O         16.5770  -22.1290   -9.3630 O.2     1  UNL1       -0.2670
     14  N         18.0750  -22.5810   -7.6350 N.am    1  UNL1       -0.3220
     15  H         19.0670  -22.5750   -7.4050 H       1  UNL1        0.1690
     16  C         17.2390  -22.8210   -6.5160 C.2     1  UNL1        0.0510
     17  C         16.1440  -23.6930   -6.5850 C.2     1  UNL1        0.0300
     18  C         15.3280  -23.9210   -5.4710 C.2     1  UNL1        0.0020
     19  C         15.5930  -23.2830   -4.2670 C.2     1  UNL1        0.0010
     20  C         16.6800  -22.4160   -4.1740 C.2     1  UNL1        0.0200
     21  C         17.5100  -22.1790   -5.2850 C.2     1  UNL1        0.0640
     22  C         18.6390  -21.2350   -5.0440 C.2     1  UNL1        0.1780
     23  O         19.5540  -21.0120   -5.8160 O.2     1  UNL1       -0.6460
     24  O         18.5950  -20.5920   -3.8580 O.3     1  UNL1       -0.7730
     25  H         19.4880  -20.1790   -3.8120 H       1  UNL1        0.1670
     26  C         24.3560  -22.7490  -12.2540 C.3     1  UNL1        0.1750
     27  C         25.2100  -21.5140  -12.1800 C.2     1  UNL1       -0.0220
     28  C         25.6130  -20.8350  -13.3330 C.2     1  UNL1        0.0120
     29  C         26.3860  -19.6840  -13.2210 C.2     1  UNL1        0.0200
     30  C         26.7250  -19.2420  -11.9530 C.2     1  UNL1        0.1160
     31  N         26.3430  -19.8630  -10.8170 N.2     1  UNL1       -0.2730
     32  C         25.5920  -20.9790  -10.9540 C.2     1  UNL1        0.1240
@<TRIPOS>BOND
     1    11    10    2
     2    28    29    1
     3    28    27    2
     4    29    30    2
     5    10     9   am
     6    10     4    1
     7    26    27    1
     8    26     9    1
     9    27    32    1
    10     3     4    2
    11     3     2    1
    12    30    31    1
    13     9     7   am
    14     4     5    1
    15     2     1    2
    16    32    31    2
    17     7     5    1
    18     7     8    2
    19     5     6    2
    20     1     6    1
    21     1    12    1
    22    13    12    2
    23    12    14   am
    24    14    15    1
    25    14    16    1
    26    17    16    2
    27    17    18    1
    28    16    21    1
    29    23    22    2
    30    18    19    2
    31    21    22    1
    32    21    20    2
    33    22    24    1
    34    19    20    1
    35    24    25    1
