@<TRIPOS>MOLECULE
80162_out_ligand_01.pdbqt
 37 40 0 0 0
SMALL
GASTEIGER

@<TRIPOS>ATOM
      1  C         22.2410  -21.7500  -12.6000 C.2     1  UNL1        0.0320
      2  C         22.7810  -22.5790  -11.6120 C.2     1  UNL1        0.0190
      3  C         21.9910  -23.0030  -10.5340 C.2     1  UNL1        0.0300
      4  C         20.6590  -22.5980  -10.4240 C.2     1  UNL1        0.0340
      5  C         20.1280  -21.7540  -11.4060 C.2     1  UNL1        0.0300
      6  C         20.9120  -21.3290  -12.4830 C.2     1  UNL1        0.0190
      7  N         19.8010  -22.9730   -9.3720 N.am    1  UNL1       -0.3260
      8  C         20.0200  -22.8500   -8.0050 C.2     1  UNL1        0.2350
      9  O         21.0360  -22.3820   -7.4940 O.2     1  UNL1       -0.2720
     10  H         18.9360  -23.4190   -9.6530 H       1  UNL1        0.1690
     11  C         18.8400  -23.3060   -7.1130 C.3     1  UNL1        0.1440
     12  C         18.6930  -22.4760   -5.8350 C.2     1  UNL1       -0.0410
     13  C         19.1350  -21.1470   -5.7380 C.2     1  UNL1        0.0080
     14  C         18.9530  -20.4210   -4.5580 C.2     1  UNL1        0.0010
     15  C         18.3260  -21.0070   -3.4620 C.2     1  UNL1        0.0000
     16  C         17.8770  -22.3230   -3.5430 C.2     1  UNL1        0.0010
     17  C         18.0570  -23.0520   -4.7190 C.2     1  UNL1        0.0080
     18  C         17.5370  -23.5210   -7.8910 C.2     1  UNL1       -0.0410
     19  C         16.6810  -24.6100   -7.6530 C.2     1  UNL1        0.0080
     20  C         15.4820  -24.7400   -8.3560 C.2     1  UNL1        0.0010
     21  C         15.1170  -23.7850   -9.3010 C.2     1  UNL1        0.0000
     22  C         15.9520  -22.6980   -9.5470 C.2     1  UNL1        0.0010
     23  C         17.1510  -22.5650   -8.8470 C.2     1  UNL1        0.0080
     24  C         23.0390  -21.2630  -13.7670 C.2     1  UNL1        0.2560
     25  O         22.6310  -20.2800  -14.3750 O.2     1  UNL1       -0.2670
     26  N         24.1620  -22.0070  -14.0660 N.am    1  UNL1       -0.3220
     27  H         24.3020  -22.8670  -13.5350 H       1  UNL1        0.1690
     28  C         25.1280  -21.7810  -15.0810 C.2     1  UNL1        0.0510
     29  C         25.0970  -22.4650  -16.3040 C.2     1  UNL1        0.0300
     30  C         26.0590  -22.2260  -17.2910 C.2     1  UNL1        0.0020
     31  C         27.0690  -21.2950  -17.0750 C.2     1  UNL1        0.0010
     32  C         27.1190  -20.5980  -15.8700 C.2     1  UNL1        0.0200
     33  C         26.1570  -20.8310  -14.8700 C.2     1  UNL1        0.0640
     34  C         26.2250  -20.0660  -13.5940 C.2     1  UNL1        0.1780
     35  O         26.2170  -20.5540  -12.4760 O.2     1  UNL1       -0.6460
     36  O         26.3000  -18.7350  -13.7670 O.3     1  UNL1       -0.7730
     37  H         26.7980  -18.4120  -12.9860 H       1  UNL1        0.1670
@<TRIPOS>BOND
     1    30    31    2
     2    30    29    1
     3    31    32    1
     4    29    28    2
     5    32    33    2
     6    28    33    1
     7    28    26    1
     8    33    34    1
     9    25    24    2
    10    26    24   am
    11    26    27    1
    12    36    34    1
    13    36    37    1
    14    24     1    1
    15    34    35    2
    16     1     6    2
    17     1     2    1
    18     6     5    1
    19     2     3    2
    20     5     4    2
    21     3     4    1
    22     4     7    1
    23    10     7    1
    24    22    21    2
    25    22    23    1
    26     7     8   am
    27    21    20    1
    28    23    18    2
    29    20    19    2
    30     8     9    2
    31     8    11    1
    32    18    19    1
    33    18    11    1
    34    11    12    1
    35    12    13    2
    36    12    17    1
    37    13    14    1
    38    17    16    2
    39    14    15    2
    40    16    15    1
