@<TRIPOS>MOLECULE
80166_out_ligand_01.pdbqt
 33 37 0 0 0
SMALL
GASTEIGER

@<TRIPOS>ATOM
      1  C         23.0050  -21.7720  -12.7200 C.2     1  UNL1        0.0350
      2  C         23.8250  -22.1500  -11.6450 C.2     1  UNL1        0.0310
      3  C         23.2700  -22.4990  -10.4100 C.2     1  UNL1        0.0270
      4  C         21.8860  -22.4600  -10.2430 C.2     1  UNL1        0.0790
      5  C         21.0570  -22.1080  -11.3090 C.2     1  UNL1        0.0270
      6  C         21.6190  -21.7570  -12.5420 C.2     1  UNL1        0.0310
      7  S         21.1580  -22.9070   -8.6890 S.O2    1  UNL1        0.2590
      8  O         21.1870  -24.3510   -8.6110 O.2     1  UNL1       -0.2010
      9  O         21.7450  -22.0900   -7.6520 O.2     1  UNL1       -0.2010
     10  N         19.5510  -22.4990   -8.8670 N.3     1  UNL1       -0.3050
     11  H         19.3770  -21.9010   -9.6740 H       1  UNL1        0.1730
     12  C         18.4390  -22.7620   -7.9420 C.3     1  UNL1        0.0410
     13  C         18.5250  -21.9990   -6.6060 C.3     1  UNL1        0.0360
     14  C         17.3480  -22.3800   -5.6900 C.3     1  UNL1       -0.0120
     15  C         17.3950  -23.8880   -5.4000 C.3     1  UNL1        0.0090
     16  C         16.0250  -22.0400   -6.3980 C.3     1  UNL1        0.0090
     17  C         17.2970  -24.6760   -6.7150 C.3     1  UNL1       -0.0120
     18  C         15.9740  -24.3300   -7.4170 C.3     1  UNL1        0.0090
     19  C         18.4690  -24.2820   -7.6270 C.3     1  UNL1        0.0360
     20  C         15.9170  -22.8240   -7.7170 C.3     1  UNL1       -0.0120
     21  C         17.0950  -22.4410   -8.6300 C.3     1  UNL1        0.0360
     22  N         23.6500  -21.4270  -13.9250 N.am    1  UNL1       -0.3220
     23  C         24.5910  -22.1620  -14.6220 C.2     1  UNL1        0.2750
     24  O         25.0490  -23.2470  -14.2900 O.2     1  UNL1       -0.2660
     25  H         23.4400  -20.5080  -14.2930 H       1  UNL1        0.1690
     26  C         24.9950  -21.5070  -15.8360 C.ar    1  UNL1        0.1390
     27  N         24.7860  -21.9820  -17.1040 N.ar    1  UNL1       -0.2670
     28  N         25.2050  -21.1460  -18.0750 N.ar    1  UNL1       -0.1760
     29  C         24.1810  -23.2400  -17.4810 C.3     1  UNL1        0.1800
     30  C         25.8050  -20.1490  -17.4110 C.ar    1  UNL1        0.0700
     31  C         26.4520  -19.0390  -18.1520 C.3     1  UNL1        0.0740
     32  C         25.7020  -20.3410  -16.0170 C.ar    1  UNL1        0.0700
     33 BR         26.3670  -19.1830  -14.7050 Br      1  UNL1       -0.0460
@<TRIPOS>BOND
     1    31    30    1
     2    28    30   ar
     3    28    27   ar
     4    29    27    1
     5    30    32   ar
     6    27    26   ar
     7    32    26   ar
     8    32    33    1
     9    26    23    1
    10    23    24    2
    11    23    22   am
    12    25    22    1
    13    22     1    1
    14     1     6    2
    15     1     2    1
    16     6     5    1
    17     2     3    2
    18     5     4    2
    19     3     4    1
    20     4     7    1
    21    11    10    1
    22    10     7    1
    23    10    12    1
    24     7     8    2
    25     7     9    2
    26    21    12    1
    27    21    20    1
    28    12    19    1
    29    12    13    1
    30    20    18    1
    31    20    16    1
    32    19    17    1
    33    18    17    1
    34    17    15    1
    35    13    14    1
    36    16    14    1
    37    14    15    1
