@<TRIPOS>MOLECULE
8018_out_ligand_01.pdbqt
 38 41 0 0 0
SMALL
GASTEIGER

@<TRIPOS>ATOM
      1  C         21.6110  -22.7510  -10.2240 C.2     1  UNL1        0.0800
      2  C         20.8390  -23.7890   -9.7000 C.2     1  UNL1        0.0280
      3  C         19.4620  -23.8110   -9.9350 C.2     1  UNL1        0.0390
      4  C         18.8540  -22.7910  -10.6760 C.2     1  UNL1        0.0750
      5  C         19.6320  -21.7350  -11.1890 C.2     1  UNL1       -0.0270
      6  C         19.0080  -20.6350  -12.0030 C.3     1  UNL1        0.0510
      7  C         21.0170  -21.7220  -10.9590 C.2     1  UNL1        0.0340
      8  O         17.5180  -22.7440  -10.9740 O.2     1  UNL1       -0.3420
      9  C         16.6910  -21.9450  -10.1310 C.3     1  UNL1        0.2780
     10  C         16.1960  -22.7530   -8.9260 C.2     1  UNL1        0.2460
     11  O         15.7490  -23.8880   -9.0730 O.2     1  UNL1       -0.2710
     12  N         16.3010  -22.0590   -7.7380 N.am    1  UNL1       -0.3230
     13  H         16.6940  -21.1230   -7.8100 H       1  UNL1        0.1690
     14  C         15.9640  -22.4790   -6.4370 C.2     1  UNL1        0.0690
     15  C         14.7080  -22.2950   -5.8600 C.2     1  UNL1        0.0320
     16  C         14.4530  -22.7510   -4.5610 C.2     1  UNL1        0.0020
     17  C         15.4520  -23.3890   -3.8250 C.2     1  UNL1        0.0030
     18  C         16.7130  -23.5770   -4.3870 C.2     1  UNL1        0.0390
     19  C         16.9590  -23.1360   -5.6900 C.2     1  UNL1        0.1020
     20  O         18.2180  -23.2670   -6.2400 O.2     1  UNL1       -0.3090
     21  C         19.0710  -22.1920   -6.1330 C.2     1  UNL1        0.0760
     22  C         18.8970  -21.1420   -5.2270 C.2     1  UNL1        0.0370
     23  C         19.8470  -20.1210   -5.1590 C.2     1  UNL1        0.0030
     24  C         20.9720  -20.1520   -5.9830 C.2     1  UNL1        0.0000
     25  C         21.1540  -21.2070   -6.8750 C.2     1  UNL1        0.0030
     26  C         20.2080  -22.2310   -6.9440 C.2     1  UNL1        0.0370
     27  S         23.3600  -22.7190   -9.9250 S.O2    1  UNL1        0.2630
     28  O         23.6800  -23.6960   -8.9070 O.2     1  UNL1       -0.2000
     29  O         23.7480  -21.3320   -9.7670 O.2     1  UNL1       -0.2000
     30  N         23.9970  -23.2150  -11.4080 N.pl3   1  UNL1       -0.2810
     31  H         23.4520  -23.9790  -11.8050 H       1  UNL1        0.1790
     32  C         24.4730  -22.2180  -12.2990 C.2     1  UNL1        0.0420
     33  C         23.6610  -21.7350  -13.3210 C.2     1  UNL1        0.0300
     34  C         24.1440  -20.7440  -14.1800 C.2     1  UNL1        0.0090
     35  C         25.4340  -20.2280  -14.0140 C.2     1  UNL1       -0.0620
     36  C         25.9640  -19.1880  -14.9590 C.3     1  UNL1        0.0480
     37  C         26.2450  -20.7320  -12.9910 C.2     1  UNL1        0.0090
     38  C         25.7630  -21.7210  -12.1310 C.2     1  UNL1        0.0300
@<TRIPOS>BOND
     1    36    35    1
     2    34    35    2
     3    34    33    1
     4    35    37    1
     5    33    32    2
     6    37    38    2
     7    32    38    1
     8    32    30    1
     9     6     5    1
    10    31    30    1
    11    30    27    1
    12     5     7    1
    13     5     4    2
    14     8     4    1
    15     8     9    1
    16     7     1    2
    17     4     3    1
    18     1    27    1
    19     1     2    1
    20     9    10    1
    21     3     2    2
    22    27    29    2
    23    27    28    2
    24    11    10    2
    25    10    12   am
    26    13    12    1
    27    12    14    1
    28    26    25    1
    29    26    21    2
    30    25    24    2
    31    14    15    2
    32    14    19    1
    33    20    21    1
    34    20    19    1
    35    21    22    1
    36    24    23    1
    37    15    16    1
    38    19    18    2
    39    22    23    2
    40    16    17    2
    41    18    17    1
