@<TRIPOS>MOLECULE
8020_out_ligand_01.pdbqt
 33 35 0 0 0
SMALL
GASTEIGER

@<TRIPOS>ATOM
      1  C         21.5370  -22.6770  -10.1740 C.2     1  UNL1        0.0800
      2  C         21.0160  -21.6760  -11.0000 C.2     1  UNL1        0.0280
      3  C         19.6530  -21.6760  -11.3130 C.2     1  UNL1        0.0380
      4  C         18.8140  -22.6670  -10.7970 C.2     1  UNL1        0.0690
      5  C         19.3450  -23.6480   -9.9520 C.2     1  UNL1        0.0380
      6  C         20.7040  -23.6570   -9.6340 C.2     1  UNL1        0.0280
      7  O         17.4660  -22.7700  -11.0050 O.2     1  UNL1       -0.3420
      8  C         16.5990  -22.0080  -10.1710 C.3     1  UNL1        0.2780
      9  C         16.1930  -22.6930   -8.8580 C.2     1  UNL1        0.2460
     10  O         15.7150  -23.8230   -8.8720 O.2     1  UNL1       -0.2710
     11  N         16.4500  -21.9040   -7.7500 N.am    1  UNL1       -0.3250
     12  H         16.8000  -20.9790   -7.9720 H       1  UNL1        0.1690
     13  C         16.2200  -22.1930   -6.3860 C.2     1  UNL1        0.0410
     14  C         14.9290  -22.3770   -5.8800 C.2     1  UNL1        0.0300
     15  C         14.7230  -22.6640   -4.5320 C.2     1  UNL1        0.0030
     16  C         15.8070  -22.7710   -3.6700 C.2     1  UNL1        0.0070
     17  C         17.1170  -22.5950   -4.1400 C.2     1  UNL1       -0.0540
     18  C         18.2470  -22.7240   -3.1530 C.3     1  UNL1        0.0490
     19  C         17.3340  -22.3020   -5.5100 C.2     1  UNL1       -0.0290
     20  C         18.7360  -22.0990   -6.0370 C.3     1  UNL1        0.0510
     21  S         23.2730  -22.6720   -9.7790 S.O2    1  UNL1        0.2630
     22  O         23.6630  -21.2960   -9.5560 O.2     1  UNL1       -0.2000
     23  O         23.5080  -23.6920   -8.7790 O.2     1  UNL1       -0.2000
     24  N         23.9930  -23.1350  -11.2370 N.pl3   1  UNL1       -0.2810
     25  H         24.4640  -24.0350  -11.1590 H       1  UNL1        0.1790
     26  C         24.5750  -22.1410  -12.0710 C.2     1  UNL1        0.0440
     27  C         24.2570  -22.0720  -13.4250 C.2     1  UNL1        0.0310
     28  C         24.8030  -21.0640  -14.2220 C.2     1  UNL1        0.0110
     29  C         25.6730  -20.1100  -13.6740 C.2     1  UNL1       -0.0400
     30  C         26.2420  -19.0340  -14.5560 C.3     1  UNL1        0.0500
     31  C         25.9840  -20.1930  -12.3080 C.2     1  UNL1        0.0420
     32  C         25.4410  -21.2040  -11.5090 C.2     1  UNL1        0.0540
     33 CL         27.0390  -19.0530  -11.5510 Cl      1  UNL1       -0.0840
@<TRIPOS>BOND
     1    30    29    1
     2    28    29    2
     3    28    27    1
     4    29    31    1
     5    27    26    2
     6    31    33    1
     7    31    32    2
     8    26    32    1
     9    26    24    1
    10     3     2    1
    11     3     4    2
    12    24    25    1
    13    24    21    1
    14     7     4    1
    15     7     8    1
    16     2     1    2
    17     4     5    1
    18     1    21    1
    19     1     6    1
    20     8     9    1
    21     5     6    2
    22    21    22    2
    23    21    23    2
    24    10     9    2
    25     9    11   am
    26    12    11    1
    27    11    13    1
    28    13    14    2
    29    13    19    1
    30    20    19    1
    31    14    15    1
    32    19    17    2
    33    15    16    2
    34    17    16    1
    35    17    18    1
