@<TRIPOS>MOLECULE
80221_out_ligand_01.pdbqt
 33 36 0 0 0
SMALL
GASTEIGER

@<TRIPOS>ATOM
      1  O         21.1120  -22.1810   -7.4480 O.2     1  UNL1       -0.2720
      2  C         20.2370  -22.7730   -8.0820 C.2     1  UNL1        0.2350
      3  N         20.3190  -23.1130   -9.4250 N.am    1  UNL1       -0.3260
      4  H         19.5380  -23.6350   -9.8060 H       1  UNL1        0.1690
      5  C         21.3770  -22.8630  -10.3220 C.2     1  UNL1        0.0340
      6  C         22.6740  -23.3590  -10.1630 C.2     1  UNL1        0.0310
      7  C         23.6710  -23.0570  -11.0990 C.2     1  UNL1        0.0270
      8  C         23.3650  -22.2630  -12.2050 C.2     1  UNL1        0.0750
      9  C         22.0790  -21.7500  -12.3720 C.2     1  UNL1        0.0270
     10  C         21.0900  -22.0560  -11.4310 C.2     1  UNL1        0.0310
     11  S         24.6440  -21.8600  -13.3670 S.O2    1  UNL1        0.2470
     12  O         25.4480  -23.0390  -13.6040 O.2     1  UNL1       -0.2050
     13  O         25.2680  -20.6280  -12.9200 O.2     1  UNL1       -0.2050
     14  N         23.7550  -21.4260  -14.7270 N.pl3   1  UNL1       -0.1590
     15  H         23.5420  -20.4320  -14.6940 H       1  UNL1        0.1480
     16  C         24.3710  -21.8520  -15.9590 C.2     1  UNL1        0.1580
     17  N         23.9010  -22.8750  -16.6270 N.2     1  UNL1       -0.2400
     18  C         24.6460  -23.0410  -17.7780 C.2     1  UNL1        0.1260
     19  C         25.6470  -22.1130  -17.9800 C.2     1  UNL1        0.0720
     20  S         25.6530  -20.9880  -16.6840 S.3     1  UNL1       -0.0680
     21  C         18.9030  -23.1480   -7.3960 C.3     1  UNL1        0.1440
     22  C         18.7150  -22.4800   -6.0330 C.2     1  UNL1       -0.0410
     23  C         18.0640  -23.1920   -5.0080 C.2     1  UNL1        0.0080
     24  C         17.8460  -22.6110   -3.7570 C.2     1  UNL1        0.0010
     25  C         18.2740  -21.3090   -3.5100 C.2     1  UNL1        0.0000
     26  C         18.9170  -20.5880   -4.5130 C.2     1  UNL1        0.0010
     27  C         19.1340  -21.1660   -5.7660 C.2     1  UNL1        0.0080
     28  C         17.6910  -23.0500   -8.3320 C.2     1  UNL1       -0.0410
     29  C         17.6560  -22.0220   -9.2910 C.2     1  UNL1        0.0080
     30  C         16.5570  -21.8680  -10.1350 C.2     1  UNL1        0.0010
     31  C         15.4740  -22.7380  -10.0350 C.2     1  UNL1        0.0000
     32  C         15.4890  -23.7600   -9.0900 C.2     1  UNL1        0.0010
     33  C         16.5880  -23.9160   -8.2420 C.2     1  UNL1        0.0080
@<TRIPOS>BOND
     1    19    18    2
     2    19    20    1
     3    18    17    1
     4    20    16    1
     5    17    16    2
     6    16    14    1
     7    14    15    1
     8    14    11    1
     9    12    11    2
    10    11    13    2
    11    11     8    1
    12     9     8    2
    13     9    10    1
    14     8     7    1
    15    10     5    2
    16     7     6    2
    17     5     6    1
    18     5     3    1
    19    30    31    2
    20    30    29    1
    21    31    32    1
    22     4     3    1
    23     3     2   am
    24    29    28    2
    25    32    33    2
    26    28    33    1
    27    28    21    1
    28     2     1    2
    29     2    21    1
    30    21    22    1
    31    22    27    2
    32    22    23    1
    33    27    26    1
    34    23    24    2
    35    26    25    2
    36    24    25    1
