@<TRIPOS>MOLECULE
80297_out_ligand_01.pdbqt
 33 36 0 0 0
SMALL
GASTEIGER

@<TRIPOS>ATOM
      1  C         21.8380  -23.0220  -10.0930 C.2     1  UNL1        0.0330
      2  C         23.0980  -23.3590   -9.5360 C.2     1  UNL1        0.0180
      3  C         24.2930  -23.0340  -10.1900 C.2     1  UNL1        0.0190
      4  C         24.1870  -22.3800  -11.4000 C.2     1  UNL1        0.0480
      5  C         22.9590  -22.0600  -11.9530 C.2     1  UNL1        0.0490
      6  C         21.7630  -22.3710  -11.3330 C.2     1  UNL1        0.0350
      7  C         23.2110  -21.3890  -13.2260 C.2     1  UNL1        0.2620
      8  O         22.3370  -20.9640  -13.9550 O.2     1  UNL1       -0.2670
      9  N         24.5680  -21.3420  -13.3780 N.am    1  UNL1       -0.2760
     10  C         25.2220  -21.9150  -12.3230 C.2     1  UNL1        0.2620
     11  O         26.4160  -22.0370  -12.1330 O.2     1  UNL1       -0.2670
     12  C         20.6110  -23.4190   -9.3400 C.2     1  UNL1        0.2560
     13  N         19.8170  -22.3710   -8.9110 N.am    1  UNL1       -0.3230
     14  H         20.1680  -21.4310   -9.0440 H       1  UNL1        0.1690
     15  O         20.4280  -24.6130   -9.1370 O.2     1  UNL1       -0.2670
     16  C         18.5870  -22.4570   -8.2250 C.2     1  UNL1        0.0350
     17  C         18.6230  -22.3500   -6.8300 C.2     1  UNL1        0.0300
     18  C         17.4470  -22.4190   -6.0750 C.2     1  UNL1        0.0100
     19  C         16.2100  -22.5960   -6.7040 C.2     1  UNL1       -0.0480
     20  C         16.1740  -22.6920   -8.1000 C.2     1  UNL1        0.0100
     21  C         17.3530  -22.6250   -8.8530 C.2     1  UNL1        0.0300
     22  C         14.9370  -22.6600   -5.8950 C.3     1  UNL1        0.1480
     23  C         15.1130  -23.2450   -4.5150 C.2     1  UNL1        0.1430
     24  O         15.2570  -24.4130   -4.2000 O.2     1  UNL1       -0.6500
     25  O         15.0640  -22.2930   -3.5580 O.3     1  UNL1       -0.7760
     26  H         15.9720  -22.2870   -3.1900 H       1  UNL1        0.1670
     27  C         25.2300  -20.7850  -14.5370 C.3     1  UNL1        0.1750
     28  C         24.9270  -21.5770  -15.7790 C.2     1  UNL1       -0.0220
     29  C         24.7870  -22.9680  -15.7420 C.2     1  UNL1        0.0120
     30  C         24.4850  -23.6620  -16.9090 C.2     1  UNL1        0.0200
     31  C         24.3270  -22.9380  -18.0790 C.2     1  UNL1        0.1160
     32  N         24.4440  -21.5950  -18.1530 N.2     1  UNL1       -0.2730
     33  C         24.7340  -20.9450  -17.0030 C.2     1  UNL1        0.1240
@<TRIPOS>BOND
     1    32    31    2
     2    32    33    1
     3    31    30    1
     4    33    28    2
     5    30    29    2
     6    28    29    1
     7    28    27    1
     8    27     9    1
     9     8     7    2
    10     9     7   am
    11     9    10   am
    12     7     5    1
    13    10    11    2
    14    10     4    1
    15     5     4    2
    16     5     6    1
    17     4     3    1
    18     6     1    2
    19     3     2    2
    20     1     2    1
    21     1    12    1
    22    12    15    2
    23    12    13   am
    24    14    13    1
    25    13    16    1
    26    21    16    2
    27    21    20    1
    28    16    17    1
    29    20    19    2
    30    17    18    2
    31    19    18    1
    32    19    22    1
    33    22    23    1
    34    23    24    2
    35    23    25    1
    36    25    26    1
