@<TRIPOS>MOLECULE
802_out_ligand_01.pdbqt
 34 36 0 0 0
SMALL
GASTEIGER

@<TRIPOS>ATOM
      1  C         19.4360  -21.8180  -10.7710 C.2     1  UNL1        0.0360
      2  C         18.7810  -20.7900  -11.4520 C.2     1  UNL1        0.0290
      3  C         17.3910  -20.6480  -11.3610 C.2     1  UNL1        0.0040
      4  C         16.6420  -21.5240  -10.5780 C.2     1  UNL1        0.0250
      5  C         17.3000  -22.5340   -9.8770 C.2     1  UNL1        0.0820
      6  C         18.6850  -22.6950   -9.9830 C.2     1  UNL1        0.0540
      7  S         16.3670  -23.6650   -8.8740 S.O2    1  UNL1        0.2630
      8  O         17.3010  -24.4350   -8.0750 O.2     1  UNL1       -0.2000
      9  O         15.4040  -24.3200   -9.7340 O.2     1  UNL1       -0.2000
     10  N         15.4750  -22.6440   -7.8680 N.pl3   1  UNL1       -0.2810
     11  H         15.1550  -21.8140   -8.3630 H       1  UNL1        0.1790
     12  C         15.7980  -22.5280   -6.4870 C.2     1  UNL1        0.0430
     13  C         14.9320  -22.9660   -5.4860 C.2     1  UNL1        0.0300
     14  C         15.2910  -22.8440   -4.1420 C.2     1  UNL1        0.0030
     15  C         16.5150  -22.2660   -3.7950 C.2     1  UNL1        0.0160
     16  C         17.3900  -21.8000   -4.7910 C.2     1  UNL1        0.0500
     17  C         17.0140  -21.9300   -6.1400 C.2     1  UNL1        0.0460
     18  C         18.6860  -21.1190   -4.4170 C.3     1  UNL1        0.4170
     19  F         19.6960  -21.3700   -5.2980 F       1  UNL1       -0.1660
     20  F         19.1410  -21.5180   -3.1950 F       1  UNL1       -0.1660
     21  F         18.5760  -19.7630   -4.3510 F       1  UNL1       -0.1660
     22  N         20.8250  -22.0520  -10.8270 N.am    1  UNL1       -0.3230
     23  C         21.6990  -21.8250  -11.8730 C.2     1  UNL1        0.2590
     24  O         21.3990  -21.3250  -12.9540 O.2     1  UNL1       -0.2670
     25  H         21.2380  -22.4760  -10.0030 H       1  UNL1        0.1690
     26  C         23.1380  -22.2130  -11.6390 C.2     1  UNL1        0.0670
     27  C         23.7460  -22.9790  -12.6530 C.2     1  UNL1        0.0430
     28  C         25.0730  -23.3810  -12.5360 C.2     1  UNL1        0.0350
     29  C         25.8160  -23.0320  -11.4140 C.2     1  UNL1        0.0260
     30 CL         25.8080  -24.3050  -13.7900 Cl      1  UNL1       -0.0840
     31  C         25.2280  -22.2780  -10.3950 C.2     1  UNL1        0.0390
     32  C         23.8880  -21.8700  -10.4880 C.2     1  UNL1        0.0840
     33  O         23.2680  -21.1190   -9.5190 O.2     1  UNL1       -0.3550
     34  C         22.8330  -21.7880   -8.3350 C.3     1  UNL1        0.2100
@<TRIPOS>BOND
     1    30    28    1
     2    24    23    2
     3    27    28    1
     4    27    26    2
     5    28    29    2
     6    23    26    1
     7    23    22   am
     8    26    32    1
     9     2     3    1
    10     2     1    2
    11    29    31    1
    12     3     4    2
    13    22     1    1
    14    22    25    1
    15     1     6    1
    16     4     5    1
    17    32    31    2
    18    32    33    1
    19     6     5    2
    20     5     7    1
    21     9     7    2
    22    33    34    1
    23     7     8    2
    24     7    10    1
    25    11    10    1
    26    10    12    1
    27    12    17    2
    28    12    13    1
    29    17    16    1
    30    13    14    2
    31    19    18    1
    32    16    18    1
    33    16    15    2
    34    18    21    1
    35    18    20    1
    36    14    15    1
