@<TRIPOS>MOLECULE
80302_out_ligand_01.pdbqt
 32 34 0 0 0
SMALL
GASTEIGER

@<TRIPOS>ATOM
      1  C         23.2150  -21.6970  -13.0740 C.2     1  UNL1       -0.0090
      2  C         21.8910  -21.2560  -13.1800 C.2     1  UNL1        0.0370
      3  C         21.1270  -21.1070  -12.0300 C.2     1  UNL1        0.0330
      4  C         19.7040  -20.6450  -12.1220 C.3     1  UNL1        0.0700
      5  N         21.6130  -21.3680  -10.7970 N.2     1  UNL1       -0.2390
      6  C         22.8950  -21.7870  -10.6620 C.2     1  UNL1        0.1440
      7  C         23.7150  -21.9760  -11.7860 C.2     1  UNL1        0.0940
      8  C         25.0480  -22.4700  -11.6150 C.1     1  UNL1        0.1030
      9  N         26.1350  -22.8560  -11.4820 N.1     1  UNL1       -0.1910
     10  N         23.4070  -22.1000   -9.3660 N.pl3   1  UNL1       -0.1640
     11  H         22.9290  -21.5360   -8.6610 H       1  UNL1        0.1570
     12  N         23.5370  -23.4200   -9.0490 N.2     1  UNL1       -0.2070
     13  C         22.4560  -24.0990   -8.8040 C.2     1  UNL1        0.1440
     14  C         21.0620  -23.6140   -8.7240 C.2     1  UNL1       -0.0160
     15  C         20.1280  -23.8960   -9.7220 C.2     1  UNL1        0.0160
     16  C         18.8160  -23.4210   -9.6120 C.2     1  UNL1        0.0390
     17  C         18.4320  -22.6490   -8.5100 C.2     1  UNL1        0.0860
     18  C         19.3920  -22.3490   -7.5280 C.2     1  UNL1        0.0450
     19 BR         18.9550  -21.2970   -6.0050 Br      1  UNL1       -0.0480
     20  C         20.7050  -22.8190   -7.6350 C.2     1  UNL1        0.0340
     21  O         17.1710  -22.1540   -8.3110 O.2     1  UNL1       -0.3450
     22  C         16.1180  -23.0830   -8.0450 C.3     1  UNL1        0.2170
     23  C         15.7950  -23.0750   -6.5720 C.2     1  UNL1        0.0040
     24  C         14.8820  -22.1660   -6.0170 C.2     1  UNL1        0.0120
     25  C         14.6340  -22.1570   -4.6420 C.2     1  UNL1        0.0010
     26  C         15.3030  -23.0490   -3.8030 C.2     1  UNL1        0.0030
     27  C         16.2240  -23.9460   -4.3400 C.2     1  UNL1        0.0430
     28  C         16.4670  -23.9470   -5.7110 C.2     1  UNL1        0.1240
     29  F         17.3750  -24.8040   -6.2040 F       1  UNL1       -0.2050
     30  C         24.0750  -21.9070  -14.3040 C.3     1  UNL1        0.2070
     31  O         23.7390  -20.9840  -15.3400 O.3     1  UNL1       -0.3910
     32  C         24.8540  -20.7130  -16.1780 C.3     1  UNL1        0.2010
@<TRIPOS>BOND
     1    32    31    1
     2    31    30    1
     3    30     1    1
     4     2     1    2
     5     2     3    1
     6     1     7    1
     7     4     3    1
     8     3     5    2
     9     7     8    1
    10     7     6    2
    11     8     9    3
    12     5     6    1
    13     6    10    1
    14    15    16    1
    15    15    14    2
    16    16    17    2
    17    10    12    1
    18    10    11    1
    19    12    13    2
    20    13    14    1
    21    14    20    1
    22    17    21    1
    23    17    18    1
    24    21    22    1
    25    22    23    1
    26    20    18    2
    27    18    19    1
    28    23    24    2
    29    23    28    1
    30    29    28    1
    31    24    25    1
    32    28    27    2
    33    25    26    2
    34    27    26    1
