@<TRIPOS>MOLECULE
80316_out_ligand_01.pdbqt
 29 32 0 0 0
SMALL
GASTEIGER

@<TRIPOS>ATOM
      1  N         18.3310  -22.6660   -8.7820 N.am    1  UNL1       -0.2440
      2  C         17.9580  -21.9740   -9.9180 C.2     1  UNL1        0.2660
      3  O         16.8930  -21.5200  -10.2960 O.2     1  UNL1       -0.2670
      4  C         19.1500  -21.8250  -10.7460 C.2     1  UNL1        0.0480
      5  C         19.3140  -21.2040  -11.9720 C.2     1  UNL1        0.0190
      6  C         20.5960  -21.2150  -12.5350 C.2     1  UNL1        0.0180
      7  C         21.6710  -21.8490  -11.8670 C.2     1  UNL1        0.0330
      8  C         21.4740  -22.4570  -10.6170 C.2     1  UNL1        0.0350
      9  C         20.1960  -22.4290  -10.0900 C.2     1  UNL1        0.0490
     10  C         19.6790  -22.9720   -8.8380 C.2     1  UNL1        0.2660
     11  O         20.4160  -23.5740   -8.0790 O.2     1  UNL1       -0.2670
     12  C         23.0440  -21.8560  -12.4450 C.2     1  UNL1        0.2560
     13  O         23.9440  -22.3310  -11.7640 O.2     1  UNL1       -0.2670
     14  N         23.1390  -21.3450  -13.7250 N.am    1  UNL1       -0.3230
     15  H         22.2770  -21.1120  -14.1990 H       1  UNL1        0.1690
     16  C         24.3100  -21.1910  -14.4980 C.2     1  UNL1        0.0350
     17  C         24.7640  -22.1310  -15.4210 C.2     1  UNL1        0.0290
     18  C         25.9360  -21.9000  -16.1470 C.2     1  UNL1        0.0030
     19  C         26.6680  -20.7300  -15.9510 C.2     1  UNL1        0.0070
     20  C         26.2410  -19.7840  -15.0160 C.2     1  UNL1       -0.0600
     21  C         27.0060  -18.5080  -14.8240 C.3     1  UNL1        0.0480
     22  C         25.0550  -20.0180  -14.3030 C.2     1  UNL1        0.0360
     23  C         17.4510  -23.0210   -7.7100 C.2     1  UNL1        0.0460
     24  C         16.5300  -24.0740   -7.8280 C.2     1  UNL1        0.0310
     25  C         15.6670  -24.4220   -6.7790 C.2     1  UNL1        0.0090
     26  C         15.6890  -23.7190   -5.5750 C.2     1  UNL1       -0.0620
     27  C         14.7910  -24.1120   -4.4410 C.3     1  UNL1        0.0480
     28  C         16.6070  -22.6810   -5.4310 C.2     1  UNL1        0.0090
     29  C         17.4690  -22.3360   -6.4830 C.2     1  UNL1        0.0310
@<TRIPOS>BOND
     1    18    19    2
     2    18    17    1
     3    19    20    1
     4    17    16    2
     5    20    21    1
     6    20    22    2
     7    16    22    1
     8    16    14    1
     9    15    14    1
    10    14    12   am
    11     6     5    1
    12     6     7    2
    13    12     7    1
    14    12    13    2
    15     5     4    2
    16     7     8    1
    17     4     9    1
    18     4     2    1
    19     8     9    2
    20     3     2    2
    21     9    10    1
    22     2     1   am
    23    10     1   am
    24    10    11    2
    25     1    23    1
    26    24    23    2
    27    24    25    1
    28    23    29    1
    29    25    26    2
    30    29    28    2
    31    26    28    1
    32    26    27    1
