@<TRIPOS>MOLECULE
80310_out_ligand_01.pdbqt
 29 32 0 0 0
SMALL
GASTEIGER

@<TRIPOS>ATOM
      1  C         18.6440  -22.5090   -9.9080 C.2     1  UNL1        0.0330
      2  C         18.4600  -21.6980  -11.0560 C.2     1  UNL1        0.0180
      3  C         19.5310  -21.3880  -11.9020 C.2     1  UNL1        0.0190
      4  C         20.7680  -21.9120  -11.5760 C.2     1  UNL1        0.0480
      5  C         20.9480  -22.7090  -10.4700 C.2     1  UNL1        0.0490
      6  C         19.9100  -23.0360   -9.6140 C.2     1  UNL1        0.0350
      7  C         22.3540  -23.0930  -10.4250 C.2     1  UNL1        0.2660
      8  O         22.7610  -23.7920   -9.5160 O.2     1  UNL1       -0.2670
      9  N         22.9750  -22.5150  -11.5170 N.am    1  UNL1       -0.2440
     10  C         22.0570  -21.7810  -12.2460 C.2     1  UNL1        0.2660
     11  O         22.1570  -21.1110  -13.2580 O.2     1  UNL1       -0.2670
     12  C         17.4540  -22.8090   -9.0610 C.2     1  UNL1        0.2560
     13  N         17.6290  -22.5990   -7.7050 N.am    1  UNL1       -0.3230
     14  H         18.4940  -22.1720   -7.4040 H       1  UNL1        0.1690
     15  O         16.4330  -23.1800   -9.6260 O.2     1  UNL1       -0.2670
     16  C         16.6920  -22.8370   -6.6760 C.2     1  UNL1        0.0350
     17  C         16.8550  -23.7980   -5.6780 C.2     1  UNL1        0.0290
     18  C         15.8830  -23.9610   -4.6870 C.2     1  UNL1        0.0030
     19  C         14.7380  -23.1660   -4.6860 C.2     1  UNL1        0.0070
     20  C         14.5500  -22.2060   -5.6830 C.2     1  UNL1       -0.0600
     21  C         13.3370  -21.3230   -5.6680 C.3     1  UNL1        0.0480
     22  C         15.5380  -22.0400   -6.6650 C.2     1  UNL1        0.0360
     23  C         24.3650  -22.6500  -11.8370 C.2     1  UNL1        0.0460
     24  C         25.3530  -21.9360  -11.1400 C.2     1  UNL1        0.0300
     25  C         26.7120  -22.0710  -11.4470 C.2     1  UNL1        0.0030
     26  C         27.1200  -22.9250  -12.4650 C.2     1  UNL1        0.0070
     27  C         26.1690  -23.6410  -13.1900 C.2     1  UNL1       -0.0600
     28  C         26.5940  -24.5940  -14.2690 C.3     1  UNL1        0.0480
     29  C         24.8070  -23.5070  -12.8610 C.2     1  UNL1        0.0370
@<TRIPOS>BOND
     1    28    27    1
     2    11    10    2
     3    27    29    1
     4    27    26    2
     5    29    23    2
     6    26    25    1
     7    10     4    1
     8    10     9   am
     9     3     4    2
    10     3     2    1
    11    23     9    1
    12    23    24    1
    13     4     5    1
    14     9     7   am
    15    25    24    2
    16     2     1    2
    17     5     7    1
    18     5     6    2
    19     7     8    2
    20     1     6    1
    21     1    12    1
    22    15    12    2
    23    12    13   am
    24    13    14    1
    25    13    16    1
    26    16    22    2
    27    16    17    1
    28    22    20    1
    29    20    21    1
    30    20    19    2
    31    17    18    2
    32    18    19    1
