@<TRIPOS>MOLECULE
80325_out_ligand_01.pdbqt
 31 34 0 0 0
SMALL
GASTEIGER

@<TRIPOS>ATOM
      1  C         21.5890  -22.0880  -11.7390 C.2     1  UNL1        0.0330
      2  C         20.5620  -21.3390  -12.3670 C.2     1  UNL1        0.0180
      3  C         19.2850  -21.2450  -11.8010 C.2     1  UNL1        0.0190
      4  C         19.0750  -21.8990  -10.6020 C.2     1  UNL1        0.0480
      5  C         20.0730  -22.6220   -9.9860 C.2     1  UNL1        0.0490
      6  C         21.3460  -22.7370  -10.5190 C.2     1  UNL1        0.0350
      7  C         19.5200  -23.1820   -8.7570 C.2     1  UNL1        0.2660
      8  O         20.1880  -23.9030   -8.0370 O.2     1  UNL1       -0.2670
      9  N         18.2260  -22.7230   -8.6540 N.am    1  UNL1       -0.2410
     10  C         17.8710  -22.0100   -9.7820 C.2     1  UNL1        0.2660
     11  O         16.7970  -21.6140  -10.1970 O.2     1  UNL1       -0.2670
     12  C         22.9280  -22.1310  -12.3970 C.2     1  UNL1        0.2560
     13  N         23.0270  -21.4170  -13.5770 N.am    1  UNL1       -0.3230
     14  H         22.2360  -20.8500  -13.8520 H       1  UNL1        0.1690
     15  O         23.8180  -22.7550  -11.8360 O.2     1  UNL1       -0.2670
     16  C         24.1550  -21.3160  -14.4220 C.2     1  UNL1        0.0370
     17  C         25.1500  -20.3510  -14.2850 C.2     1  UNL1        0.0290
     18  C         26.2360  -20.3270  -15.1640 C.2     1  UNL1        0.0050
     19  C         26.3390  -21.2700  -16.1890 C.2     1  UNL1        0.0370
     20  C         25.3540  -22.2430  -16.3360 C.2     1  UNL1        0.0700
     21  C         24.2690  -22.2600  -15.4520 C.2     1  UNL1        0.0660
     22  O         25.3270  -23.2240  -17.2890 O.2     1  UNL1       -0.3560
     23  C         24.1970  -23.2490  -18.1530 C.3     1  UNL1        0.2100
     24  C         17.3410  -23.0450   -7.5870 C.2     1  UNL1        0.0790
     25  C         16.4220  -24.0990   -7.7350 C.2     1  UNL1        0.0330
     26  C         15.5180  -24.4200   -6.7180 C.2     1  UNL1        0.0020
     27  C         15.5300  -23.7070   -5.5250 C.2     1  UNL1        0.0030
     28  C         16.4530  -22.6810   -5.3430 C.2     1  UNL1        0.0390
     29  C         17.3530  -22.3430   -6.3660 C.2     1  UNL1        0.0950
     30  O         18.3680  -21.4500   -6.1220 O.2     1  UNL1       -0.3540
     31  C         18.6030  -21.2210   -4.7330 C.3     1  UNL1        0.2100
@<TRIPOS>BOND
     1    23    22    1
     2    22    20    1
     3    20    19    2
     4    20    21    1
     5    19    18    1
     6    21    16    2
     7    18    17    2
     8    16    17    1
     9    16    13    1
    10    14    13    1
    11    13    12   am
    12    12    15    2
    13    12     1    1
    14     2     3    1
    15     2     1    2
    16     3     4    2
    17     1     6    1
    18     4     5    1
    19     4    10    1
    20     6     5    2
    21    11    10    2
    22     5     7    1
    23    10     9   am
    24     7     9   am
    25     7     8    2
    26     9    24    1
    27    25    24    2
    28    25    26    1
    29    24    29    1
    30    26    27    2
    31    29    30    1
    32    29    28    2
    33    30    31    1
    34    27    28    1
