@<TRIPOS>MOLECULE
80331_out_ligand_01.pdbqt
 27 30 0 0 0
SMALL
GASTEIGER

@<TRIPOS>ATOM
      1  C         20.1980  -21.8800  -11.1460 C.2     1  UNL1        0.0330
      2  C         19.0580  -21.2510  -11.7080 C.2     1  UNL1        0.0180
      3  C         17.7740  -21.5210  -11.2140 C.2     1  UNL1        0.0190
      4  C         17.6740  -22.4090  -10.1600 C.2     1  UNL1        0.0480
      5  C         18.7860  -23.0110   -9.5990 C.2     1  UNL1        0.0490
      6  C         20.0640  -22.7660  -10.0640 C.2     1  UNL1        0.0350
      7  C         18.3190  -23.8710   -8.5130 C.2     1  UNL1        0.2620
      8  O         19.0470  -24.5560   -7.8190 O.2     1  UNL1       -0.2670
      9  N         16.9600  -23.7400   -8.4740 N.am    1  UNL1       -0.2760
     10  C         16.4990  -22.8820   -9.4310 C.2     1  UNL1        0.2620
     11  O         15.3580  -22.5480   -9.6810 O.2     1  UNL1       -0.2670
     12  C         21.5710  -21.5940  -11.6500 C.2     1  UNL1        0.2570
     13  O         21.6880  -21.1090  -12.7670 O.2     1  UNL1       -0.2670
     14  N         22.5890  -21.8460  -10.7500 N.am    1  UNL1       -0.3020
     15  H         22.3600  -22.0810   -9.7970 H       1  UNL1        0.1710
     16  C         23.9250  -21.8160  -11.0070 C.3     1  UNL1        0.1640
     17  N         24.8010  -21.0010  -10.5420 N.3     1  UNL1       -0.2660
     18  C         26.1130  -21.3050  -11.1480 C.3     1  UNL1        0.1620
     19  C         26.1490  -22.7550  -11.6100 C.3     1  UNL1        0.1040
     20  S         24.4390  -23.0640  -12.1000 S.3     1  UNL1       -0.0910
     21  C         16.1110  -24.3980   -7.5050 C.3     1  UNL1        0.1750
     22  C         16.0380  -23.6240   -6.2190 C.2     1  UNL1       -0.0220
     23  C         14.9250  -22.8380   -5.9020 C.2     1  UNL1        0.0120
     24  C         14.8860  -22.1550   -4.6910 C.2     1  UNL1        0.0200
     25  C         15.9610  -22.2870   -3.8270 C.2     1  UNL1        0.1160
     26  N         17.0470  -23.0470   -4.0920 N.2     1  UNL1       -0.2730
     27  C         17.0590  -23.7010   -5.2750 C.2     1  UNL1        0.1240
@<TRIPOS>BOND
     1    13    12    2
     2    20    19    1
     3    20    16    1
     4     2     3    1
     5     2     1    2
     6    12     1    1
     7    12    14   am
     8    19    18    1
     9     3     4    2
    10    18    17    1
    11     1     6    1
    12    16    14    1
    13    16    17    1
    14    14    15    1
    15     4     5    1
    16     4    10    1
    17     6     5    2
    18    11    10    2
    19     5     7    1
    20    10     9   am
    21     7     9   am
    22     7     8    2
    23     9    21    1
    24    21    22    1
    25    22    23    2
    26    22    27    1
    27    23    24    1
    28    27    26    2
    29    24    25    2
    30    26    25    1
