@<TRIPOS>MOLECULE
80335_out_ligand_01.pdbqt
 28 31 0 0 0
SMALL
GASTEIGER

@<TRIPOS>ATOM
      1  C         20.1890  -21.9740  -11.2150 C.2     1  UNL1        0.0330
      2  C         19.0500  -21.3360  -11.7670 C.2     1  UNL1        0.0180
      3  C         17.7740  -21.5660  -11.2390 C.2     1  UNL1        0.0190
      4  C         17.6810  -22.4280  -10.1620 C.2     1  UNL1        0.0480
      5  C         18.7930  -23.0410   -9.6140 C.2     1  UNL1        0.0490
      6  C         20.0640  -22.8320  -10.1110 C.2     1  UNL1        0.0350
      7  C         18.3340  -23.8710   -8.5020 C.2     1  UNL1        0.2620
      8  O         19.0630  -24.5560   -7.8110 O.2     1  UNL1       -0.2670
      9  N         16.9770  -23.7110   -8.4330 N.am    1  UNL1       -0.2760
     10  C         16.5130  -22.8630   -9.3990 C.2     1  UNL1        0.2620
     11  O         15.3730  -22.5080   -9.6270 O.2     1  UNL1       -0.2670
     12  C         21.5540  -21.7260  -11.7590 C.2     1  UNL1        0.2560
     13  O         21.6470  -21.0500  -12.7760 O.2     1  UNL1       -0.2670
     14  N         22.5870  -22.2690  -11.0200 N.am    1  UNL1       -0.3220
     15  H         22.3520  -22.6940  -10.1320 H       1  UNL1        0.1690
     16  C         23.9650  -22.2150  -11.3260 C.2     1  UNL1        0.0520
     17  C         24.8730  -21.3420  -10.7350 C.2     1  UNL1        0.0320
     18  C         26.2150  -21.3700  -11.1190 C.2     1  UNL1        0.0210
     19  C         26.6090  -22.2730  -12.0910 C.2     1  UNL1        0.1160
     20  N         25.7630  -23.1350  -12.6940 N.2     1  UNL1       -0.2710
     21  C         24.4690  -23.0840  -12.2970 C.2     1  UNL1        0.1450
     22  C         16.1280  -24.4030   -7.4920 C.3     1  UNL1        0.1750
     23  C         16.0260  -23.6580   -6.1890 C.2     1  UNL1       -0.0220
     24  C         14.9190  -22.8570   -5.8910 C.2     1  UNL1        0.0120
     25  C         14.8740  -22.1650   -4.6850 C.2     1  UNL1        0.0200
     26  C         15.9440  -22.2910   -3.8150 C.2     1  UNL1        0.1160
     27  N         17.0350  -23.0440   -4.0730 N.2     1  UNL1       -0.2730
     28  C         17.0540  -23.7050   -5.2530 C.2     1  UNL1        0.1240
@<TRIPOS>BOND
     1    13    12    2
     2    20    21    1
     3    20    19    2
     4    21    16    2
     5    19    18    1
     6     2     3    1
     7     2     1    2
     8    12     1    1
     9    12    14   am
    10    16    14    1
    11    16    17    1
    12     3     4    2
    13     1     6    1
    14    18    17    2
    15    14    15    1
    16     4     5    1
    17     4    10    1
    18     6     5    2
    19    11    10    2
    20     5     7    1
    21    10     9   am
    22     7     9   am
    23     7     8    2
    24     9    22    1
    25    22    23    1
    26    23    24    2
    27    23    28    1
    28    24    25    1
    29    28    27    2
    30    25    26    2
    31    27    26    1
