@<TRIPOS>MOLECULE
80333_out_ligand_01.pdbqt
 31 34 0 0 0
SMALL
GASTEIGER

@<TRIPOS>ATOM
      1  C         21.8940  -21.8260  -11.9960 C.2     1  UNL1        0.0330
      2  C         20.7170  -21.4130  -12.6660 C.2     1  UNL1        0.0180
      3  C         19.4780  -21.4410  -12.0140 C.2     1  UNL1        0.0190
      4  C         19.4580  -21.8770  -10.7020 C.2     1  UNL1        0.0480
      5  C         20.6020  -22.2660  -10.0450 C.2     1  UNL1        0.0490
      6  C         21.8410  -22.2490  -10.6580 C.2     1  UNL1        0.0350
      7  C         20.2230  -22.6550   -8.6900 C.2     1  UNL1        0.2660
      8  O         21.0630  -23.0560   -7.9050 O.2     1  UNL1       -0.2670
      9  N         18.8560  -22.4780   -8.5750 N.am    1  UNL1       -0.2440
     10  C         18.3420  -22.0120   -9.7710 C.2     1  UNL1        0.2660
     11  O         17.2100  -21.7310  -10.1230 O.2     1  UNL1       -0.2670
     12  C         23.2220  -21.7850  -12.6670 C.2     1  UNL1        0.2560
     13  N         23.2570  -21.0680  -13.8480 N.am    1  UNL1       -0.3230
     14  H         22.3770  -20.7250  -14.2110 H       1  UNL1        0.1690
     15  O         24.1420  -22.4010  -12.1440 O.2     1  UNL1       -0.2670
     16  C         24.3800  -20.8270  -14.6690 C.2     1  UNL1        0.0350
     17  C         25.3490  -19.8600  -14.3980 C.2     1  UNL1        0.0290
     18  C         26.4330  -19.6850  -15.2630 C.2     1  UNL1        0.0030
     19  C         26.5550  -20.4700  -16.4080 C.2     1  UNL1        0.0070
     20  C         25.5860  -21.4310  -16.7070 C.2     1  UNL1       -0.0600
     21  C         25.7300  -22.3020  -17.9200 C.3     1  UNL1        0.0480
     22  C         24.5090  -21.6100  -15.8250 C.2     1  UNL1        0.0360
     23  C         18.0870  -22.7450   -7.3970 C.2     1  UNL1        0.0460
     24  C         18.2460  -21.9840   -6.2230 C.2     1  UNL1        0.0320
     25  C         17.4970  -22.2370   -5.0640 C.2     1  UNL1        0.0380
     26  C         16.5600  -23.2720   -5.0600 C.2     1  UNL1        0.1030
     27  C         16.3750  -24.0450   -6.2050 C.2     1  UNL1        0.0380
     28  C         17.1340  -23.7780   -7.3570 C.2     1  UNL1        0.0320
     29  N         15.7720  -23.5450   -3.8530 N.pl3   1  UNL1       -0.1160
     30  O         15.4360  -22.5780   -3.1550 O.2     1  UNL1       -0.5320
     31  O         15.4890  -24.7250   -3.6040 O.2     1  UNL1       -0.5320
@<TRIPOS>BOND
     1    21    20    1
     2    20    19    2
     3    20    22    1
     4    19    18    1
     5    22    16    2
     6    18    17    2
     7    16    17    1
     8    16    13    1
     9    14    13    1
    10    13    12   am
    11    12    15    2
    12    12     1    1
    13     2     3    1
    14     2     1    2
    15     3     4    2
    16     1     6    1
    17     4     5    1
    18     4    10    1
    19     6     5    2
    20    11    10    2
    21     5     7    1
    22    10     9   am
    23     7     9   am
    24     7     8    2
    25     9    23    1
    26    23    28    2
    27    23    24    1
    28    28    27    1
    29    24    25    2
    30    27    26    2
    31    25    26    1
    32    26    29    1
    33    29    31    2
    34    29    30    2
