@<TRIPOS>MOLECULE
8037_out_ligand_01.pdbqt
 40 44 0 0 0
SMALL
GASTEIGER

@<TRIPOS>ATOM
      1  C         16.6620  -21.6340  -10.4210 C.3     1  UNL1        0.2780
      2  C         17.9720  -22.2590  -10.9220 C.2     1  UNL1        0.2460
      3  N         19.0300  -21.3670  -10.9060 N.am    1  UNL1       -0.3250
      4  H         18.8140  -20.4500  -10.5280 H       1  UNL1        0.1690
      5  O         18.0010  -23.4300  -11.2910 O.2     1  UNL1       -0.2710
      6  C         20.3680  -21.5970  -11.2780 C.2     1  UNL1        0.0350
      7  C         21.2950  -22.2620  -10.4690 C.2     1  UNL1        0.0440
      8  C         22.6250  -22.4460  -10.9160 C.ar    1  UNL1        0.0050
      9  C         23.7810  -23.0540  -10.3340 C.ar    1  UNL1        0.0030
     10  C         22.9900  -21.9600  -12.1710 C.ar    1  UNL1        0.0460
     11  C         24.0240  -23.6950   -9.1010 C.2     1  UNL1        0.0140
     12  C         24.8300  -22.9290  -11.2470 C.ar    1  UNL1        0.0460
     13  C         25.3000  -24.1870   -8.8130 C.2     1  UNL1        0.0010
     14  C         26.3320  -24.0470   -9.7350 C.2     1  UNL1        0.0020
     15  C         26.1190  -23.4180  -10.9650 C.2     1  UNL1        0.0300
     16  N         24.3240  -22.2760  -12.3540 N.ar    1  UNL1       -0.3460
     17  C         22.0760  -21.2870  -12.9970 C.2     1  UNL1        0.0330
     18  C         20.7680  -21.1190  -12.5290 C.2     1  UNL1        0.0320
     19  C         25.0880  -21.9690  -13.5540 C.3     1  UNL1        0.1250
     20  C         25.0530  -23.1020  -14.5650 C.3     1  UNL1        0.0270
     21  O         15.6580  -22.5580  -10.0190 O.2     1  UNL1       -0.3420
     22  C         15.6030  -22.9090   -8.6960 C.2     1  UNL1        0.0690
     23  C         15.6220  -21.8270   -7.8100 C.2     1  UNL1        0.0380
     24  C         15.5990  -22.0370   -6.4300 C.2     1  UNL1        0.0270
     25  C         15.5590  -23.3430   -5.9370 C.2     1  UNL1        0.0750
     26  C         15.5620  -24.4320   -6.8120 C.2     1  UNL1        0.0270
     27  C         15.5800  -24.2130   -8.1940 C.2     1  UNL1        0.0380
     28  S         15.5640  -23.6100   -4.1790 S.O2    1  UNL1        0.2450
     29  O         15.1930  -22.3640   -3.5400 O.2     1  UNL1       -0.2060
     30  O         14.8540  -24.8450   -3.9280 O.2     1  UNL1       -0.2060
     31  N         17.2370  -23.8120   -3.9080 N.pl3   1  UNL1       -0.1810
     32  H         17.3970  -24.8220   -3.8690 H       1  UNL1        0.1460
     33  C         18.0650  -23.2310   -4.9300 C.2     1  UNL1        0.0290
     34  C         18.3710  -23.9840   -6.0720 C.2     1  UNL1        0.0310
     35  C         19.1310  -23.4260   -7.1070 C.2     1  UNL1       -0.0600
     36  C         19.4800  -24.2380   -8.3190 C.3     1  UNL1        0.0480
     37  C         19.5930  -22.1120   -6.9740 C.2     1  UNL1        0.0070
     38  C         19.2780  -21.3580   -5.8400 C.2     1  UNL1        0.0090
     39  C         18.5120  -21.9090   -4.8030 C.2     1  UNL1       -0.0400
     40  C         18.1600  -21.0640   -3.6130 C.3     1  UNL1        0.0500
@<TRIPOS>BOND
     1    20    19    1
     2    19    16    1
     3    17    18    1
     4    17    10    2
     5    18     6    2
     6    16    10   ar
     7    16    12   ar
     8    10     8   ar
     9     5     2    2
    10     6     3    1
    11     6     7    1
    12    12    15    1
    13    12     9   ar
    14    15    14    2
    15     2     3   am
    16     2     1    1
    17     8     7    2
    18     8     9   ar
    19     3     4    1
    20     1    21    1
    21     9    11    1
    22    21    22    1
    23    14    13    1
    24    11    13    2
    25    22    27    2
    26    22    23    1
    27    36    35    1
    28    27    26    1
    29    23    24    2
    30    35    37    2
    31    35    34    1
    32    37    38    1
    33    26    25    2
    34    24    25    1
    35    34    33    2
    36    25    28    1
    37    38    39    2
    38    33    39    1
    39    33    31    1
    40    39    40    1
    41    28    30    2
    42    28    31    1
    43    28    29    2
    44    31    32    1
