@<TRIPOS>MOLECULE
80384_out_ligand_01.pdbqt
 31 35 0 0 0
SMALL
GASTEIGER

@<TRIPOS>ATOM
      1  O         18.1670  -20.9080  -11.9340 O.2     1  UNL1       -0.2670
      2  C         18.2210  -21.6870  -10.9880 C.2     1  UNL1        0.2560
      3  N         17.0970  -22.0230  -10.2760 N.am    1  UNL1       -0.3320
      4  C         17.1740  -22.5480   -8.9480 C.3     1  UNL1        0.2080
      5  N         18.2180  -23.5400   -8.8640 N.pl3   1  UNL1       -0.3590
      6  C         19.3740  -23.2400   -9.5030 C.ar    1  UNL1        0.0880
      7  S         20.8820  -23.9230   -9.1180 S.2     1  UNL1       -0.0740
      8  C         21.6590  -23.0040  -10.3250 C.ar    1  UNL1        0.0200
      9  C         20.7790  -22.2020  -11.0280 C.ar    1  UNL1       -0.0230
     10  C         19.4430  -22.3370  -10.5420 C.ar    1  UNL1        0.0730
     11  C         21.2780  -21.3210  -12.1300 C.3     1  UNL1        0.0710
     12  C         22.7010  -21.7370  -12.5720 C.3     1  UNL1        0.2780
     13  N         23.6050  -21.9670  -11.4220 N.3     1  UNL1        0.0970
     14  C         23.1320  -23.1100  -10.5990 C.3     1  UNL1        0.3190
     15  H         16.2620  -21.5330  -10.5570 H       1  UNL1        0.1650
     16  H         18.2870  -24.0210   -7.9730 H       1  UNL1        0.1620
     17  C         15.8830  -23.1750   -8.5150 C.2     1  UNL1        0.0200
     18  C         15.4260  -23.5390   -7.3020 C.2     1  UNL1        0.0110
     19  C         16.0920  -23.3550   -6.0090 C.2     1  UNL1       -0.0360
     20  C         15.5570  -22.4470   -5.0880 C.2     1  UNL1        0.0110
     21  C         16.1810  -22.2400   -3.8560 C.2     1  UNL1        0.0010
     22  C         17.3490  -22.9310   -3.5400 C.2     1  UNL1        0.0000
     23  C         17.8980  -23.8250   -4.4580 C.2     1  UNL1        0.0010
     24  C         17.2760  -24.0310   -5.6920 C.2     1  UNL1        0.0110
     25  C         24.9810  -22.1950  -11.8950 C.3     1  UNL1        0.3110
     26  C         25.7370  -20.9170  -12.1940 C.2     1  UNL1       -0.0300
     27  C         25.8760  -20.4600  -13.5120 C.2     1  UNL1        0.0090
     28  C         26.5650  -19.2750  -13.7820 C.2     1  UNL1        0.0010
     29  C         27.1200  -18.5360  -12.7380 C.2     1  UNL1        0.0000
     30  C         26.9850  -18.9790  -11.4230 C.2     1  UNL1        0.0010
     31  C         26.2970  -20.1620  -11.1530 C.2     1  UNL1        0.0090
@<TRIPOS>BOND
     1    28    27    1
     2    28    29    2
     3    27    26    2
     4    29    30    1
     5    12    11    1
     6    12    13    1
     7    26    25    1
     8    26    31    1
     9    11     9    1
    10     1     2    2
    11    25    13    1
    12    30    31    2
    13    13    14    1
    14     9    10   ar
    15     9     8   ar
    16     2    10    1
    17     2     3   am
    18    14     8    1
    19    15     3    1
    20    10     6   ar
    21     8     7   ar
    22     3     4    1
    23     6     7   ar
    24     6     5    1
    25     4     5    1
    26     4    17    1
    27     5    16    1
    28    17    18    2
    29    18    19    1
    30    19    24    2
    31    19    20    1
    32    24    23    1
    33    20    21    2
    34    23    22    2
    35    21    22    1
