@<TRIPOS>MOLECULE
80388_out_ligand_01.pdbqt
 32 36 0 0 0
SMALL
GASTEIGER

@<TRIPOS>ATOM
      1  O         19.3300  -20.6520  -12.3660 O.2     1  UNL1       -0.2670
      2  C         20.3320  -21.2720  -12.0220 C.2     1  UNL1        0.2560
      3  N         21.5310  -21.0950  -12.6700 N.am    1  UNL1       -0.3310
      4  C         22.7830  -21.4040  -12.0340 C.3     1  UNL1        0.2210
      5  N         22.6760  -22.6840  -11.3520 N.pl3   1  UNL1       -0.3580
      6  C         21.5270  -22.9060  -10.6700 C.ar    1  UNL1        0.0880
      7  S         21.3800  -24.0140   -9.3890 S.2     1  UNL1       -0.0740
      8  C         19.7420  -23.6110   -9.1660 C.ar    1  UNL1        0.0200
      9  C         19.3020  -22.6600  -10.0690 C.ar    1  UNL1       -0.0230
     10  C         20.3510  -22.2450  -10.9440 C.ar    1  UNL1        0.0730
     11  C         17.8870  -22.1750  -10.0260 C.3     1  UNL1        0.0710
     12  C         17.0010  -23.1200   -9.1790 C.3     1  UNL1        0.2780
     13  N         17.6370  -23.4850   -7.8920 N.3     1  UNL1        0.0970
     14  C         18.8820  -24.2630   -8.1200 C.3     1  UNL1        0.3190
     15  H         21.5100  -20.2900  -13.2810 H       1  UNL1        0.1650
     16  H         23.5350  -23.0060  -10.9170 H       1  UNL1        0.1620
     17  C         23.9000  -21.4470  -13.0600 C.2     1  UNL1        0.0170
     18  C         23.6020  -21.4440  -14.4380 C.2     1  UNL1        0.0130
     19  C         24.6130  -21.5000  -15.4030 C.2     1  UNL1        0.0010
     20  C         25.9520  -21.5500  -15.0190 C.2     1  UNL1        0.0020
     21  C         26.2850  -21.5230  -13.6680 C.2     1  UNL1        0.0370
     22  C         25.2630  -21.4590  -12.7070 C.2     1  UNL1        0.1130
     23  N         25.6710  -21.3590  -11.3140 N.pl3   1  UNL1       -0.1150
     24  O         25.6950  -22.4110  -10.6610 O.2     1  UNL1       -0.5320
     25  O         25.9660  -20.2360  -10.8890 O.2     1  UNL1       -0.5320
     26  C         16.6910  -24.2420   -7.0540 C.3     1  UNL1        0.3110
     27  C         16.4750  -23.6340   -5.6840 C.2     1  UNL1       -0.0300
     28  C         17.4980  -23.6630   -4.7240 C.2     1  UNL1        0.0090
     29  C         17.3060  -23.0940   -3.4640 C.2     1  UNL1        0.0010
     30  C         16.0910  -22.4870   -3.1530 C.2     1  UNL1        0.0000
     31  C         15.0690  -22.4470   -4.1000 C.2     1  UNL1        0.0010
     32  C         15.2590  -23.0160   -5.3600 C.2     1  UNL1        0.0090
@<TRIPOS>BOND
     1    19    20    2
     2    19    18    1
     3    20    21    1
     4    18    17    2
     5    21    22    2
     6    15     3    1
     7    17    22    1
     8    17     4    1
     9    22    23    1
    10     3     4    1
    11     3     2   am
    12     1     2    2
    13     4     5    1
    14     2    10    1
    15     5    16    1
    16     5     6    1
    17    23    25    2
    18    23    24    2
    19    10     6   ar
    20    10     9   ar
    21     6     7   ar
    22     9    11    1
    23     9     8   ar
    24    11    12    1
    25     7     8   ar
    26    12    13    1
    27     8    14    1
    28    14    13    1
    29    13    26    1
    30    26    27    1
    31    27    32    2
    32    27    28    1
    33    32    31    1
    34    28    29    2
    35    31    30    2
    36    29    30    1
