@<TRIPOS>MOLECULE
80385_out_ligand_01.pdbqt
 35 40 0 0 0
SMALL
GASTEIGER

@<TRIPOS>ATOM
      1  O         22.3090  -24.5570   -8.8490 O.2     1  UNL1       -0.2670
      2  C         21.2610  -23.9490   -9.0510 C.2     1  UNL1        0.2560
      3  N         20.1610  -24.1660   -8.2610 N.am    1  UNL1       -0.3310
      4  C         19.0460  -23.2550   -8.1760 C.3     1  UNL1        0.2230
      5  N         18.7870  -22.6680   -9.4790 N.pl3   1  UNL1       -0.3580
      6  C         19.8430  -22.4020  -10.2800 C.ar    1  UNL1        0.0880
      7  S         19.7940  -21.3060  -11.5790 S.2     1  UNL1       -0.0740
      8  C         21.4260  -21.6120  -11.9600 C.ar    1  UNL1        0.0200
      9  C         22.0080  -22.5240  -11.1010 C.ar    1  UNL1       -0.0230
     10  C         21.0780  -22.9880  -10.1210 C.ar    1  UNL1        0.0730
     11  C         23.4360  -22.9320  -11.2870 C.3     1  UNL1        0.0710
     12  C         24.1770  -21.9480  -12.2230 C.3     1  UNL1        0.2780
     13  N         23.3960  -21.6290  -13.4400 N.3     1  UNL1        0.0970
     14  C         22.1360  -20.9240  -13.0940 C.3     1  UNL1        0.3190
     15  H         20.3450  -24.7660   -7.4740 H       1  UNL1        0.1650
     16  H         18.0060  -22.0210   -9.4930 H       1  UNL1        0.1620
     17  C         19.2960  -22.2980   -7.0500 C.2     1  UNL1        0.0320
     18  C         20.3980  -21.4880   -6.8430 C.2     1  UNL1        0.1220
     19  N         20.1460  -20.7700   -5.7160 N.pl3   1  UNL1       -0.2880
     20  N         18.9520  -21.0340   -5.1730 N.2     1  UNL1       -0.1740
     21  H         20.7350  -20.0760   -5.2670 H       1  UNL1        0.1880
     22  C         18.4250  -21.9860   -5.9580 C.2     1  UNL1        0.0980
     23  C         17.1110  -22.5440   -5.6590 C.2     1  UNL1       -0.0050
     24  C         16.0030  -22.2330   -6.4570 C.2     1  UNL1        0.0140
     25  C         14.7450  -22.7600   -6.1520 C.2     1  UNL1        0.0010
     26  C         14.5910  -23.6040   -5.0520 C.2     1  UNL1        0.0000
     27  C         15.6920  -23.9320   -4.2630 C.2     1  UNL1        0.0010
     28  C         16.9500  -23.4060   -4.5680 C.2     1  UNL1        0.0140
     29  C         24.2090  -20.8290  -14.3710 C.3     1  UNL1        0.3110
     30  C         24.4740  -21.5180  -15.6930 C.2     1  UNL1       -0.0300
     31  C         24.2750  -22.8990  -15.8330 C.2     1  UNL1        0.0090
     32  C         24.5090  -23.5280  -17.0570 C.2     1  UNL1        0.0010
     33  C         24.9420  -22.7840  -18.1530 C.2     1  UNL1        0.0000
     34  C         25.1400  -21.4110  -18.0290 C.2     1  UNL1        0.0010
     35  C         24.9050  -20.7800  -16.8060 C.2     1  UNL1        0.0090
@<TRIPOS>BOND
     1    33    34    2
     2    33    32    1
     3    34    35    1
     4    32    31    2
     5    35    30    2
     6    31    30    1
     7    30    29    1
     8    29    13    1
     9    13    14    1
    10    13    12    1
    11    14     8    1
    12    12    11    1
    13     8     7   ar
    14     8     9   ar
    15     7     6   ar
    16    11     9    1
    17     9    10   ar
    18     6    10   ar
    19     6     5    1
    20    10     2    1
    21    16     5    1
    22     5     4    1
    23     2     1    2
    24     2     3   am
    25     3     4    1
    26     3    15    1
    27     4    17    1
    28    17    18    2
    29    17    22    1
    30    18    19    1
    31    24    25    1
    32    24    23    2
    33    25    26    2
    34    22    23    1
    35    22    20    2
    36    19    21    1
    37    19    20    1
    38    23    28    1
    39    26    27    1
    40    28    27    2
