@<TRIPOS>MOLECULE
80387_out_ligand_01.pdbqt
 30 34 0 0 0
SMALL
GASTEIGER

@<TRIPOS>ATOM
      1  C         19.0460  -23.2890   -8.4480 C.3     1  UNL1        0.2190
      2  N         18.6540  -22.2550   -9.3680 N.am    1  UNL1       -0.3320
      3  C         19.4020  -21.9760  -10.4860 C.2     1  UNL1        0.2560
      4  O         18.9000  -21.4260  -11.4610 O.2     1  UNL1       -0.2670
      5  C         20.8020  -22.3590  -10.3980 C.ar    1  UNL1        0.0730
      6  C         21.2620  -22.9280   -9.2310 C.ar    1  UNL1        0.0880
      7  S         22.9190  -23.3010   -9.2840 S.2     1  UNL1       -0.0740
      8  C         23.0450  -22.7250  -10.8810 C.ar    1  UNL1        0.0200
      9  C         21.8450  -22.2340  -11.3660 C.ar    1  UNL1       -0.0230
     10  C         21.7570  -21.6850  -12.7580 C.3     1  UNL1        0.0710
     11  C         23.1640  -21.4330  -13.3540 C.3     1  UNL1        0.2780
     12  N         24.0840  -22.5560  -13.0880 N.3     1  UNL1        0.0970
     13  C         24.3400  -22.7160  -11.6420 C.3     1  UNL1        0.3190
     14  N         20.4620  -23.1610   -8.1640 N.pl3   1  UNL1       -0.3580
     15  H         17.6680  -22.0790   -9.4830 H       1  UNL1        0.1650
     16  H         20.8030  -23.7820   -7.4370 H       1  UNL1        0.1620
     17  C         18.2450  -23.2100   -7.1670 C.2     1  UNL1       -0.0160
     18  C         18.5370  -22.2450   -6.1910 C.2     1  UNL1        0.0110
     19  C         17.7900  -22.1690   -5.0130 C.2     1  UNL1        0.0070
     20  C         16.7400  -23.0640   -4.7830 C.2     1  UNL1       -0.0620
     21  C         15.9160  -22.9620   -3.5320 C.3     1  UNL1        0.0480
     22  C         16.4330  -24.0180   -5.7580 C.2     1  UNL1        0.0070
     23  C         17.1800  -24.0950   -6.9370 C.2     1  UNL1        0.0110
     24  C         25.3100  -22.5270  -13.8920 C.3     1  UNL1        0.3110
     25  C         25.1540  -22.3250  -15.3840 C.2     1  UNL1       -0.0300
     26  C         25.5010  -21.1060  -15.9830 C.2     1  UNL1        0.0090
     27  C         25.3580  -20.9230  -17.3600 C.2     1  UNL1        0.0010
     28  C         24.8600  -21.9540  -18.1530 C.2     1  UNL1        0.0000
     29  C         24.5040  -23.1690  -17.5710 C.2     1  UNL1        0.0010
     30  C         24.6480  -23.3530  -16.1940 C.2     1  UNL1        0.0090
@<TRIPOS>BOND
     1    28    29    2
     2    28    27    1
     3    29    30    1
     4    27    26    2
     5    30    25    2
     6    26    25    1
     7    25    24    1
     8    24    12    1
     9    11    12    1
    10    11    10    1
    11    12    13    1
    12    10     9    1
    13    13     8    1
    14     4     3    2
    15     9     8   ar
    16     9     5   ar
    17     8     7   ar
    18     3     5    1
    19     3     2   am
    20     5     6   ar
    21    15     2    1
    22     2     1    1
    23     7     6   ar
    24     6    14    1
    25     1    14    1
    26     1    17    1
    27    14    16    1
    28    17    23    2
    29    17    18    1
    30    23    22    1
    31    18    19    2
    32    22    20    2
    33    19    20    1
    34    20    21    1
