@<TRIPOS>MOLECULE
80386_out_ligand_01.pdbqt
 30 34 0 0 0
SMALL
GASTEIGER

@<TRIPOS>ATOM
      1  O         17.9750  -21.7700  -10.7480 O.2     1  UNL1       -0.2670
      2  C         18.4830  -22.5150   -9.9160 C.2     1  UNL1        0.2560
      3  N         17.7350  -23.0400   -8.8960 N.am    1  UNL1       -0.3310
      4  C         18.2710  -23.6830   -7.7210 C.3     1  UNL1        0.2220
      5  N         19.5460  -24.3070   -8.0080 N.pl3   1  UNL1       -0.3580
      6  C         20.3350  -23.7800   -8.9680 C.ar    1  UNL1        0.0880
      7  S         21.9960  -24.1180   -9.1160 S.2     1  UNL1       -0.0740
      8  C         22.1340  -23.0880  -10.4620 C.ar    1  UNL1        0.0200
      9  C         20.9300  -22.5040  -10.8110 C.ar    1  UNL1       -0.0230
     10  C         19.8810  -22.9040   -9.9270 C.ar    1  UNL1        0.0730
     11  C         20.8540  -21.5510  -11.9670 C.3     1  UNL1        0.0710
     12  C         22.1270  -21.6310  -12.8460 C.3     1  UNL1        0.2780
     13  N         23.3550  -21.6610  -12.0280 N.3     1  UNL1        0.0970
     14  C         23.4270  -22.8830  -11.2010 C.3     1  UNL1        0.3190
     15  H         16.7850  -22.7030   -8.8610 H       1  UNL1        0.1650
     16  H         19.9860  -24.7650   -7.2160 H       1  UNL1        0.1620
     17  C         18.3760  -22.7490   -6.5380 C.2     1  UNL1        0.0220
     18  C         19.2620  -21.6590   -6.5040 C.2     1  UNL1        0.0140
     19  C         19.3320  -20.8280   -5.3820 C.2     1  UNL1        0.0010
     20  C         18.5250  -21.0780   -4.2720 C.2     1  UNL1        0.0030
     21  C         17.6500  -22.1600   -4.2850 C.2     1  UNL1        0.0430
     22  C         17.5830  -22.9820   -5.4080 C.2     1  UNL1        0.1260
     23  F         16.7330  -24.0180   -5.3890 F       1  UNL1       -0.2050
     24  C         24.5840  -21.4030  -12.7860 C.3     1  UNL1        0.3110
     25  C         24.7500  -22.1360  -14.1010 C.2     1  UNL1       -0.0300
     26  C         25.1400  -23.4850  -14.1230 C.2     1  UNL1        0.0090
     27  C         25.2950  -24.1610  -15.3350 C.2     1  UNL1        0.0010
     28  C         25.0700  -23.4960  -16.5390 C.2     1  UNL1        0.0000
     29  C         24.6930  -22.1540  -16.5330 C.2     1  UNL1        0.0010
     30  C         24.5360  -21.4770  -15.3210 C.2     1  UNL1        0.0090
@<TRIPOS>BOND
     1    28    29    2
     2    28    27    1
     3    29    30    1
     4    27    26    2
     5    30    25    2
     6    26    25    1
     7    25    24    1
     8    12    13    1
     9    12    11    1
    10    24    13    1
    11    13    14    1
    12    11     9    1
    13    14     8    1
    14     9     8   ar
    15     9    10   ar
    16     1     2    2
    17     8     7   ar
    18    10     2    1
    19    10     6   ar
    20     2     3   am
    21     7     6   ar
    22     6     5    1
    23     3    15    1
    24     3     4    1
    25     5     4    1
    26     5    16    1
    27     4    17    1
    28    17    18    2
    29    17    22    1
    30    18    19    1
    31    22    23    1
    32    22    21    2
    33    19    20    2
    34    21    20    1
