@<TRIPOS>MOLECULE
80392_out_ligand_01.pdbqt
 32 36 0 0 0
SMALL
GASTEIGER

@<TRIPOS>ATOM
      1  C         17.6170  -23.9380   -7.1920 C.3     1  UNL1        0.2220
      2  N         16.9180  -23.2780   -8.2640 N.am    1  UNL1       -0.3310
      3  C         17.5170  -22.6850   -9.3410 C.2     1  UNL1        0.2560
      4  O         16.8900  -21.9150  -10.0620 O.2     1  UNL1       -0.2670
      5  C         18.9050  -23.0440   -9.5590 C.ar    1  UNL1        0.0730
      6  C         19.4970  -23.9520   -8.7150 C.ar    1  UNL1        0.0880
      7  S         21.1250  -24.2540   -9.1000 S.2     1  UNL1       -0.0740
      8  C         21.0740  -23.1480  -10.3920 C.ar    1  UNL1        0.0200
      9  C         19.8270  -22.5730  -10.5490 C.ar    1  UNL1       -0.0230
     10  C         19.5910  -21.5890  -11.6510 C.3     1  UNL1        0.0710
     11  C         20.9310  -21.0110  -12.1670 C.3     1  UNL1        0.2780
     12  N         21.9420  -22.0620  -12.4410 N.3     1  UNL1        0.0970
     13  C         22.2910  -22.8010  -11.2030 C.3     1  UNL1        0.3190
     14  N         18.8610  -24.5170   -7.6670 N.pl3   1  UNL1       -0.3580
     15  H         15.9790  -22.9610   -8.0790 H       1  UNL1        0.1650
     16  H         19.4030  -25.0090   -6.9670 H       1  UNL1        0.1620
     17  C         17.8180  -23.0140   -5.9960 C.2     1  UNL1        0.0180
     18  C         18.6900  -21.9050   -6.0720 C.2     1  UNL1        0.0330
     19  C         18.8580  -21.0490   -4.9840 C.2     1  UNL1        0.0110
     20  C         18.1570  -21.2680   -3.8040 C.2     1  UNL1        0.0220
     21 BR         20.0410  -19.5790   -5.1170 Br      1  UNL1       -0.0510
     22  C         17.2750  -22.3500   -3.7120 C.2     1  UNL1        0.0390
     23  C         17.0980  -23.2240   -4.7970 C.2     1  UNL1        0.0780
     24  O         16.2410  -24.2990   -4.7890 O.2     1  UNL1       -0.3550
     25  C         14.8470  -24.0280   -4.6780 C.3     1  UNL1        0.2100
     26  C         23.1490  -21.4480  -13.0280 C.3     1  UNL1        0.3110
     27  C         24.4430  -22.0670  -12.5350 C.2     1  UNL1       -0.0300
     28  C         24.9060  -23.2840  -13.0660 C.2     1  UNL1        0.0090
     29  C         26.0950  -23.8500  -12.6070 C.2     1  UNL1        0.0010
     30  C         26.8350  -23.2090  -11.6130 C.2     1  UNL1        0.0000
     31  C         26.3920  -21.9950  -11.0830 C.2     1  UNL1        0.0010
     32  C         25.2030  -21.4250  -11.5450 C.2     1  UNL1        0.0090
@<TRIPOS>BOND
     1    28    29    1
     2    28    27    2
     3    26    27    1
     4    26    12    1
     5    29    30    2
     6    27    32    1
     7    12    11    1
     8    12    13    1
     9    11    10    1
    10    10     9    1
    11    30    31    1
    12    32    31    2
    13    13     8    1
    14     9     8   ar
    15     9     5   ar
    16     8     7   ar
    17     4     3    2
    18     5     3    1
    19     5     6   ar
    20     3     2   am
    21     7     6   ar
    22     6    14    1
    23     2    15    1
    24     2     1    1
    25    14     1    1
    26    14    16    1
    27     1    17    1
    28    18    17    2
    29    18    19    1
    30    17    23    1
    31    21    19    1
    32    19    20    2
    33    23    24    1
    34    23    22    2
    35    24    25    1
    36    20    22    1
