@<TRIPOS>MOLECULE
80394_out_ligand_01.pdbqt
 30 34 0 0 0
SMALL
GASTEIGER

@<TRIPOS>ATOM
      1  C         18.4200  -23.5760   -7.8160 C.3     1  UNL1        0.2190
      2  N         17.8990  -22.8970   -8.9730 N.am    1  UNL1       -0.3320
      3  C         18.6540  -22.3670   -9.9840 C.2     1  UNL1        0.2560
      4  O         18.1520  -21.6040  -10.8050 O.2     1  UNL1       -0.2670
      5  C         20.0420  -22.7810  -10.0110 C.ar    1  UNL1        0.0730
      6  C         20.4980  -23.6550   -9.0500 C.ar    1  UNL1        0.0880
      7  S         22.1540  -24.0110   -9.2140 S.2     1  UNL1       -0.0740
      8  C         22.2870  -23.0000  -10.5760 C.ar    1  UNL1        0.0200
      9  C         21.0860  -22.4020  -10.9110 C.ar    1  UNL1       -0.0230
     10  C         21.0080  -21.4580  -12.0750 C.3     1  UNL1        0.0710
     11  C         22.2670  -21.5610  -12.9710 C.3     1  UNL1        0.2780
     12  N         23.5070  -21.6060  -12.1720 N.3     1  UNL1        0.0970
     13  C         23.5710  -22.8230  -11.3360 C.3     1  UNL1        0.3190
     14  N         19.7180  -24.1620   -8.0710 N.pl3   1  UNL1       -0.3580
     15  H         16.9640  -22.5250   -8.9190 H       1  UNL1        0.1650
     16  H         20.1660  -24.5790   -7.2610 H       1  UNL1        0.1620
     17  C         18.4430  -22.6770   -6.5860 C.2     1  UNL1       -0.0100
     18  C         19.3980  -21.6410   -6.4950 C.2     1  UNL1        0.0110
     19  C         19.4480  -20.7900   -5.3900 C.2     1  UNL1        0.0010
     20  C         18.5400  -20.9540   -4.3500 C.2     1  UNL1        0.0010
     21  C         17.5860  -21.9670   -4.4150 C.2     1  UNL1        0.0070
     22  C         17.5210  -22.8340   -5.5210 C.2     1  UNL1       -0.0520
     23  C         16.4620  -23.9050   -5.5230 C.3     1  UNL1        0.0490
     24  C         24.7290  -21.3780  -12.9510 C.3     1  UNL1        0.3110
     25  C         24.8200  -22.0490  -14.3050 C.2     1  UNL1       -0.0300
     26  C         24.6320  -21.3130  -15.4850 C.2     1  UNL1        0.0090
     27  C         24.7150  -21.9330  -16.7330 C.2     1  UNL1        0.0010
     28  C         24.9910  -23.2960  -16.8170 C.2     1  UNL1        0.0000
     29  C         25.1880  -24.0390  -15.6550 C.2     1  UNL1        0.0010
     30  C         25.1060  -23.4190  -14.4070 C.2     1  UNL1        0.0090
@<TRIPOS>BOND
     1    28    27    2
     2    28    29    1
     3    27    26    1
     4    29    30    2
     5    26    25    2
     6    30    25    1
     7    25    24    1
     8    11    12    1
     9    11    10    1
    10    24    12    1
    11    12    13    1
    12    10     9    1
    13    13     8    1
    14     9     8   ar
    15     9     5   ar
    16     4     3    2
    17     8     7   ar
    18     5     3    1
    19     5     6   ar
    20     3     2   am
    21     7     6   ar
    22     6    14    1
    23     2    15    1
    24     2     1    1
    25    14     1    1
    26    14    16    1
    27     1    17    1
    28    17    18    2
    29    17    22    1
    30    18    19    1
    31    23    22    1
    32    22    21    2
    33    19    20    2
    34    21    20    1
