@<TRIPOS>MOLECULE
8039_out_ligand_01.pdbqt
 39 43 0 0 0
SMALL
GASTEIGER

@<TRIPOS>ATOM
      1  C         17.4000  -22.0420  -10.6110 C.3     1  UNL1        0.2780
      2  C         18.8580  -22.5180  -10.6540 C.2     1  UNL1        0.2460
      3  N         19.7130  -21.5630  -11.1720 N.am    1  UNL1       -0.3250
      4  H         19.2800  -20.6720  -11.3940 H       1  UNL1        0.1690
      5  O         19.1540  -23.6460  -10.2700 O.2     1  UNL1       -0.2710
      6  C         21.1080  -21.6500  -11.3520 C.2     1  UNL1        0.0350
      7  C         21.7290  -21.6770  -12.6040 C.2     1  UNL1        0.0440
      8  C         23.1380  -21.7730  -12.6950 C.ar    1  UNL1        0.0050
      9  C         24.0480  -21.8170  -13.7970 C.ar    1  UNL1        0.0030
     10  C         23.8910  -21.8390  -11.5230 C.ar    1  UNL1        0.0460
     11  C         23.8790  -21.7820  -15.1980 C.2     1  UNL1        0.0140
     12  C         25.3400  -21.9130  -13.2770 C.ar    1  UNL1        0.0460
     13  C         24.9980  -21.8410  -16.0340 C.2     1  UNL1        0.0010
     14  C         26.2760  -21.9330  -15.4940 C.2     1  UNL1        0.0020
     15  C         26.4720  -21.9680  -14.1090 C.2     1  UNL1        0.0300
     16  N         25.2180  -21.9320  -11.9010 N.ar    1  UNL1       -0.3460
     17  C         23.2870  -21.8040  -10.2580 C.2     1  UNL1        0.0330
     18  C         21.8910  -21.7090  -10.1970 C.2     1  UNL1        0.0320
     19  C         26.3360  -22.0420  -10.9750 C.3     1  UNL1        0.1250
     20  C         26.6840  -23.4890  -10.6700 C.3     1  UNL1        0.0270
     21  O         16.4460  -23.0350  -10.2510 O.2     1  UNL1       -0.3420
     22  C         16.1960  -23.2330   -8.9210 C.2     1  UNL1        0.0690
     23  C         16.3010  -24.4440   -8.2340 C.2     1  UNL1        0.0380
     24  C         16.0410  -24.4980   -6.8610 C.2     1  UNL1        0.0280
     25  C         15.6700  -23.3370   -6.1770 C.2     1  UNL1        0.0800
     26  C         15.5850  -22.1170   -6.8510 C.2     1  UNL1        0.0280
     27  C         15.8440  -22.0730   -8.2220 C.2     1  UNL1        0.0380
     28  S         15.3630  -23.4070   -4.4250 S.O2    1  UNL1        0.2630
     29  O         14.8360  -24.7180   -4.1150 O.2     1  UNL1       -0.2000
     30  O         14.6400  -22.2050   -4.0660 O.2     1  UNL1       -0.2000
     31  N         16.9060  -23.2400   -3.7600 N.pl3   1  UNL1       -0.2810
     32  H         16.8930  -23.2930   -2.7440 H       1  UNL1        0.1790
     33  C         17.8320  -22.3460   -4.3680 C.2     1  UNL1        0.0430
     34  C         18.0840  -21.0960   -3.8090 C.2     1  UNL1        0.0300
     35  C         19.0170  -20.2460   -4.4000 C.2     1  UNL1        0.0030
     36  C         19.7050  -20.6490   -5.5450 C.2     1  UNL1        0.0070
     37  C         19.4690  -21.9110   -6.1060 C.2     1  UNL1       -0.0600
     38  C         20.1880  -22.3370   -7.3500 C.3     1  UNL1        0.0480
     39  C         18.5150  -22.7530   -5.5160 C.2     1  UNL1        0.0370
@<TRIPOS>BOND
     1    13    14    2
     2    13    11    1
     3    14    15    1
     4    11     9    2
     5    15    12    2
     6     9    12   ar
     7     9     8   ar
     8    12    16   ar
     9     8     7    1
    10     8    10   ar
    11     7     6    2
    12    16    10   ar
    13    16    19    1
    14    10    17    1
    15     4     3    1
    16     6     3    1
    17     6    18    1
    18     3     2   am
    19    19    20    1
    20     2     1    1
    21     2     5    2
    22     1    21    1
    23    17    18    2
    24    21    22    1
    25    22    23    2
    26    22    27    1
    27    23    24    1
    28    27    26    2
    29    38    37    1
    30    24    25    2
    31    26    25    1
    32    25    28    1
    33    37    36    2
    34    37    39    1
    35    36    35    1
    36    39    33    2
    37    28    29    2
    38    28    30    2
    39    28    31    1
    40    35    34    2
    41    33    34    1
    42    33    31    1
    43    31    32    1
