@<TRIPOS>MOLECULE
80393_out_ligand_01.pdbqt
 28 32 0 0 0
SMALL
GASTEIGER

@<TRIPOS>ATOM
      1  O         18.9180  -20.5340  -12.1690 O.2     1  UNL1       -0.2670
      2  C         19.9260  -21.1640  -11.8660 C.2     1  UNL1        0.2560
      3  N         21.1000  -20.9980  -12.5590 N.am    1  UNL1       -0.3310
      4  C         22.1120  -22.0240  -12.5740 C.3     1  UNL1        0.2260
      5  N         22.3140  -22.4990  -11.2170 N.pl3   1  UNL1       -0.3580
      6  C         21.1940  -22.7250  -10.4910 C.ar    1  UNL1        0.0880
      7  S         21.1090  -23.7870   -9.1670 S.2     1  UNL1       -0.0740
      8  C         19.4540  -23.4540   -8.9480 C.ar    1  UNL1        0.0200
      9  C         18.9710  -22.5300   -9.8590 C.ar    1  UNL1       -0.0230
     10  C         19.9910  -22.1090  -10.7640 C.ar    1  UNL1        0.0730
     11  C         17.5320  -22.1130   -9.8250 C.3     1  UNL1        0.0710
     12  C         16.8490  -22.5500   -8.5060 C.3     1  UNL1        0.2780
     13  N         17.1970  -23.9360   -8.1390 N.3     1  UNL1        0.0970
     14  C         18.6390  -24.0740   -7.8480 C.3     1  UNL1        0.3190
     15  H         20.9980  -20.4290  -13.3860 H       1  UNL1        0.1650
     16  H         23.0810  -23.1580  -11.1190 H       1  UNL1        0.1620
     17  C         16.3410  -24.5120   -7.0960 C.3     1  UNL1        0.3110
     18  C         16.2590  -23.7670   -5.7810 C.2     1  UNL1       -0.0300
     19  C         15.1000  -23.0590   -5.4280 C.2     1  UNL1        0.0090
     20  C         15.0270  -22.3720   -4.2140 C.2     1  UNL1        0.0010
     21  C         16.1090  -22.3910   -3.3360 C.2     1  UNL1        0.0000
     22  C         17.2630  -23.0960   -3.6690 C.2     1  UNL1        0.0010
     23  C         17.3370  -23.7820   -4.8830 C.2     1  UNL1        0.0090
     24  C         23.3470  -21.4370  -13.1960 C.2     1  UNL1        0.0240
     25  C         23.4610  -20.7240  -14.3760 C.2     1  UNL1        0.0190
     26  C         24.8010  -20.3270  -14.6490 C.2     1  UNL1        0.0080
     27  C         25.6710  -20.7480  -13.6690 C.2     1  UNL1        0.0500
     28  S         24.8730  -21.6180  -12.4310 S.3     1  UNL1       -0.1020
@<TRIPOS>BOND
     1    26    25    1
     2    26    27    2
     3    25    24    2
     4    27    28    1
     5    15     3    1
     6    24     4    1
     7    24    28    1
     8     4     3    1
     9     4     5    1
    10     3     2   am
    11     1     2    2
    12     2    10    1
    13     5    16    1
    14     5     6    1
    15    10     6   ar
    16    10     9   ar
    17     6     7   ar
    18     9    11    1
    19     9     8   ar
    20    11    12    1
    21     7     8   ar
    22     8    14    1
    23    12    13    1
    24    13    14    1
    25    13    17    1
    26    17    18    1
    27    18    19    2
    28    18    23    1
    29    19    20    1
    30    23    22    2
    31    20    21    2
    32    22    21    1
