@<TRIPOS>MOLECULE
80398_out_ligand_01.pdbqt
 33 38 0 0 0
SMALL
GASTEIGER

@<TRIPOS>ATOM
      1  O         19.2950  -20.6600  -12.3810 O.2     1  UNL1       -0.2670
      2  C         20.3050  -21.2740  -12.0500 C.2     1  UNL1        0.2560
      3  N         21.4920  -21.0920  -12.7180 N.am    1  UNL1       -0.3310
      4  C         22.7560  -21.3900  -12.0960 C.3     1  UNL1        0.2200
      5  N         22.6650  -22.6810  -11.4320 N.pl3   1  UNL1       -0.3580
      6  C         21.5320  -22.9070  -10.7250 C.ar    1  UNL1        0.0880
      7  S         21.4150  -24.0190   -9.4450 S.2     1  UNL1       -0.0740
      8  C         19.7790  -23.6190   -9.1860 C.ar    1  UNL1        0.0200
      9  C         19.3200  -22.6640  -10.0750 C.ar    1  UNL1       -0.0230
     10  C         20.3490  -22.2450  -10.9720 C.ar    1  UNL1        0.0730
     11  C         17.9060  -22.1810   -9.9990 C.3     1  UNL1        0.0710
     12  C         17.0390  -23.1320   -9.1400 C.3     1  UNL1        0.2780
     13  N         17.7010  -23.5060   -7.8680 N.3     1  UNL1        0.0970
     14  C         18.9420  -24.2790   -8.1270 C.3     1  UNL1        0.3190
     15  H         21.4590  -20.3300  -13.3780 H       1  UNL1        0.1650
     16  H         23.5370  -23.0040  -11.0240 H       1  UNL1        0.1620
     17  C         23.8620  -21.4010  -13.1340 C.2     1  UNL1        0.0040
     18  C         23.5150  -21.5080  -14.5020 C.2     1  UNL1        0.0520
     19  C         24.5140  -21.5000  -15.4500 C.2     1  UNL1        0.1050
     20  C         25.8340  -21.3770  -15.1020 C.2     1  UNL1        0.1060
     21  O         24.3390  -21.6030  -16.7940 O.2     1  UNL1       -0.3230
     22  C         26.2280  -21.2490  -13.7890 C.2     1  UNL1        0.0590
     23  O         26.6590  -21.3860  -16.1820 O.2     1  UNL1       -0.3230
     24  C         25.2330  -21.2550  -12.8000 C.2     1  UNL1        0.0240
     25 BR         25.8290  -21.0300  -11.0080 Br      1  UNL1       -0.0500
     26  C         25.7030  -21.5310  -17.2540 C.3     1  UNL1        0.3520
     27  C         16.7730  -24.2720   -7.0190 C.3     1  UNL1        0.3110
     28  C         16.5370  -23.6430   -5.6620 C.2     1  UNL1       -0.0300
     29  C         15.3080  -23.0390   -5.3580 C.2     1  UNL1        0.0090
     30  C         15.0990  -22.4530   -4.1080 C.2     1  UNL1        0.0010
     31  C         16.1130  -22.4610   -3.1530 C.2     1  UNL1        0.0000
     32  C         17.3390  -23.0550   -3.4440 C.2     1  UNL1        0.0010
     33  C         17.5510  -23.6410   -4.6930 C.2     1  UNL1        0.0090
@<TRIPOS>BOND
     1    26    21    1
     2    26    23    1
     3    21    19    1
     4    23    20    1
     5    19    20    2
     6    19    18    1
     7    20    22    1
     8    18    17    2
     9    22    24    2
    10    15     3    1
    11    17    24    1
    12    17     4    1
    13    24    25    1
    14     3     4    1
    15     3     2   am
    16     1     2    2
    17     4     5    1
    18     2    10    1
    19     5    16    1
    20     5     6    1
    21    10     6   ar
    22    10     9   ar
    23     6     7   ar
    24     9    11    1
    25     9     8   ar
    26    11    12    1
    27     7     8   ar
    28     8    14    1
    29    12    13    1
    30    14    13    1
    31    13    27    1
    32    27    28    1
    33    28    29    2
    34    28    33    1
    35    29    30    1
    36    33    32    2
    37    30    31    2
    38    32    31    1
