@<TRIPOS>MOLECULE
80390_out_ligand_01.pdbqt
 30 34 0 0 0
SMALL
GASTEIGER

@<TRIPOS>ATOM
      1  O         20.1980  -21.0250  -12.4050 O.2     1  UNL1       -0.2670
      2  C         21.0310  -21.7030  -11.8120 C.2     1  UNL1        0.2560
      3  N         22.3470  -21.7130  -12.2090 N.am    1  UNL1       -0.3320
      4  C         23.3970  -22.0770  -11.2970 C.3     1  UNL1        0.2190
      5  N         23.0130  -23.2760  -10.5790 N.pl3   1  UNL1       -0.3580
      6  C         21.7380  -23.3120  -10.1230 C.ar    1  UNL1        0.0880
      7  S         21.2160  -24.2670   -8.8190 S.2     1  UNL1       -0.0740
      8  C         19.6260  -23.6750   -8.9610 C.ar    1  UNL1        0.0200
      9  C         19.4860  -22.7750  -10.0020 C.ar    1  UNL1       -0.0230
     10  C         20.7260  -22.5590  -10.6780 C.ar    1  UNL1        0.0730
     11  C         18.1570  -22.1470  -10.2840 C.3     1  UNL1        0.0710
     12  C         17.0180  -22.9120   -9.5680 C.3     1  UNL1        0.2780
     13  N         17.3440  -23.2140   -8.1540 N.3     1  UNL1        0.0970
     14  C         18.5090  -24.1320   -8.0660 C.3     1  UNL1        0.3190
     15  H         22.5570  -21.0340  -12.9240 H       1  UNL1        0.1650
     16  H         23.7380  -23.6630   -9.9840 H       1  UNL1        0.1620
     17  C         24.6980  -22.3070  -12.0340 C.2     1  UNL1       -0.0150
     18  C         25.8170  -21.4970  -11.7780 C.2     1  UNL1        0.0110
     19  C         27.0180  -21.7050  -12.4620 C.2     1  UNL1        0.0020
     20  C         27.1150  -22.7230  -13.4100 C.2     1  UNL1        0.0190
     21  C         26.0120  -23.5310  -13.6710 C.2     1  UNL1        0.0110
     22 BR         26.1440  -24.9120  -14.9560 Br      1  UNL1       -0.0510
     23  C         24.8110  -23.3300  -12.9930 C.2     1  UNL1        0.0300
     24  C         16.1710  -23.7890   -7.4750 C.3     1  UNL1        0.3110
     25  C         16.0660  -23.3990   -6.0150 C.2     1  UNL1       -0.0300
     26  C         17.0610  -23.7850   -5.1030 C.2     1  UNL1        0.0090
     27  C         16.9720  -23.4200   -3.7600 C.2     1  UNL1        0.0010
     28  C         15.8910  -22.6610   -3.3140 C.2     1  UNL1        0.0000
     29  C         14.9000  -22.2670   -4.2100 C.2     1  UNL1        0.0010
     30  C         14.9850  -22.6330   -5.5550 C.2     1  UNL1        0.0090
@<TRIPOS>BOND
     1    22    21    1
     2    21    20    2
     3    21    23    1
     4    20    19    1
     5    23    17    2
     6    15     3    1
     7    19    18    2
     8     1     2    2
     9     3     2   am
    10     3     4    1
    11    17    18    1
    12    17     4    1
    13     2    10    1
    14     4     5    1
    15    10     6   ar
    16    10     9   ar
    17     5     6    1
    18     5    16    1
    19    11     9    1
    20    11    12    1
    21     6     7   ar
    22     9     8   ar
    23    12    13    1
    24     8     7   ar
    25     8    14    1
    26    13    14    1
    27    13    24    1
    28    24    25    1
    29    25    30    2
    30    25    26    1
    31    30    29    1
    32    26    27    2
    33    29    28    2
    34    27    28    1
