@<TRIPOS>MOLECULE
80405_out_ligand_01.pdbqt
 39 44 0 0 0
SMALL
GASTEIGER

@<TRIPOS>ATOM
      1  C         23.8050  -22.8820  -10.8560 C.2     1  UNL1       -0.0120
      2  C         23.6100  -23.0600   -9.4780 C.2     1  UNL1        0.0140
      3  C         22.3470  -22.9020   -8.9120 C.2     1  UNL1        0.0410
      4  C         21.2730  -22.5240   -9.7180 C.2     1  UNL1        0.1120
      5  C         21.4260  -22.3420  -11.0980 C.2     1  UNL1        0.1020
      6  C         22.6960  -22.5180  -11.6540 C.2     1  UNL1        0.0500
      7  C         25.1760  -23.0170  -11.5260 C.3     1  UNL1        0.2430
      8  N         25.0330  -23.7510  -12.7980 N.2     1  UNL1       -0.2350
      9  C         25.2480  -23.0800  -13.8680 C.2     1  UNL1        0.1730
     10  C         25.6620  -21.7030  -13.9180 C.ar    1  UNL1        0.0570
     11  C         25.9770  -21.1030  -12.7220 C.ar    1  UNL1        0.0870
     12  C         25.8150  -20.8000  -15.0140 C.ar    1  UNL1       -0.0240
     13  S         26.4600  -19.4840  -12.8930 S.2     1  UNL1       -0.0740
     14  N         25.8970  -21.7550  -11.5460 N.pl3   1  UNL1       -0.3570
     15  C         26.2550  -19.5590  -14.5860 C.ar    1  UNL1        0.0200
     16  C         26.4930  -18.3740  -15.4810 C.3     1  UNL1        0.3190
     17  N         26.5880  -18.7960  -16.8960 N.3     1  UNL1        0.0930
     18  C         25.5030  -19.7290  -17.2630 C.3     1  UNL1        0.2770
     19  C         25.5760  -21.0550  -16.4710 C.3     1  UNL1        0.0710
     20  H         25.9530  -21.2520  -10.6670 H       1  UNL1        0.1620
     21  O         25.0840  -23.7100  -15.0470 O.2     1  UNL1       -0.3440
     22  H         25.8600  -24.2810  -15.1650 H       1  UNL1        0.2190
     23  C         26.7080  -17.6590  -17.8170 C.3     1  UNL1        0.2680
     24  C         26.0600  -16.3460  -17.3800 C.3     1  UNL1        0.0370
     25  O         20.2970  -21.9960  -11.7930 O.2     1  UNL1       -0.3530
     26  C         20.0070  -20.6100  -11.9130 C.3     1  UNL1        0.2100
     27  O         19.9800  -22.3890   -9.1780 O.3     1  UNL1       -0.2720
     28  C         19.5750  -23.3520   -8.2730 C.2     1  UNL1        0.2990
     29  O         19.7040  -24.5640   -8.3500 O.2     1  UNL1       -0.2590
     30  C         19.0170  -22.6730   -7.0820 C.2     1  UNL1        0.0510
     31  C         19.8340  -21.6770   -6.5210 C.2     1  UNL1        0.0180
     32  C         19.3950  -20.9580   -5.4160 C.2     1  UNL1        0.0020
     33  C         18.1450  -21.2380   -4.8650 C.2     1  UNL1        0.0120
     34  C         17.3230  -22.2480   -5.3960 C.2     1  UNL1       -0.0250
     35  C         16.0750  -22.5120   -4.8070 C.2     1  UNL1        0.0120
     36  C         17.7540  -23.0010   -6.5170 C.2     1  UNL1       -0.0100
     37  C         15.2460  -23.5210   -5.2970 C.2     1  UNL1        0.0010
     38  C         15.6600  -24.2870   -6.3770 C.2     1  UNL1        0.0010
     39  C         16.8990  -24.0360   -6.9760 C.2     1  UNL1        0.0130
@<TRIPOS>BOND
     1    23    24    1
     2    23    17    1
     3    18    17    1
     4    18    19    1
     5    17    16    1
     6    19    12    1
     7    16    15    1
     8    22    21    1
     9    21     9    1
    10    12    15   ar
    11    12    10   ar
    12    15    13   ar
    13    10     9    1
    14    10    11   ar
    15     9     8    2
    16    13    11   ar
    17     8     7    1
    18    11    14    1
    19    26    25    1
    20    25     5    1
    21     6     5    1
    22     6     1    2
    23    14     7    1
    24    14    20    1
    25     7     1    1
    26     5     4    2
    27     1     2    1
    28     4    27    1
    29     4     3    1
    30     2     3    2
    31    27    28    1
    32    29    28    2
    33    28    30    1
    34    30    31    2
    35    30    36    1
    36    39    36    1
    37    39    38    2
    38    31    32    1
    39    36    34    2
    40    38    37    1
    41    32    33    2
    42    34    33    1
    43    34    35    1
    44    37    35    2
