@<TRIPOS>MOLECULE
80419_out_ligand_01.pdbqt
 31 33 0 0 0
SMALL
GASTEIGER

@<TRIPOS>ATOM
      1  C         22.8090  -22.0140  -12.5540 C.2     1  UNL1        0.0400
      2  C         24.0250  -22.0650  -11.9720 C.2     1  UNL1        0.1120
      3  C         25.1860  -22.1850  -12.7920 C.1     1  UNL1        0.1050
      4  N         26.0920  -22.2550  -13.5140 N.1     1  UNL1       -0.1910
      5  C         24.2590  -22.0590  -10.5040 C.2     1  UNL1        0.2600
      6  N         24.6820  -23.2270   -9.9450 N.am    1  UNL1       -0.3650
      7  H         24.9250  -24.0530  -10.4750 H       1  UNL1        0.1590
      8  H         24.8800  -23.2260   -8.9520 H       1  UNL1        0.1590
      9  O         24.0490  -21.0690   -9.8150 O.2     1  UNL1       -0.2670
     10  C         21.5010  -21.9740  -11.8910 C.2     1  UNL1       -0.0320
     11  C         21.1980  -22.9440  -10.9250 C.2     1  UNL1        0.0510
     12  C         19.9630  -22.9370  -10.2580 C.2     1  UNL1        0.1020
     13  C         19.0260  -21.9400  -10.5670 C.2     1  UNL1        0.1020
     14  C         19.3260  -20.9820  -11.5420 C.2     1  UNL1        0.0400
     15  C         20.5610  -20.9850  -12.1890 C.2     1  UNL1        0.0140
     16  O         19.6010  -23.9190   -9.3730 O.2     1  UNL1       -0.3530
     17  C         20.6680  -24.5090   -8.6330 C.3     1  UNL1        0.2100
     18  O         17.7770  -21.7990  -10.0220 O.2     1  UNL1       -0.3480
     19  C         16.9290  -22.9520  -10.0920 C.3     1  UNL1        0.1860
     20  C         15.9650  -22.9440   -8.9060 C.3     1  UNL1        0.1060
     21  S         16.1670  -24.3970   -7.8000 S.3     1  UNL1       -0.1270
     22  C         16.2150  -23.5620   -6.2060 C.2     1  UNL1        0.0110
     23  C         15.1560  -23.8220   -5.3220 C.2     1  UNL1        0.0190
     24  C         15.1280  -23.2320   -4.0620 C.2     1  UNL1        0.0020
     25  C         16.1570  -22.3760   -3.6750 C.2     1  UNL1        0.0120
     26  C         17.2220  -22.0880   -4.5410 C.2     1  UNL1       -0.0250
     27  C         18.2480  -21.2210   -4.1300 C.2     1  UNL1        0.0120
     28  C         17.2620  -22.6730   -5.8330 C.2     1  UNL1       -0.0090
     29  C         19.3170  -20.9190   -4.9720 C.2     1  UNL1        0.0010
     30  C         19.3690  -21.4730   -6.2430 C.2     1  UNL1        0.0010
     31  C         18.3530  -22.3320   -6.6680 C.2     1  UNL1        0.0130
@<TRIPOS>BOND
     1     4     3    3
     2     3     2    1
     3     1     2    2
     4     1    10    1
     5    15    10    2
     6    15    14    1
     7     2     5    1
     8    10    11    1
     9    14    13    2
    10    11    12    2
    11    13    12    1
    12    13    18    1
    13     5     6   am
    14     5     9    2
    15     7     6    1
    16    12    16    1
    17    19    18    1
    18    19    20    1
    19     6     8    1
    20    16    17    1
    21    20    21    1
    22    21    22    1
    23    31    30    2
    24    31    28    1
    25    30    29    1
    26    22    28    2
    27    22    23    1
    28    28    26    1
    29    23    24    2
    30    29    27    2
    31    26    27    1
    32    26    25    2
    33    24    25    1
