@<TRIPOS>MOLECULE
80410_out_ligand_01.pdbqt
 41 46 0 0 0
SMALL
GASTEIGER

@<TRIPOS>ATOM
      1  C         18.6830  -22.7680   -9.8400 C.2     1  UNL1        0.1030
      2  C         19.8590  -22.2270  -10.3680 C.2     1  UNL1        0.0500
      3  C         21.1030  -22.4710   -9.7510 C.2     1  UNL1       -0.0120
      4  C         21.1530  -23.2840   -8.6040 C.2     1  UNL1        0.0140
      5  C         19.9900  -23.8430   -8.0810 C.2     1  UNL1        0.0410
      6  C         18.7690  -23.5720   -8.6960 C.2     1  UNL1        0.1120
      7  C         22.3870  -21.8940  -10.3330 C.3     1  UNL1        0.2430
      8  N         23.4780  -22.8780  -10.2100 N.2     1  UNL1       -0.2350
      9  C         24.2600  -22.9900  -11.2180 C.2     1  UNL1        0.1730
     10  C         24.1340  -22.2680  -12.4540 C.ar    1  UNL1        0.0570
     11  C         23.0260  -21.4690  -12.6010 C.ar    1  UNL1        0.0870
     12  C         24.9630  -22.2280  -13.6190 C.ar    1  UNL1       -0.0240
     13  S         22.9810  -20.6510  -14.0880 S.2     1  UNL1       -0.0740
     14  N         22.0760  -21.3780  -11.6520 N.pl3   1  UNL1       -0.3570
     15  C         24.4510  -21.3650  -14.5730 C.ar    1  UNL1        0.0200
     16  C         25.0670  -21.1020  -15.9210 C.3     1  UNL1        0.3190
     17  N         26.4730  -21.5670  -15.9610 N.3     1  UNL1        0.0970
     18  C         26.6030  -22.9240  -15.3870 C.3     1  UNL1        0.2780
     19  C         26.2470  -22.9530  -13.8810 C.3     1  UNL1        0.0710
     20  H         21.3510  -20.6710  -11.7050 H       1  UNL1        0.1620
     21  O         25.2830  -23.8570  -11.1160 O.2     1  UNL1       -0.3440
     22  H         25.0330  -24.6400  -11.6340 H       1  UNL1        0.2190
     23  C         27.1210  -21.4470  -17.2810 C.3     1  UNL1        0.2150
     24  C         27.0810  -22.7090  -18.1530 C.3     1  UNL1        0.0420
     25  C         26.5630  -20.2530  -18.0660 C.3     1  UNL1        0.0420
     26  O         17.4440  -22.6170  -10.4000 O.2     1  UNL1       -0.3490
     27  C         17.3270  -21.7340  -11.5170 C.3     1  UNL1        0.1710
     28  C         16.7550  -20.3840  -11.1130 C.3     1  UNL1        0.0340
     29  O         17.6320  -24.1930   -8.1680 O.3     1  UNL1       -0.2720
     30  C         16.6390  -23.2970   -7.8310 C.2     1  UNL1        0.2990
     31  O         15.9550  -22.6030   -8.5660 O.2     1  UNL1       -0.2590
     32  C         16.6120  -23.1800   -6.3560 C.2     1  UNL1        0.0510
     33  C         15.6550  -23.9730   -5.7040 C.2     1  UNL1        0.0180
     34  C         15.5250  -23.9120   -4.3220 C.2     1  UNL1        0.0020
     35  C         16.3540  -23.0670   -3.5880 C.2     1  UNL1        0.0120
     36  C         17.3370  -22.2830   -4.2180 C.2     1  UNL1       -0.0250
     37  C         18.1710  -21.4540   -3.4510 C.2     1  UNL1        0.0120
     38  C         17.4900  -22.3340   -5.6270 C.2     1  UNL1       -0.0100
     39  C         19.1660  -20.6830   -4.0490 C.2     1  UNL1        0.0010
     40  C         19.3430  -20.7340   -5.4240 C.2     1  UNL1        0.0010
     41  C         18.5200  -21.5500   -6.2030 C.2     1  UNL1        0.0130
@<TRIPOS>BOND
     1    24    23    1
     2    25    23    1
     3    23    17    1
     4    17    16    1
     5    17    18    1
     6    16    15    1
     7    18    19    1
     8    15    13   ar
     9    15    12   ar
    10    13    11   ar
    11    19    12    1
    12    12    10   ar
    13    11    10   ar
    14    11    14    1
    15    10     9    1
    16    20    14    1
    17    14     7    1
    18    22    21    1
    19    27    28    1
    20    27    26    1
    21     9    21    1
    22     9     8    2
    23    26     1    1
    24     2     1    2
    25     2     3    1
    26     7     8    1
    27     7     3    1
    28     1     6    1
    29     3     4    2
    30     6    29    1
    31     6     5    2
    32     4     5    1
    33    31    30    2
    34    29    30    1
    35    30    32    1
    36    32    33    2
    37    32    38    1
    38    41    38    1
    39    41    40    2
    40    33    34    1
    41    38    36    2
    42    40    39    1
    43    34    35    2
    44    36    35    1
    45    36    37    1
    46    39    37    2
