@<TRIPOS>MOLECULE
80429_out_ligand_01.pdbqt
 31 35 0 0 0
SMALL
GASTEIGER

@<TRIPOS>ATOM
      1  C         22.1580  -22.0530  -11.9910 C.2     1  UNL1        0.0330
      2  C         21.1340  -21.2890  -12.6040 C.2     1  UNL1        0.0180
      3  C         19.8580  -21.1970  -12.0340 C.2     1  UNL1        0.0190
      4  C         19.6400  -21.8910  -10.8600 C.2     1  UNL1        0.0480
      5  C         20.6290  -22.6480  -10.2690 C.2     1  UNL1        0.0490
      6  C         21.9010  -22.7540  -10.8040 C.2     1  UNL1        0.0350
      7  C         20.0740  -23.2300   -9.0510 C.2     1  UNL1        0.2660
      8  O         20.7870  -23.8330   -8.2710 O.2     1  UNL1       -0.2670
      9  N         18.7470  -22.8640   -8.9990 N.am    1  UNL1       -0.2430
     10  C         18.4450  -21.9950  -10.0280 C.2     1  UNL1        0.2660
     11  O         17.4240  -21.3890  -10.2980 O.2     1  UNL1       -0.2670
     12  C         23.4870  -22.1060  -12.6640 C.2     1  UNL1        0.2510
     13  O         23.6150  -21.6330  -13.7870 O.2     1  UNL1       -0.2680
     14  N         24.5200  -22.6700  -11.9500 N.am    1  UNL1       -0.3540
     15  H         24.4010  -22.9020  -10.9730 H       1  UNL1        0.1620
     16  C         25.8710  -22.7440  -12.4840 C.3     1  UNL1        0.1550
     17  C         26.7110  -21.4990  -12.1870 C.3     1  UNL1        0.1390
     18  C         26.1630  -20.6050  -11.0860 C.3     1  UNL1        0.0350
     19  C         26.7550  -19.2690  -11.4560 C.3     1  UNL1        0.0290
     20  C         26.6660  -19.2980  -12.9660 C.3     1  UNL1        0.1680
     21  O         26.7960  -20.6700  -13.3660 O.3     1  UNL1       -0.3840
     22  C         17.8640  -23.1670   -7.9210 C.2     1  UNL1        0.0570
     23  C         16.8540  -24.1230   -8.1480 C.2     1  UNL1        0.0310
     24  C         15.9020  -24.4160   -7.1780 C.2     1  UNL1        0.0030
     25  C         15.9450  -23.7660   -5.9530 C.2     1  UNL1        0.0120
     26  C         16.9580  -22.8420   -5.6640 C.2     1  UNL1       -0.0240
     27  C         16.9890  -22.2430   -4.3940 C.2     1  UNL1        0.0120
     28  C         17.9490  -22.5370   -6.6370 C.2     1  UNL1        0.0020
     29  C         18.0060  -21.3630   -4.0380 C.2     1  UNL1        0.0010
     30  C         19.0140  -21.0840   -4.9460 C.2     1  UNL1        0.0010
     31  C         18.9900  -21.6690   -6.2150 C.2     1  UNL1        0.0140
@<TRIPOS>BOND
     1    13    12    2
     2    21    20    1
     3    21    17    1
     4    20    19    1
     5    12     1    1
     6    12    14   am
     7     2     3    1
     8     2     1    2
     9    16    17    1
    10    16    14    1
    11    17    18    1
    12     3     4    2
    13     1     6    1
    14    14    15    1
    15    19    18    1
    16     4     5    1
    17     4    10    1
    18     6     5    2
    19    11    10    2
    20     5     7    1
    21    10     9   am
    22     7     9   am
    23     7     8    2
    24     9    22    1
    25    23    22    2
    26    23    24    1
    27    22    28    1
    28    24    25    2
    29    28    31    1
    30    28    26    2
    31    31    30    2
    32    25    26    1
    33    26    27    1
    34    30    29    1
    35    27    29    2
