@<TRIPOS>MOLECULE
80427_out_ligand_01.pdbqt
 36 41 0 0 0
SMALL
GASTEIGER

@<TRIPOS>ATOM
      1  C         18.4720  -23.3570   -8.6790 C.3     1  UNL1        0.2230
      2  N         18.1840  -22.2190   -9.5190 N.am    1  UNL1       -0.3310
      3  C         18.9440  -21.9090  -10.6190 C.2     1  UNL1        0.2560
      4  O         18.4860  -21.2170  -11.5220 O.2     1  UNL1       -0.2670
      5  C         20.3040  -22.4130  -10.5940 C.ar    1  UNL1        0.0730
      6  C         20.7140  -23.1620   -9.5140 C.ar    1  UNL1        0.0880
      7  S         22.3440  -23.6270   -9.6090 S.2     1  UNL1       -0.0740
      8  C         22.5330  -22.8320  -11.1020 C.ar    1  UNL1        0.0200
      9  C         21.3690  -22.2180  -11.5250 C.ar    1  UNL1       -0.0230
     10  C         21.3430  -21.4590  -12.8140 C.3     1  UNL1        0.0710
     11  C         22.7760  -21.1560  -13.3100 C.3     1  UNL1        0.2780
     12  N         23.6790  -22.3290  -13.2290 N.3     1  UNL1        0.0970
     13  C         23.8490  -22.7740  -11.8210 C.3     1  UNL1        0.3190
     14  N         19.9000  -23.4560   -8.4810 N.pl3   1  UNL1       -0.3580
     15  H         17.2230  -21.9260   -9.6000 H       1  UNL1        0.1650
     16  H         20.2090  -24.0550   -7.7210 H       1  UNL1        0.1620
     17  C         17.6610  -23.2870   -7.3880 C.2     1  UNL1        0.0280
     18  C         18.1000  -22.4280   -6.3190 C.2     1  UNL1       -0.0130
     19  C         19.2720  -21.6270   -6.3590 C.2     1  UNL1        0.0130
     20  C         17.3300  -22.3570   -5.1250 C.2     1  UNL1       -0.0250
     21  C         19.6560  -20.8110   -5.2890 C.2     1  UNL1        0.0010
     22  C         18.8820  -20.7620   -4.1400 C.2     1  UNL1        0.0010
     23  C         17.7250  -21.5310   -4.0600 C.2     1  UNL1        0.0120
     24  C         16.1620  -23.1150   -4.9920 C.2     1  UNL1        0.0150
     25  C         15.7500  -23.9600   -6.0120 C.2     1  UNL1        0.0380
     26  C         16.5040  -24.0680   -7.1800 C.2     1  UNL1        0.0790
     27  O         15.9950  -24.9190   -8.1280 O.2     1  UNL1       -0.3510
     28  C         15.2210  -24.1980   -9.0990 C.3     1  UNL1        0.1710
     29  C         14.6830  -25.2050  -10.1020 C.3     1  UNL1        0.0340
     30  C         24.9810  -22.0030  -13.8360 C.3     1  UNL1        0.3110
     31  C         24.9530  -21.9530  -15.3490 C.2     1  UNL1       -0.0300
     32  C         24.5870  -23.0860  -16.0940 C.2     1  UNL1        0.0090
     33  C         24.5490  -23.0340  -17.4870 C.2     1  UNL1        0.0010
     34  C         24.8800  -21.8520  -18.1520 C.2     1  UNL1        0.0000
     35  C         25.2480  -20.7210  -17.4240 C.2     1  UNL1        0.0010
     36  C         25.2800  -20.7690  -16.0300 C.2     1  UNL1        0.0090
@<TRIPOS>BOND
     1    34    33    2
     2    34    35    1
     3    33    32    1
     4    35    36    2
     5    32    31    2
     6    36    31    1
     7    31    30    1
     8    30    12    1
     9    11    12    1
    10    11    10    1
    11    12    13    1
    12    10     9    1
    13    13     8    1
    14     9     8   ar
    15     9     5   ar
    16     4     3    2
    17     8     7   ar
    18     3     5    1
    19     3     2   am
    20     5     6   ar
    21    29    28    1
    22     7     6   ar
    23    15     2    1
    24     2     1    1
    25     6    14    1
    26    28    27    1
    27     1    14    1
    28     1    17    1
    29    14    16    1
    30    27    26    1
    31    17    26    2
    32    17    18    1
    33    26    25    1
    34    19    18    2
    35    19    21    1
    36    18    20    1
    37    25    24    2
    38    21    22    2
    39    20    24    1
    40    20    23    2
    41    22    23    1
