@<TRIPOS>MOLECULE
80424_out_ligand_01.pdbqt
 31 35 0 0 0
SMALL
GASTEIGER

@<TRIPOS>ATOM
      1  C         24.0080  -21.7510  -13.8200 C.3     1  UNL1        0.2220
      2  N         24.7520  -22.0510  -12.6190 N.am    1  UNL1       -0.3310
      3  C         24.1430  -22.6570  -11.5460 C.2     1  UNL1        0.2560
      4  O         24.7920  -23.3110  -10.7350 O.2     1  UNL1       -0.2670
      5  C         22.7080  -22.4470  -11.4530 C.ar    1  UNL1        0.0730
      6  C         22.0880  -21.6740  -12.4110 C.ar    1  UNL1        0.0880
      7  S         20.4180  -21.5060  -12.1490 S.2     1  UNL1       -0.0740
      8  C         20.4930  -22.4730  -10.7500 C.ar    1  UNL1        0.0200
      9  C         21.7730  -22.9280  -10.4860 C.ar    1  UNL1       -0.0230
     10  C         22.0460  -23.7830   -9.2850 C.3     1  UNL1        0.0710
     11  C         20.7260  -24.2830   -8.6480 C.3     1  UNL1        0.2780
     12  N         19.6320  -23.2810   -8.5700 N.3     1  UNL1        0.0970
     13  C         19.2810  -22.8020   -9.9280 C.3     1  UNL1        0.3190
     14  N         22.7570  -21.1120  -13.4460 N.pl3   1  UNL1       -0.3580
     15  H         25.7170  -22.3180  -12.7330 H       1  UNL1        0.1650
     16  H         22.2130  -20.7830  -14.2380 H       1  UNL1        0.1620
     17  C         24.7950  -20.8330  -14.7340 C.2     1  UNL1        0.0170
     18  C         25.4940  -19.7360  -14.1850 C.2     1  UNL1        0.0140
     19  C         26.2130  -18.8630  -14.9980 C.2     1  UNL1        0.0010
     20  C         26.2430  -19.0690  -16.3720 C.2     1  UNL1        0.0030
     21  C         25.5560  -20.1500  -16.9360 C.2     1  UNL1        0.0370
     22  C         24.8270  -21.0330  -16.1280 C.2     1  UNL1        0.0780
     23  O         24.1300  -22.1160  -16.6020 O.2     1  UNL1       -0.3550
     24  C         24.7800  -22.9540  -17.5500 C.3     1  UNL1        0.2100
     25  C         19.9500  -22.1500   -7.6820 C.3     1  UNL1        0.3110
     26  C         19.1160  -22.1310   -6.4170 C.2     1  UNL1       -0.0300
     27  C         18.2160  -23.1680   -6.1390 C.2     1  UNL1        0.0090
     28  C         17.4540  -23.1510   -4.9690 C.2     1  UNL1        0.0010
     29  C         17.5860  -22.0980   -4.0650 C.2     1  UNL1        0.0000
     30  C         18.4790  -21.0620   -4.3300 C.2     1  UNL1        0.0010
     31  C         19.2410  -21.0780   -5.4970 C.2     1  UNL1        0.0090
@<TRIPOS>BOND
     1    24    23    1
     2    21    20    2
     3    21    22    1
     4    23    22    1
     5    20    19    1
     6    22    17    2
     7    19    18    2
     8    17    18    1
     9    17     1    1
    10    16    14    1
    11     1    14    1
    12     1     2    1
    13    14     6    1
    14    15     2    1
    15     2     3   am
    16     6     7   ar
    17     6     5   ar
    18     7     8   ar
    19     3     5    1
    20     3     4    2
    21     5     9   ar
    22     8     9   ar
    23     8    13    1
    24     9    10    1
    25    13    12    1
    26    10    11    1
    27    11    12    1
    28    12    25    1
    29    25    26    1
    30    26    27    2
    31    26    31    1
    32    27    28    1
    33    31    30    2
    34    28    29    2
    35    30    29    1
