@<TRIPOS>MOLECULE
80437_out_ligand_01.pdbqt
 31 35 0 0 0
SMALL
GASTEIGER

@<TRIPOS>ATOM
      1  C         24.2000  -22.8070  -11.6350 C.2     1  UNL1        0.1730
      2  N         24.9420  -22.3080  -12.5510 N.2     1  UNL1       -0.2350
      3  C         24.3040  -21.3530  -13.4850 C.3     1  UNL1        0.2440
      4  N         22.8570  -21.2320  -13.4530 N.pl3   1  UNL1       -0.3570
      5  C         22.2020  -21.7180  -12.3820 C.ar    1  UNL1        0.0870
      6  S         20.5690  -21.4050  -12.0380 S.2     1  UNL1       -0.0740
      7  C         20.6200  -22.4050  -10.6590 C.ar    1  UNL1        0.0200
      8  C         21.8680  -22.9730  -10.4650 C.ar    1  UNL1       -0.0240
      9  C         22.8020  -22.5330  -11.4550 C.ar    1  UNL1        0.0570
     10  C         22.0890  -23.9020   -9.3120 C.3     1  UNL1        0.0710
     11  C         20.7410  -24.4340   -8.7690 C.3     1  UNL1        0.2780
     12  N         19.7650  -23.3480   -8.5370 N.3     1  UNL1        0.0970
     13  C         19.4070  -22.6620   -9.8070 C.3     1  UNL1        0.3190
     14  H         22.4700  -20.4380  -13.9560 H       1  UNL1        0.1620
     15  C         24.6890  -21.6870  -14.9240 C.2     1  UNL1        0.0090
     16  C         24.2250  -22.8990  -15.4860 C.2     1  UNL1        0.0130
     17  C         24.5060  -23.2480  -16.8080 C.2     1  UNL1        0.0020
     18  C         25.2490  -22.3840  -17.6030 C.2     1  UNL1        0.0260
     19  C         25.6990  -21.1640  -17.0820 C.2     1  UNL1        0.0560
     20 CL         26.5960  -20.1410  -18.1530 Cl      1  UNL1       -0.0830
     21  C         25.4190  -20.8060  -15.7480 C.2     1  UNL1        0.0660
     22 CL         25.9470  -19.2660  -15.1350 Cl      1  UNL1       -0.0820
     23  O         24.7740  -23.6560  -10.7630 O.2     1  UNL1       -0.3440
     24  H         25.7000  -23.3800  -10.6740 H       1  UNL1        0.2190
     25  C         18.5620  -23.8780   -7.8750 C.3     1  UNL1        0.3110
     26  C         18.3250  -23.2900   -6.5000 C.2     1  UNL1       -0.0300
     27  C         18.7650  -21.9970   -6.1880 C.2     1  UNL1        0.0090
     28  C         18.5240  -21.4530   -4.9250 C.2     1  UNL1        0.0010
     29  C         17.8370  -22.1940   -3.9640 C.2     1  UNL1        0.0000
     30  C         17.3990  -23.4810   -4.2620 C.2     1  UNL1        0.0010
     31  C         17.6400  -24.0270   -5.5220 C.2     1  UNL1        0.0090
@<TRIPOS>BOND
     1    20    19    1
     2    18    19    2
     3    18    17    1
     4    19    21    1
     5    17    16    2
     6    21    22    1
     7    21    15    2
     8    16    15    1
     9    15     3    1
    10    14     4    1
    11     3     4    1
    12     3     2    1
    13     4     5    1
    14     2     1    2
    15     5     6   ar
    16     5     9   ar
    17     6     7   ar
    18     1     9    1
    19     1    23    1
    20     9     8   ar
    21    23    24    1
    22     7     8   ar
    23     7    13    1
    24     8    10    1
    25    13    12    1
    26    10    11    1
    27    11    12    1
    28    12    25    1
    29    25    26    1
    30    26    27    2
    31    26    31    1
    32    27    28    1
    33    31    30    2
    34    28    29    2
    35    30    29    1
