@<TRIPOS>MOLECULE
80433_out_ligand_01.pdbqt
 39 44 0 0 0
SMALL
GASTEIGER

@<TRIPOS>ATOM
      1  C         19.4100  -23.3970   -8.1930 C.3     1  UNL1        0.2430
      2  N         20.7060  -24.0990   -8.1720 N.2     1  UNL1       -0.2350
      3  C         21.5300  -23.8170   -9.1110 C.2     1  UNL1        0.1730
      4  C         21.2980  -22.8730  -10.1700 C.ar    1  UNL1        0.0570
      5  C         20.0590  -22.2830  -10.2200 C.ar    1  UNL1        0.0870
      6  S         19.8990  -21.1750  -11.4960 S.2     1  UNL1       -0.0740
      7  C         21.4860  -21.4910  -12.0280 C.ar    1  UNL1        0.0200
      8  C         22.1430  -22.4040  -11.2240 C.ar    1  UNL1       -0.0240
      9  C         23.5550  -22.7950  -11.5350 C.3     1  UNL1        0.0710
     10  C         24.2050  -21.7980  -12.5240 C.3     1  UNL1        0.2780
     11  N         23.3230  -21.4900  -13.6720 N.3     1  UNL1        0.0970
     12  C         22.0880  -20.8000  -13.2200 C.3     1  UNL1        0.3190
     13  N         19.0850  -22.5680   -9.3380 N.pl3   1  UNL1       -0.3570
     14  H         18.2660  -21.9750   -9.2520 H       1  UNL1        0.1620
     15  C         19.2260  -22.5660   -6.9290 C.2     1  UNL1       -0.0120
     16  C         20.0130  -21.4240   -6.6910 C.2     1  UNL1        0.0110
     17  C         19.8270  -20.6500   -5.5410 C.2     1  UNL1        0.0030
     18  C         18.8410  -20.9980   -4.6200 C.2     1  UNL1        0.0370
     19  C         18.0430  -22.1110   -4.8660 C.2     1  UNL1        0.0800
     20  C         18.2350  -22.9080   -5.9950 C.2     1  UNL1        0.0480
     21  O         17.0870  -22.4560   -3.9060 O.3     1  UNL1       -0.2760
     22  C         15.7790  -22.3550   -4.3410 C.2     1  UNL1        0.2880
     23  O         14.7830  -22.1540   -3.6600 O.2     1  UNL1       -0.2600
     24  C         15.6920  -22.5310   -5.8060 C.2     1  UNL1        0.0850
     25  C         15.5330  -23.7100   -6.4230 C.2     1  UNL1        0.0430
     26  C         15.4620  -23.7810   -7.8420 C.2     1  UNL1        0.0750
     27  C         15.0800  -24.8540   -8.6380 C.2     1  UNL1        0.0390
     28  C         15.1710  -24.4480   -9.9920 C.2     1  UNL1        0.0270
     29  C         15.6010  -23.1480   -9.9630 C.2     1  UNL1        0.1420
     30  O         15.7790  -22.7370   -8.6850 O.2     1  UNL1       -0.3230
     31  O         22.7200  -24.4440   -9.1030 O.2     1  UNL1       -0.3440
     32  H         23.3930  -23.7560   -8.9690 H       1  UNL1        0.2190
     33  C         24.0440  -20.6760  -14.6650 C.3     1  UNL1        0.3110
     34  C         24.4860  -21.4620  -15.8820 C.2     1  UNL1       -0.0300
     35  C         24.1680  -22.8210  -16.0110 C.2     1  UNL1        0.0090
     36  C         24.5700  -23.5370  -17.1400 C.2     1  UNL1        0.0010
     37  C         25.2900  -22.9030  -18.1530 C.2     1  UNL1        0.0000
     38  C         25.6100  -21.5510  -18.0370 C.2     1  UNL1        0.0010
     39  C         25.2100  -20.8340  -16.9090 C.2     1  UNL1        0.0090
@<TRIPOS>BOND
     1    37    38    2
     2    37    36    1
     3    38    39    1
     4    36    35    2
     5    39    34    2
     6    35    34    1
     7    34    33    1
     8    33    11    1
     9    11    12    1
    10    11    10    1
    11    12     7    1
    12    10     9    1
    13     7     6   ar
    14     7     8   ar
    15     9     8    1
    16     6     5   ar
    17     8     4   ar
    18     5     4   ar
    19     5    13    1
    20     4     3    1
    21    28    29    2
    22    28    27    1
    23    29    30    1
    24    13    14    1
    25    13     1    1
    26     3    31    1
    27     3     2    2
    28    31    32    1
    29    30    26    1
    30    27    26    2
    31     1     2    1
    32     1    15    1
    33    26    25    1
    34    15    16    2
    35    15    20    1
    36    16    17    1
    37    25    24    2
    38    20    19    2
    39    24    22    1
    40    17    18    2
    41    19    18    1
    42    19    21    1
    43    22    21    1
    44    22    23    2
