@<TRIPOS>MOLECULE
80432_out_ligand_01.pdbqt
 40 45 0 0 0
SMALL
GASTEIGER

@<TRIPOS>ATOM
      1  C         22.0710  -21.7290  -10.9510 C.3     1  UNL1        0.2430
      2  N         21.0160  -21.0960  -11.7600 N.2     1  UNL1       -0.2350
      3  C         19.8080  -21.3620  -11.4260 C.2     1  UNL1        0.1730
      4  C         19.4150  -22.2510  -10.3660 C.ar    1  UNL1        0.0570
      5  C         20.4130  -22.9650   -9.7470 C.ar    1  UNL1        0.0870
      6  S         19.8400  -23.9840   -8.5170 S.2     1  UNL1       -0.0740
      7  C         18.2340  -23.4870   -8.7930 C.ar    1  UNL1        0.0200
      8  C         18.1330  -22.5540   -9.8110 C.ar    1  UNL1       -0.0240
      9  C         16.8000  -21.9680  -10.1720 C.3     1  UNL1        0.0710
     10  C         15.6440  -22.7400   -9.4920 C.3     1  UNL1        0.2780
     11  N         15.8830  -23.1500   -8.0850 N.3     1  UNL1        0.0970
     12  C         17.0720  -24.0360   -8.0150 C.3     1  UNL1        0.3190
     13  N         21.7050  -22.8580  -10.1110 N.pl3   1  UNL1       -0.3570
     14  H         22.4390  -23.2140   -9.5070 H       1  UNL1        0.1620
     15  C         23.2250  -22.1290  -11.8620 C.2     1  UNL1       -0.0120
     16  C         24.2070  -23.0210  -11.3910 C.2     1  UNL1        0.0500
     17  C         25.2930  -23.3660  -12.1950 C.2     1  UNL1        0.1030
     18  C         25.3930  -22.8460  -13.4860 C.2     1  UNL1        0.1130
     19  C         24.4360  -21.9570  -13.9730 C.2     1  UNL1        0.0410
     20  C         23.3700  -21.5840  -13.1520 C.2     1  UNL1        0.0140
     21  O         26.2090  -24.2680  -11.7250 O.2     1  UNL1       -0.3490
     22  C         27.0210  -23.6800  -10.7010 C.3     1  UNL1        0.1710
     23  C         26.9970  -24.5980   -9.4910 C.3     1  UNL1        0.0340
     24  O         26.4140  -23.2690  -14.3380 O.3     1  UNL1       -0.2710
     25  C         26.0160  -24.2510  -15.2390 C.2     1  UNL1        0.3220
     26  O         26.1110  -25.4610  -15.0630 O.2     1  UNL1       -0.2570
     27  C         25.4580  -23.6100  -16.4080 C.2     1  UNL1        0.1500
     28  C         24.2290  -23.7140  -17.0400 C.2     1  UNL1        0.0450
     29  C         24.2620  -22.8380  -18.1530 C.2     1  UNL1        0.0270
     30  C         25.5010  -22.2440  -18.1340 C.2     1  UNL1        0.1430
     31  O         26.2330  -22.7060  -17.0890 O.2     1  UNL1       -0.3170
     32  O         18.8220  -20.7700  -12.1220 O.2     1  UNL1       -0.3440
     33  H         19.1760  -19.9210  -12.4340 H       1  UNL1        0.2190
     34  C         16.0370  -22.0090   -7.1630 C.3     1  UNL1        0.3110
     35  C         16.4160  -22.4080   -5.7520 C.2     1  UNL1       -0.0300
     36  C         17.6850  -22.0980   -5.2410 C.2     1  UNL1        0.0090
     37  C         18.0410  -22.4870   -3.9470 C.2     1  UNL1        0.0010
     38  C         17.1360  -23.1880   -3.1530 C.2     1  UNL1        0.0000
     39  C         15.8710  -23.5010   -3.6500 C.2     1  UNL1        0.0010
     40  C         15.5130  -23.1150   -4.9420 C.2     1  UNL1        0.0090
@<TRIPOS>BOND
     1    29    30    2
     2    29    28    1
     3    30    31    1
     4    31    27    1
     5    28    27    2
     6    27    25    1
     7    25    26    2
     8    25    24    1
     9    24    18    1
    10    19    18    2
    11    19    20    1
    12    18    17    1
    13    20    15    2
    14    33    32    1
    15    17    21    1
    16    17    16    2
    17    32     3    1
    18    15    16    1
    19    15     1    1
    20     2     3    2
    21     2     1    1
    22    21    22    1
    23     3     4    1
    24     1    13    1
    25    22    23    1
    26     4     8   ar
    27     4     5   ar
    28     9     8    1
    29     9    10    1
    30    13     5    1
    31    13    14    1
    32     8     7   ar
    33     5     6   ar
    34    10    11    1
    35     7     6   ar
    36     7    12    1
    37    11    12    1
    38    11    34    1
    39    34    35    1
    40    35    36    2
    41    35    40    1
    42    36    37    1
    43    40    39    2
    44    37    38    2
    45    39    38    1
