@<TRIPOS>MOLECULE
80444_out_ligand_01.pdbqt
 39 44 0 0 0
SMALL
GASTEIGER

@<TRIPOS>ATOM
      1  C         20.8500  -23.9190   -8.8530 C.3     1  UNL1        0.2430
      2  N         22.2060  -24.3230   -8.4350 N.2     1  UNL1       -0.2350
      3  C         23.1790  -23.8930   -9.1460 C.2     1  UNL1        0.1730
      4  C         23.0540  -23.0770  -10.3240 C.ar    1  UNL1        0.0570
      5  C         21.7810  -22.8520  -10.7910 C.ar    1  UNL1        0.0870
      6  S         21.7480  -21.8820  -12.1850 S.2     1  UNL1       -0.0740
      7  C         23.4460  -21.7460  -12.1870 C.ar    1  UNL1        0.0200
      8  C         24.0350  -22.4300  -11.1370 C.ar    1  UNL1       -0.0240
      9  C         25.5250  -22.4420  -10.9830 C.3     1  UNL1        0.0710
     10  C         26.1870  -21.3800  -11.8920 C.3     1  UNL1        0.2780
     11  N         25.6330  -21.2830  -13.2630 N.3     1  UNL1        0.0970
     12  C         24.1890  -20.9380  -13.2110 C.3     1  UNL1        0.3190
     13  N         20.6880  -23.3550  -10.1860 N.pl3   1  UNL1       -0.3570
     14  H         19.7560  -23.0420  -10.4300 H       1  UNL1        0.1620
     15  C         20.2290  -23.0190   -7.7880 C.2     1  UNL1       -0.0120
     16  C         20.8180  -21.8070   -7.3830 C.2     1  UNL1        0.0110
     17  C         20.2370  -21.0230   -6.3830 C.2     1  UNL1        0.0030
     18  C         19.0710  -21.4460   -5.7550 C.2     1  UNL1        0.0370
     19  C         18.4890  -22.6500   -6.1380 C.2     1  UNL1        0.0800
     20  C         19.0590  -23.4410   -7.1330 C.2     1  UNL1        0.0480
     21  O         17.3940  -23.1020   -5.3900 O.3     1  UNL1       -0.2750
     22  C         16.1410  -22.6940   -5.8100 C.2     1  UNL1        0.2980
     23  O         15.3030  -22.0810   -5.1650 O.2     1  UNL1       -0.2590
     24  C         15.9270  -23.1320   -7.2170 C.2     1  UNL1        0.0420
     25  C         15.5720  -24.4500   -7.5480 C.2     1  UNL1        0.0180
     26  C         15.3990  -24.8170   -8.8840 C.2     1  UNL1        0.0040
     27  C         15.5740  -23.8730   -9.8930 C.2     1  UNL1        0.0420
     28  C         15.9200  -22.5680   -9.5590 C.2     1  UNL1        0.1170
     29  F         16.0810  -21.6620  -10.5330 F       1  UNL1       -0.2060
     30  C         16.1000  -22.1880   -8.2350 C.2     1  UNL1        0.0590
     31  O         24.4240  -24.2340   -8.7700 O.2     1  UNL1       -0.3440
     32  H         24.3370  -24.6950   -7.9190 H       1  UNL1        0.2190
     33  C         25.8760  -22.5140  -14.0310 C.3     1  UNL1        0.3110
     34  C         25.4460  -22.4000  -15.4780 C.2     1  UNL1       -0.0300
     35  C         25.8320  -21.2950  -16.2510 C.2     1  UNL1        0.0090
     36  C         25.4270  -21.1850  -17.5810 C.2     1  UNL1        0.0010
     37  C         24.6330  -22.1820  -18.1530 C.2     1  UNL1        0.0000
     38  C         24.2470  -23.2830  -17.3990 C.2     1  UNL1        0.0010
     39  C         24.6460  -23.3920  -16.0660 C.2     1  UNL1        0.0090
@<TRIPOS>BOND
     1    37    36    2
     2    37    38    1
     3    36    35    1
     4    38    39    2
     5    35    34    2
     6    39    34    1
     7    34    33    1
     8    33    11    1
     9    11    12    1
    10    11    10    1
    11    12     7    1
    12     7     6   ar
    13     7     8   ar
    14     6     5   ar
    15    10     9    1
    16     8     9    1
    17     8     4   ar
    18     5     4   ar
    19     5    13    1
    20    29    28    1
    21    14    13    1
    22     4     3    1
    23    13     1    1
    24    27    28    2
    25    27    26    1
    26    28    30    1
    27     3    31    1
    28     3     2    2
    29    26    25    2
    30     1     2    1
    31     1    15    1
    32    31    32    1
    33    30    24    2
    34    15    16    2
    35    15    20    1
    36    25    24    1
    37    16    17    1
    38    24    22    1
    39    20    19    2
    40    17    18    2
    41    19    18    1
    42    19    21    1
    43    22    21    1
    44    22    23    2
