@<TRIPOS>MOLECULE
80441_out_ligand_01.pdbqt
 35 39 0 0 0
SMALL
GASTEIGER

@<TRIPOS>ATOM
      1  C         22.2020  -21.6330  -11.5870 C.3     1  UNL1        0.2460
      2  N         20.9830  -21.0880  -12.2280 N.2     1  UNL1       -0.2350
      3  C         19.8740  -21.4420  -11.6910 C.2     1  UNL1        0.1730
      4  C         19.7380  -22.3550  -10.5880 C.ar    1  UNL1        0.0570
      5  C         20.8670  -23.0400  -10.2070 C.ar    1  UNL1        0.0870
      6  S         20.5980  -24.0980   -8.9090 S.2     1  UNL1       -0.0740
      7  C         18.9520  -23.6660   -8.8390 C.ar    1  UNL1        0.0200
      8  C         18.6110  -22.7160   -9.7860 C.ar    1  UNL1       -0.0240
      9  C         17.2020  -22.2190   -9.8770 C.3     1  UNL1        0.0710
     10  C         16.4070  -22.5690   -8.5970 C.3     1  UNL1        0.2780
     11  N         16.5940  -23.9780   -8.1850 N.3     1  UNL1        0.0970
     12  C         18.0090  -24.2400   -7.8180 C.3     1  UNL1        0.3190
     13  N         22.0520  -22.8700  -10.8290 N.pl3   1  UNL1       -0.3570
     14  H         22.8980  -23.1770  -10.3600 H       1  UNL1        0.1620
     15  C         23.2760  -21.8580  -12.6330 C.2     1  UNL1        0.0230
     16  C         24.3250  -22.7580  -12.3820 C.2     1  UNL1        0.0330
     17  C         25.3200  -22.9710  -13.3360 C.2     1  UNL1        0.0140
     18  C         25.2970  -22.3010  -14.5600 C.2     1  UNL1        0.0580
     19 BR         26.7280  -24.1780  -12.9620 Br      1  UNL1       -0.0510
     20  C         24.2680  -21.4030  -14.8290 C.2     1  UNL1        0.1030
     21  C         23.2770  -21.1810  -13.8560 C.2     1  UNL1        0.1090
     22  O         24.1180  -20.6600  -15.9730 O.2     1  UNL1       -0.3490
     23  C         25.2180  -20.5790  -16.8800 C.3     1  UNL1        0.1710
     24  C         24.9260  -21.3610  -18.1500 C.3     1  UNL1        0.0340
     25  O         22.2940  -20.2630  -14.1240 O.2     1  UNL1       -0.3570
     26  H         22.5080  -19.4900  -13.5640 H       1  UNL1        0.2170
     27  O         18.7410  -20.9280  -12.2010 O.2     1  UNL1       -0.3440
     28  H         18.6290  -21.3270  -13.0800 H       1  UNL1        0.2190
     29  C         15.6920  -24.3060   -7.0680 C.3     1  UNL1        0.3110
     30  C         16.0750  -23.6350   -5.7670 C.2     1  UNL1       -0.0300
     31  C         17.3380  -23.8440   -5.1960 C.2     1  UNL1        0.0090
     32  C         17.6870  -23.2110   -4.0020 C.2     1  UNL1        0.0010
     33  C         16.7800  -22.3630   -3.3680 C.2     1  UNL1        0.0000
     34  C         15.5210  -22.1490   -3.9250 C.2     1  UNL1        0.0010
     35  C         15.1690  -22.7840   -5.1190 C.2     1  UNL1        0.0090
@<TRIPOS>BOND
     1    24    23    1
     2    23    22    1
     3    22    20    1
     4    20    18    2
     5    20    21    1
     6    18    17    1
     7    25    21    1
     8    25    26    1
     9    21    15    2
    10    17    19    1
    11    17    16    2
    12    28    27    1
    13    15    16    1
    14    15     1    1
    15     2     3    2
    16     2     1    1
    17    27     3    1
    18     3     4    1
    19     1    13    1
    20    13    14    1
    21    13     5    1
    22     4     5   ar
    23     4     8   ar
    24     5     6   ar
    25     9     8    1
    26     9    10    1
    27     8     7   ar
    28     6     7   ar
    29     7    12    1
    30    10    11    1
    31    11    12    1
    32    11    29    1
    33    29    30    1
    34    30    31    2
    35    30    35    1
    36    31    32    1
    37    35    34    2
    38    32    33    2
    39    34    33    1
