@<TRIPOS>MOLECULE
80449_out_ligand_01.pdbqt
 34 38 0 0 0
SMALL
GASTEIGER

@<TRIPOS>ATOM
      1  C         18.9600  -23.7360   -8.2220 C.3     1  UNL1        0.2460
      2  N         18.3670  -23.0080   -9.3630 N.2     1  UNL1       -0.2350
      3  C         19.1650  -22.6290  -10.2880 C.2     1  UNL1        0.1730
      4  C         20.5860  -22.8390  -10.3010 C.ar    1  UNL1        0.0570
      5  C         21.1170  -23.5760   -9.2720 C.ar    1  UNL1        0.0870
      6  S         22.8090  -23.7060   -9.3500 S.2     1  UNL1       -0.0740
      7  C         22.8590  -22.7850  -10.7810 C.ar    1  UNL1        0.0200
      8  C         21.6030  -22.3920  -11.2050 C.ar    1  UNL1       -0.0240
      9  C         21.4540  -21.5590  -12.4410 C.3     1  UNL1        0.0710
     10  C         22.7540  -21.5640  -13.2800 C.3     1  UNL1        0.2780
     11  N         23.9620  -21.3530  -12.4520 N.3     1  UNL1        0.0970
     12  C         24.1450  -22.4740  -11.4950 C.3     1  UNL1        0.3190
     13  N         20.3620  -24.1220   -8.2990 N.pl3   1  UNL1       -0.3570
     14  H         20.8050  -24.3870   -7.4260 H       1  UNL1        0.1620
     15  C         18.7420  -22.9910   -6.9140 C.2     1  UNL1        0.0220
     16  C         19.3900  -21.7650   -6.6900 C.2     1  UNL1        0.0140
     17  C         19.2020  -21.0630   -5.5000 C.2     1  UNL1        0.0040
     18  C         18.3670  -21.5740   -4.5030 C.2     1  UNL1        0.0400
     19  C         17.7230  -22.7970   -4.6860 C.2     1  UNL1        0.1020
     20  C         17.9240  -23.4960   -5.8900 C.2     1  UNL1        0.1090
     21  O         16.9090  -23.4100   -3.7710 O.2     1  UNL1       -0.3490
     22  C         15.7450  -22.7370   -3.2980 C.3     1  UNL1        0.1710
     23  C         14.8500  -22.3160   -4.4540 C.3     1  UNL1        0.0340
     24  O         17.2850  -24.7000   -6.0470 O.2     1  UNL1       -0.3570
     25  H         17.3230  -24.9220   -6.9940 H       1  UNL1        0.2170
     26  O         18.6370  -21.9590  -11.3290 O.2     1  UNL1       -0.3440
     27  H         17.9840  -21.3440  -10.9560 H       1  UNL1        0.2190
     28  C         25.1480  -21.1990  -13.3090 C.3     1  UNL1        0.3110
     29  C         25.0280  -21.9050  -14.6420 C.2     1  UNL1       -0.0300
     30  C         25.1270  -23.3030  -14.7190 C.2     1  UNL1        0.0090
     31  C         25.0260  -23.9550  -15.9480 C.2     1  UNL1        0.0010
     32  C         24.8300  -23.2190  -17.1150 C.2     1  UNL1        0.0000
     33  C         24.7330  -21.8300  -17.0530 C.2     1  UNL1        0.0010
     34  C         24.8320  -21.1740  -15.8240 C.2     1  UNL1        0.0090
@<TRIPOS>BOND
     1    32    33    2
     2    32    31    1
     3    33    34    1
     4    31    30    2
     5    34    29    2
     6    30    29    1
     7    29    28    1
     8    28    11    1
     9    10    11    1
    10    10     9    1
    11    11    12    1
    12     9     8    1
    13    12     7    1
    14    26    27    1
    15    26     3    1
    16     8     7   ar
    17     8     4   ar
    18     7     6   ar
    19     4     3    1
    20     4     5   ar
    21     3     2    2
    22     2     1    1
    23     6     5   ar
    24     5    13    1
    25    13     1    1
    26    13    14    1
    27     1    15    1
    28    25    24    1
    29    15    16    2
    30    15    20    1
    31    16    17    1
    32    24    20    1
    33    20    19    2
    34    17    18    2
    35    19    18    1
    36    19    21    1
    37    23    22    1
    38    21    22    1
