@<TRIPOS>MOLECULE
80452_out_ligand_01.pdbqt
 36 40 0 0 0
SMALL
GASTEIGER

@<TRIPOS>ATOM
      1  C         22.8030  -22.5930  -10.5510 C.2     1  UNL1        0.0750
      2  C         22.9860  -23.3310   -9.3790 C.2     1  UNL1        0.0270
      3  C         21.8720  -23.7550   -8.6530 C.2     1  UNL1        0.0310
      4  C         20.5750  -23.4690   -9.0950 C.2     1  UNL1        0.0350
      5  C         20.4040  -22.7020  -10.2780 C.2     1  UNL1       -0.0220
      6  C         21.5220  -22.2890  -11.0150 C.2     1  UNL1        0.0350
      7  C         18.9970  -22.4780  -10.7560 C.3     1  UNL1        0.0500
      8  C         18.6040  -21.2700  -11.5480 C.3     1  UNL1       -0.0210
      9  C         17.3510  -20.8980  -11.2260 C.3     1  UNL1       -0.0290
     10  C         16.7910  -21.7590  -10.1240 C.3     1  UNL1        0.0350
     11  C         18.0910  -22.2900   -9.5350 C.3     1  UNL1        0.0280
     12  C         18.1090  -23.5920   -8.7410 C.3     1  UNL1        0.1210
     13  N         19.4940  -23.8190   -8.2740 N.pl3   1  UNL1       -0.3800
     14  H         19.6300  -24.6590   -7.7050 H       1  UNL1        0.1600
     15  S         24.2300  -22.0580  -11.4600 S.O2    1  UNL1        0.2450
     16  O         24.9130  -21.0680  -10.6550 O.2     1  UNL1       -0.2060
     17  O         24.9060  -23.2270  -11.9810 O.2     1  UNL1       -0.2060
     18  N         23.4780  -21.3170  -12.8020 N.pl3   1  UNL1       -0.1810
     19  H         22.6570  -21.8870  -13.0210 H       1  UNL1        0.1460
     20  C         24.3250  -21.1900  -13.9490 C.2     1  UNL1        0.0230
     21  C         25.3630  -20.2570  -13.9150 C.2     1  UNL1        0.0240
     22  C         26.2180  -20.1350  -15.0080 C.2     1  UNL1        0.0030
     23  C         26.0540  -20.9590  -16.1180 C.2     1  UNL1        0.0160
     24  C         25.0330  -21.9260  -16.1470 C.2     1  UNL1        0.0490
     25  C         24.1730  -22.0380  -15.0450 C.2     1  UNL1        0.0400
     26  C         24.9000  -22.8510  -17.3330 C.3     1  UNL1        0.4170
     27  F         23.8570  -22.5350  -18.1530 F       1  UNL1       -0.1660
     28  F         26.0090  -22.8470  -18.1280 F       1  UNL1       -0.1660
     29  F         24.7070  -24.1460  -16.9590 F       1  UNL1       -0.1660
     30  C         17.1870  -23.5310   -7.5320 C.2     1  UNL1       -0.0180
     31  C         16.0180  -24.3250   -7.5170 C.2     1  UNL1        0.0110
     32  C         15.1450  -24.3220   -6.4280 C.2     1  UNL1        0.0010
     33  C         15.4220  -23.5270   -5.3220 C.2     1  UNL1        0.0010
     34  C         16.5730  -22.7380   -5.3070 C.2     1  UNL1        0.0190
     35  C         17.4540  -22.7410   -6.3990 C.2     1  UNL1        0.0190
     36 BR         18.9970  -21.6400   -6.2420 Br      1  UNL1       -0.0500
@<TRIPOS>BOND
     1    27    26    1
     2    28    26    1
     3    26    29    1
     4    26    24    1
     5    24    23    2
     6    24    25    1
     7    23    22    1
     8    25    20    2
     9    22    21    2
    10    20    21    1
    11    20    18    1
    12    19    18    1
    13    18    15    1
    14    17    15    2
    15     8     9    1
    16     8     7    1
    17    15    16    2
    18    15     1    1
    19     9    10    1
    20     6     1    2
    21     6     5    1
    22     7     5    1
    23     7    11    1
    24     1     2    1
    25     5     4    2
    26    10    11    1
    27    11    12    1
    28     2     3    2
    29     4     3    1
    30     4    13    1
    31    12    13    1
    32    12    30    1
    33    13    14    1
    34    30    31    2
    35    30    35    1
    36    31    32    1
    37    32    33    2
    38    35    36    1
    39    35    34    2
    40    33    34    1
