@<TRIPOS>MOLECULE
80455_out_ligand_01.pdbqt
 33 38 0 0 0
SMALL
GASTEIGER

@<TRIPOS>ATOM
      1  C         23.3810  -22.7620  -11.3470 C.2     1  UNL1       -0.0400
      2  C         22.8410  -23.3150  -10.1750 C.2     1  UNL1        0.0100
      3  C         21.4940  -23.1320   -9.8600 C.2     1  UNL1        0.0260
      4  C         20.6800  -22.3990  -10.7250 C.2     1  UNL1        0.0790
      5  C         21.1950  -21.8610  -11.9080 C.2     1  UNL1        0.0260
      6  C         22.5440  -22.0460  -12.2160 C.2     1  UNL1        0.0100
      7  S         18.9720  -22.1360  -10.3290 S.O2    1  UNL1        0.2590
      8  O         18.6020  -20.8620  -10.9070 O.2     1  UNL1       -0.2010
      9  O         18.2280  -23.3420  -10.6140 O.2     1  UNL1       -0.2010
     10  N         18.9970  -21.8940   -8.6710 N.3     1  UNL1       -0.3050
     11  H         19.3220  -20.9560   -8.4360 H       1  UNL1        0.1730
     12  C         18.1200  -22.5720   -7.6990 C.3     1  UNL1        0.0410
     13  C         18.3790  -24.0860   -7.5750 C.3     1  UNL1        0.0360
     14  C         17.4610  -24.7010   -6.5010 C.3     1  UNL1       -0.0120
     15  C         15.9930  -24.4490   -6.8870 C.3     1  UNL1        0.0090
     16  C         17.7520  -24.0380   -5.1450 C.3     1  UNL1        0.0090
     17  C         15.7220  -22.9370   -6.9790 C.3     1  UNL1       -0.0120
     18  C         16.0240  -22.2830   -5.6190 C.3     1  UNL1        0.0090
     19  C         16.6380  -22.3220   -8.0530 C.3     1  UNL1        0.0360
     20  C         17.4930  -22.5260   -5.2350 C.3     1  UNL1       -0.0120
     21  C         18.4020  -21.9230   -6.3180 C.3     1  UNL1        0.0360
     22  C         24.8370  -22.9770  -11.6940 C.3     1  UNL1        0.1740
     23  N         25.3320  -21.9400  -12.5690 N.am    1  UNL1       -0.2760
     24  C         25.3640  -22.0410  -13.9320 C.2     1  UNL1        0.2620
     25  C         25.9640  -20.8020  -14.4230 C.2     1  UNL1        0.0480
     26  O         24.9830  -22.9470  -14.6470 O.2     1  UNL1       -0.2670
     27  C         26.2260  -20.3850  -15.7140 C.2     1  UNL1        0.0180
     28  C         26.2630  -20.0170  -13.3240 C.2     1  UNL1        0.0480
     29  C         26.8130  -19.1270  -15.8720 C.2     1  UNL1        0.0010
     30  C         27.1210  -18.3270  -14.7520 C.2     1  UNL1        0.0010
     31  C         26.8450  -18.7710  -13.4540 C.2     1  UNL1        0.0180
     32  C         25.8520  -20.7540  -12.1300 C.2     1  UNL1        0.2620
     33  O         25.9640  -20.3360  -10.9930 O.2     1  UNL1       -0.2670
@<TRIPOS>BOND
     1    29    27    1
     2    29    30    2
     3    27    25    2
     4    30    31    1
     5    26    24    2
     6    25    24    1
     7    25    28    1
     8    24    23   am
     9    31    28    2
    10    28    32    1
    11    23    32   am
    12    23    22    1
    13     6     5    1
    14     6     1    2
    15    32    33    2
    16     5     4    2
    17    22     1    1
    18     1     2    1
    19     8     7    2
    20     4     7    1
    21     4     3    1
    22     9     7    2
    23     7    10    1
    24     2     3    2
    25    10    11    1
    26    10    12    1
    27    19    12    1
    28    19    17    1
    29    12    13    1
    30    12    21    1
    31    13    14    1
    32    17    15    1
    33    17    18    1
    34    15    14    1
    35    14    16    1
    36    21    20    1
    37    18    20    1
    38    20    16    1
