@<TRIPOS>MOLECULE
80454_out_ligand_01.pdbqt
 32 35 0 0 0
SMALL
GASTEIGER

@<TRIPOS>ATOM
      1  C         21.4000  -22.0160  -11.7980 C.2     1  UNL1        0.0350
      2  C         20.6110  -21.0170  -12.3870 C.2     1  UNL1        0.0290
      3  C         19.3720  -20.6660  -11.8450 C.2     1  UNL1        0.0030
      4  C         18.9080  -21.3110  -10.7030 C.2     1  UNL1        0.0170
      5  C         19.6900  -22.3060  -10.1050 C.2     1  UNL1        0.0340
      6  C         20.9270  -22.6670  -10.6580 C.2     1  UNL1        0.0460
      7  C         19.2080  -23.0170   -8.8910 C.2     1  UNL1        0.2560
      8  O         19.8230  -24.0050   -8.5150 O.2     1  UNL1       -0.2670
      9  N         18.0960  -22.4350   -8.3090 N.am    1  UNL1       -0.3220
     10  H         17.8150  -21.5500   -8.6980 H       1  UNL1        0.1690
     11  C         17.3560  -22.8880   -7.1830 C.2     1  UNL1        0.0460
     12  C         16.3200  -23.8200   -7.3270 C.2     1  UNL1        0.0300
     13  C         15.5860  -24.2530   -6.2270 C.2     1  UNL1        0.0030
     14  C         15.8740  -23.7580   -4.9610 C.2     1  UNL1        0.0120
     15  C         16.8990  -22.8230   -4.7730 C.2     1  UNL1       -0.0240
     16  C         17.1600  -22.3440   -3.4790 C.2     1  UNL1        0.0120
     17  C         17.6640  -22.3690   -5.8820 C.2     1  UNL1        0.0010
     18  C         18.1720  -21.4170   -3.2450 C.2     1  UNL1        0.0010
     19  C         18.9380  -20.9570   -4.3050 C.2     1  UNL1        0.0010
     20  C         18.6890  -21.4250   -5.5990 C.2     1  UNL1        0.0140
     21  N         22.6340  -22.2980  -12.4170 N.am    1  UNL1       -0.3230
     22  C         23.9060  -22.1010  -11.9190 C.2     1  UNL1        0.2590
     23  O         24.1650  -21.5960  -10.8310 O.2     1  UNL1       -0.2670
     24  H         22.5890  -22.6750  -13.3580 H       1  UNL1        0.1690
     25  C         25.0530  -22.5370  -12.7980 C.2     1  UNL1        0.0650
     26  C         25.2150  -23.9280  -12.9540 C.2     1  UNL1        0.0200
     27  C         26.2370  -24.4530  -13.7430 C.2     1  UNL1        0.0010
     28  C         27.1140  -23.5940  -14.3920 C.2     1  UNL1        0.0030
     29  C         26.9720  -22.2110  -14.2500 C.2     1  UNL1        0.0380
     30  C         25.9500  -21.6660  -13.4570 C.2     1  UNL1        0.0840
     31  O         25.7750  -20.3140  -13.2870 O.2     1  UNL1       -0.3550
     32  C         25.5880  -19.5130  -14.4500 C.3     1  UNL1        0.2100
@<TRIPOS>BOND
     1    32    31    1
     2    28    29    2
     3    28    27    1
     4    29    30    1
     5    27    26    2
     6    30    31    1
     7    30    25    2
     8    24    21    1
     9    26    25    1
    10    25    22    1
    11    21    22   am
    12    21     1    1
    13     2     3    1
    14     2     1    2
    15    22    23    2
    16     3     4    2
    17     1     6    1
    18     4     5    1
    19     6     5    2
    20     5     7    1
    21     7     8    2
    22     7     9   am
    23    10     9    1
    24     9    11    1
    25    12    11    2
    26    12    13    1
    27    11    17    1
    28    13    14    2
    29    17    20    1
    30    17    15    2
    31    20    19    2
    32    14    15    1
    33    15    16    1
    34    19    18    1
    35    16    18    2
