@<TRIPOS>MOLECULE
80477_out_ligand_01.pdbqt
 33 35 0 0 0
SMALL
GASTEIGER

@<TRIPOS>ATOM
      1  C         18.8770  -22.4070  -10.2120 C.2     1  UNL1        0.0730
      2  C         18.4680  -21.4180  -11.1250 C.2     1  UNL1       -0.0420
      3  C         17.1020  -20.7960  -11.0760 C.3     1  UNL1        0.0490
      4  C         19.3870  -20.9730  -12.0800 C.2     1  UNL1        0.0340
      5  C         20.6510  -21.5410  -12.1260 C.2     1  UNL1        0.0320
      6  C         21.6500  -21.0690  -13.1400 C.3     1  UNL1        0.0700
      7  N         21.0480  -22.5140  -11.2710 N.2     1  UNL1       -0.2460
      8  C         20.1820  -22.9080  -10.2990 C.2     1  UNL1        0.1100
      9  S         20.8140  -24.1370   -9.1610 S.3     1  UNL1       -0.1000
     10  C         22.1180  -23.2080   -8.3050 C.3     1  UNL1        0.1840
     11  C         22.9510  -22.3540   -9.2580 C.2     1  UNL1        0.2310
     12  O         23.0240  -21.1340   -9.1230 O.2     1  UNL1       -0.2720
     13  N         23.6440  -23.1200  -10.1850 N.am    1  UNL1       -0.3270
     14  H         23.4790  -24.1190  -10.1560 H       1  UNL1        0.1690
     15  C         24.5240  -22.6790  -11.1940 C.2     1  UNL1        0.0350
     16  C         25.4520  -21.6520  -11.0310 C.2     1  UNL1        0.0300
     17  C         26.2780  -21.2720  -12.0970 C.2     1  UNL1        0.0090
     18  C         26.1920  -21.9140  -13.3480 C.2     1  UNL1       -0.0560
     19  C         27.1200  -21.4960  -14.4550 C.3     1  UNL1        0.0490
     20  C         25.2690  -22.9650  -13.5130 C.2     1  UNL1       -0.0540
     21  C         25.1470  -23.7110  -14.8190 C.3     1  UNL1        0.0490
     22  C         24.4380  -23.3240  -12.4360 C.2     1  UNL1        0.0370
     23  C         17.9130  -22.8860   -9.1870 C.2     1  UNL1        0.2590
     24  N         18.1460  -22.3900   -7.9170 N.am    1  UNL1       -0.3230
     25  H         18.8430  -21.6630   -7.8280 H       1  UNL1        0.1690
     26  O         17.0470  -23.6800   -9.5260 O.2     1  UNL1       -0.2670
     27  C         17.4140  -22.6740   -6.7430 C.2     1  UNL1        0.0350
     28  C         17.9040  -23.4320   -5.6830 C.2     1  UNL1        0.0290
     29  C         17.1150  -23.6640   -4.5510 C.2     1  UNL1        0.0030
     30  C         15.8200  -23.1540   -4.4810 C.2     1  UNL1        0.0070
     31  C         15.3110  -22.3860   -5.5290 C.2     1  UNL1       -0.0600
     32  C         13.9120  -21.8480   -5.4750 C.3     1  UNL1        0.0480
     33  C         16.1140  -22.1530   -6.6580 C.2     1  UNL1        0.0360
@<TRIPOS>BOND
     1    21    20    1
     2    19    18    1
     3    20    18    2
     4    20    22    1
     5    18    17    1
     6     6     5    1
     7    22    15    2
     8     5     4    2
     9     5     7    1
    10    17    16    2
    11     4     2    1
    12     7     8    2
    13    15    16    1
    14    15    13    1
    15     2     3    1
    16     2     1    2
    17     8     1    1
    18     8     9    1
    19     1    23    1
    20    13    14    1
    21    13    11   am
    22    26    23    2
    23    11    12    2
    24    11    10    1
    25    23    24   am
    26     9    10    1
    27    24    25    1
    28    24    27    1
    29    27    33    2
    30    27    28    1
    31    33    31    1
    32    28    29    2
    33    31    32    1
    34    31    30    2
    35    29    30    1
