@<TRIPOS>MOLECULE
80499_out_ligand_01.pdbqt
 32 35 0 0 0
SMALL
GASTEIGER

@<TRIPOS>ATOM
      1  C         19.8670  -21.0180  -12.3020 C.3     1  UNL1        0.0510
      2  C         20.9180  -21.7960  -11.5710 C.ar    1  UNL1       -0.0210
      3  C         20.7400  -22.4740  -10.3700 C.ar    1  UNL1        0.0820
      4  S         22.1390  -23.3490   -9.9080 S.2     1  UNL1       -0.0630
      5  C         23.0280  -22.7780  -11.2380 C.ar    1  UNL1        0.1160
      6  N         24.3220  -23.1340  -11.4250 N.2     1  UNL1       -0.2350
      7  C         24.8660  -22.6320  -12.4870 C.2     1  UNL1        0.2130
      8  N         24.2450  -21.7860  -13.3890 N.am    1  UNL1       -0.3050
      9  C         22.9150  -21.4010  -13.2280 C.2     1  UNL1        0.2620
     10  O         22.3240  -20.6610  -14.0090 O.2     1  UNL1       -0.2670
     11  C         22.2720  -21.9570  -12.0450 C.ar    1  UNL1        0.0750
     12  C         19.5730  -22.5490   -9.4950 C.2     1  UNL1        0.2630
     13  O         18.4250  -22.4950   -9.9210 O.2     1  UNL1       -0.2670
     14  N         19.9160  -22.7170   -8.1620 N.am    1  UNL1       -0.3230
     15  H         20.9010  -22.8540   -7.9730 H       1  UNL1        0.1690
     16  C         19.0570  -22.7920   -7.0480 C.2     1  UNL1        0.0350
     17  C         18.9080  -21.7750   -6.1020 C.2     1  UNL1        0.0300
     18  C         18.0350  -21.9290   -5.0170 C.2     1  UNL1        0.0190
     19  C         17.2940  -23.1060   -4.8700 C.2     1  UNL1        0.0320
     20  C         17.4530  -24.1330   -5.8040 C.2     1  UNL1        0.0190
     21  C         18.3260  -23.9760   -6.8850 C.2     1  UNL1        0.0300
     22  C         16.3540  -23.3200   -3.7370 C.2     1  UNL1        0.2490
     23  N         15.7750  -22.2150   -3.1760 N.am    1  UNL1       -0.3660
     24  H         15.7590  -21.3200   -3.6410 H       1  UNL1        0.1590
     25  H         15.0480  -22.3980   -2.4950 H       1  UNL1        0.1590
     26  O         16.0760  -24.4440   -3.3390 O.2     1  UNL1       -0.2680
     27  C         24.9850  -21.3120  -14.5550 C.3     1  UNL1        0.1650
     28  C         24.4880  -21.8980  -15.8850 C.3     1  UNL1        0.1400
     29  C         25.3470  -22.9840  -16.5100 C.3     1  UNL1        0.0350
     30  C         24.9090  -22.9100  -17.9530 C.3     1  UNL1        0.0290
     31  C         24.7410  -21.4180  -18.1530 C.3     1  UNL1        0.1680
     32  O         24.3570  -20.8660  -16.8820 O.3     1  UNL1       -0.3840
@<TRIPOS>BOND
     1    31    30    1
     2    31    32    1
     3    30    29    1
     4    32    28    1
     5    29    28    1
     6    28    27    1
     7    27     8    1
     8    10     9    2
     9     8     9   am
    10     8     7    1
    11     9    11    1
    12     7     6    2
    13     1     2    1
    14    11     2   ar
    15    11     5   ar
    16     2     3   ar
    17     6     5    1
    18     5     4   ar
    19     3     4   ar
    20     3    12    1
    21    13    12    2
    22    12    14   am
    23    14    15    1
    24    14    16    1
    25    16    21    2
    26    16    17    1
    27    21    20    1
    28    17    18    2
    29    20    19    2
    30    18    19    1
    31    19    22    1
    32    22    26    2
    33    22    23   am
    34    24    23    1
    35    23    25    1
