@<TRIPOS>MOLECULE
80498_out_ligand_01.pdbqt
 33 36 0 0 0
SMALL
GASTEIGER

@<TRIPOS>ATOM
      1  C         23.7140  -21.9120  -11.3920 C.2     1  UNL1        0.0750
      2  C         23.9840  -21.6420  -10.0490 C.2     1  UNL1        0.0270
      3  C         23.0230  -21.9320   -9.0760 C.2     1  UNL1        0.0310
      4  C         21.7980  -22.5040   -9.4350 C.2     1  UNL1        0.0350
      5  C         21.5490  -22.7870  -10.7860 C.2     1  UNL1        0.0310
      6  C         22.5030  -22.4970  -11.7650 C.2     1  UNL1        0.0270
      7  N         20.7790  -22.8180   -8.5150 N.am    1  UNL1       -0.3230
      8  C         19.4360  -22.5080   -8.6070 C.2     1  UNL1        0.2570
      9  O         18.8710  -21.8620   -9.4800 O.2     1  UNL1       -0.2670
     10  H         21.0690  -23.3210   -7.6840 H       1  UNL1        0.1690
     11  C         18.6320  -22.9930   -7.4590 C.2     1  UNL1        0.0430
     12  C         17.8990  -24.1680   -7.6720 C.2     1  UNL1        0.0180
     13  C         17.0710  -24.6580   -6.6710 C.2     1  UNL1        0.0020
     14  C         16.9770  -23.9780   -5.4570 C.2     1  UNL1        0.0120
     15  C         17.7220  -22.8100   -5.2160 C.2     1  UNL1       -0.0250
     16  C         17.6240  -22.1530   -3.9800 C.2     1  UNL1        0.0120
     17  C         18.5820  -22.3000   -6.2200 C.2     1  UNL1       -0.0100
     18  C         18.3730  -21.0070   -3.7130 C.2     1  UNL1        0.0010
     19  C         19.2380  -20.5080   -4.6780 C.2     1  UNL1        0.0010
     20  C         19.3460  -21.1480   -5.9130 C.2     1  UNL1        0.0130
     21  S         24.9360  -21.5700  -12.6350 S.O2    1  UNL1        0.2480
     22  O         25.5480  -22.8430  -12.9650 O.2     1  UNL1       -0.2050
     23  O         25.7640  -20.4610  -12.2070 O.2     1  UNL1       -0.2050
     24  N         24.0430  -21.1390  -13.9670 N.pl3   1  UNL1       -0.1480
     25  H         23.1190  -21.5530  -13.9850 H       1  UNL1        0.1490
     26  C         24.6810  -21.1890  -15.2000 C.cat   1  UNL1        0.2160
     27  N         24.2370  -22.1740  -15.9860 N.2     1  UNL1       -0.2230
     28  C         24.7240  -22.1860  -17.2430 C.2     1  UNL1        0.0360
     29  C         25.5910  -21.2160  -17.7100 C.2     1  UNL1        0.0530
     30  C         24.2820  -23.3000  -18.1440 C.3     1  UNL1        0.0700
     31  C         25.9360  -20.2130  -16.8240 C.2     1  UNL1        0.0360
     32  C         26.8560  -19.1070  -17.2490 C.3     1  UNL1        0.0700
     33  N         25.4650  -20.1760  -15.5650 N.2     1  UNL1       -0.2230
@<TRIPOS>BOND
     1    30    28    1
     2    29    28    2
     3    29    31    1
     4    32    31    1
     5    28    27    1
     6    31    33    2
     7    27    26    2
     8    33    26    1
     9    26    24    1
    10    25    24    1
    11    24    21    1
    12    22    21    2
    13    21    23    2
    14    21     1    1
    15     6     1    2
    16     6     5    1
    17     1     2    1
    18     5     4    2
    19     2     3    2
    20     9     8    2
    21     4     3    1
    22     4     7    1
    23     8     7   am
    24     8    11    1
    25     7    10    1
    26    12    11    2
    27    12    13    1
    28    11    17    1
    29    13    14    2
    30    17    20    1
    31    17    15    2
    32    20    19    2
    33    14    15    1
    34    15    16    1
    35    19    18    1
    36    16    18    2
