@<TRIPOS>MOLECULE
8051_out_ligand_01.pdbqt
 36 38 0 0 0
SMALL
GASTEIGER

@<TRIPOS>ATOM
      1  C         21.1220  -22.6710   -8.0780 C.2     1  UNL1        0.0910
      2  C         20.8390  -21.6090   -7.2110 C.2     1  UNL1        0.0400
      3  C         19.7070  -21.6510   -6.3880 C.2     1  UNL1        0.0280
      4  C         18.8470  -22.7510   -6.4420 C.2     1  UNL1        0.0810
      5  C         19.1160  -23.8230   -7.2940 C.2     1  UNL1        0.0520
      6  C         20.2470  -23.7740   -8.1120 C.2     1  UNL1        0.0680
      7 CL         20.5550  -25.1260   -9.1460 Cl      1  UNL1       -0.0810
      8  S         17.4230  -22.8220   -5.3820 S.O2    1  UNL1        0.2630
      9  O         17.1840  -24.2190   -5.0860 O.2     1  UNL1       -0.2000
     10  O         17.5940  -21.8510   -4.3240 O.2     1  UNL1       -0.2000
     11  N         16.1690  -22.3410   -6.3890 N.pl3   1  UNL1       -0.2810
     12  H         15.3040  -22.1500   -5.8850 H       1  UNL1        0.1790
     13  C         16.1050  -22.6760   -7.7710 C.2     1  UNL1        0.0430
     14  C         15.5030  -23.8420   -8.2430 C.2     1  UNL1        0.0300
     15  C         15.4970  -24.1290   -9.6080 C.2     1  UNL1        0.0030
     16  C         16.1190  -23.2660  -10.5080 C.2     1  UNL1        0.0160
     17  C         16.7700  -22.1120  -10.0490 C.2     1  UNL1        0.0500
     18  C         16.7550  -21.8290   -8.6720 C.2     1  UNL1        0.0460
     19  C         17.4570  -21.1710  -11.0090 C.3     1  UNL1        0.4170
     20  F         17.4330  -21.6260  -12.2920 F       1  UNL1       -0.1660
     21  F         18.7710  -20.9900  -10.7030 F       1  UNL1       -0.1660
     22  F         16.9000  -19.9270  -11.0440 F       1  UNL1       -0.1660
     23  O         22.2120  -22.7250   -8.9150 O.2     1  UNL1       -0.3400
     24  C         23.0430  -21.5740   -9.0180 C.3     1  UNL1        0.2780
     25  C         23.8930  -21.5100  -10.2930 C.2     1  UNL1        0.2460
     26  N         23.2490  -22.0780  -11.3800 N.am    1  UNL1       -0.3250
     27  H         22.3250  -22.4580  -11.1920 H       1  UNL1        0.1690
     28  O         24.9960  -20.9740  -10.2830 O.2     1  UNL1       -0.2710
     29  C         23.7430  -22.2540  -12.6860 C.2     1  UNL1        0.0350
     30  C         23.3710  -21.4670  -13.7720 C.2     1  UNL1        0.0300
     31  C         23.9300  -21.6960  -15.0320 C.2     1  UNL1        0.0090
     32  C         24.8640  -22.7210  -15.2370 C.2     1  UNL1       -0.0560
     33  C         25.4590  -22.9110  -16.6040 C.3     1  UNL1        0.0490
     34  C         25.2440  -23.5250  -14.1460 C.2     1  UNL1       -0.0540
     35  C         24.6810  -23.2780  -12.8820 C.2     1  UNL1        0.0370
     36  C         26.2490  -24.6360  -14.3010 C.3     1  UNL1        0.0490
@<TRIPOS>BOND
     1    33    32    1
     2    32    31    2
     3    32    34    1
     4    31    30    1
     5    36    34    1
     6    34    35    2
     7    30    29    2
     8    35    29    1
     9    29    26    1
    10    20    19    1
    11    26    27    1
    12    26    25   am
    13    22    19    1
    14    19    21    1
    15    19    17    1
    16    16    17    2
    17    16    15    1
    18    25    28    2
    19    25    24    1
    20    17    18    1
    21    15    14    2
    22     7     6    1
    23    24    23    1
    24    23     1    1
    25    18    13    2
    26    14    13    1
    27     6     1    2
    28     6     5    1
    29     1     2    1
    30    13    11    1
    31     5     4    2
    32     2     3    2
    33     4     3    1
    34     4     8    1
    35    11    12    1
    36    11     8    1
    37     8     9    2
    38     8    10    2
