@<TRIPOS>MOLECULE
80520_out_ligand_01.pdbqt
 30 32 0 0 0
SMALL
GASTEIGER

@<TRIPOS>ATOM
      1  N         18.2420  -22.0780  -10.5400 N.am    1  UNL1       -0.3570
      2  C         18.8860  -21.2150  -11.3930 C.2     1  UNL1        0.2520
      3  O         18.3320  -20.3170  -12.0140 O.2     1  UNL1       -0.2680
      4  H         18.7390  -22.9120  -10.2490 H       1  UNL1        0.1620
      5  C         16.7960  -22.0850  -10.4020 C.3     1  UNL1        0.1270
      6  C         16.2850  -23.3480   -9.7020 C.3     1  UNL1        0.0580
      7  C         16.4510  -23.3090   -8.1980 C.2     1  UNL1       -0.0570
      8  C         17.4790  -24.0410   -7.5820 C.2     1  UNL1        0.0090
      9  C         17.6190  -24.0320   -6.1950 C.2     1  UNL1        0.0250
     10  C         16.7320  -23.2820   -5.4190 C.2     1  UNL1        0.0740
     11  C         15.7000  -22.5560   -6.0140 C.2     1  UNL1        0.0250
     12  C         15.5640  -22.5690   -7.4040 C.2     1  UNL1        0.0090
     13  S         16.9100  -23.2840   -3.6540 S.O2    1  UNL1        0.2390
     14  O         18.1870  -22.6990   -3.3250 O.2     1  UNL1       -0.2060
     15  O         16.4900  -24.5730   -3.1530 O.2     1  UNL1       -0.2060
     16  N         15.7050  -22.2030   -3.1940 N.3     1  UNL1       -0.2250
     17  H         14.9450  -22.1340   -3.8690 H       1  UNL1        0.1360
     18  H         15.3670  -22.4620   -2.2650 H       1  UNL1        0.1360
     19  C         20.3360  -21.5110  -11.5600 C.2     1  UNL1        0.0490
     20  C         20.8560  -21.0920  -12.7260 C.2     1  UNL1        0.0920
     21  C         22.2540  -21.3960  -13.0930 C.2     1  UNL1        0.2460
     22  O         22.7220  -21.0100  -14.1570 O.2     1  UNL1       -0.2680
     23  N         22.9770  -22.1410  -12.2050 N.am    1  UNL1       -0.3230
     24  C         22.4870  -22.5670  -10.9650 C.2     1  UNL1        0.0460
     25  H         23.9310  -22.3430  -12.4760 H       1  UNL1        0.1690
     26  C         23.3270  -23.2810  -10.1100 C.2     1  UNL1        0.0300
     27  C         21.1700  -22.2470  -10.5940 C.2     1  UNL1        0.0060
     28  C         22.8620  -23.6690   -8.8540 C.2     1  UNL1        0.0020
     29  C         21.5720  -23.3320   -8.4550 C.2     1  UNL1        0.0010
     30  C         20.7310  -22.6190   -9.3170 C.2     1  UNL1        0.0150
@<TRIPOS>BOND
     1    22    21    2
     2    21    20    1
     3    21    23   am
     4    20    19    2
     5    25    23    1
     6    23    24    1
     7     3     2    2
     8    19     2    1
     9    19    27    1
    10     2     1   am
    11    24    27    2
    12    24    26    1
    13    27    30    1
    14     1     5    1
    15     1     4    1
    16     5     6    1
    17    26    28    2
    18     6     7    1
    19    30    29    2
    20    28    29    1
    21     7     8    2
    22     7    12    1
    23     8     9    1
    24    12    11    2
    25     9    10    2
    26    11    10    1
    27    10    13    1
    28    17    16    1
    29    13    14    2
    30    13    16    1
    31    13    15    2
    32    16    18    1
