@<TRIPOS>MOLECULE
80530_out_ligand_01.pdbqt
 35 38 0 0 0
SMALL
GASTEIGER

@<TRIPOS>ATOM
      1  C         18.5490  -22.9540   -6.0370 C.2     1  UNL1        0.0810
      2  C         19.2760  -23.3040   -7.1860 C.2     1  UNL1        0.0420
      3  C         20.3210  -22.4870   -7.6290 C.2     1  UNL1        0.0330
      4  C         20.6500  -21.3310   -6.9170 C.2     1  UNL1        0.0170
      5  C         19.9230  -20.9820   -5.7770 C.2     1  UNL1        0.0090
      6  C         18.8650  -21.7860   -5.3150 C.2     1  UNL1       -0.0390
      7  C         18.1170  -21.3420   -4.0880 C.3     1  UNL1        0.0500
      8  C         21.0850  -22.8990   -8.8370 C.2     1  UNL1        0.2560
      9  O         21.2640  -24.0960   -9.0210 O.2     1  UNL1       -0.2670
     10  N         21.4870  -21.8550   -9.6490 N.am    1  UNL1       -0.3230
     11  H         21.1370  -20.9350   -9.4160 H       1  UNL1        0.1690
     12  C         22.2550  -21.9370  -10.8310 C.2     1  UNL1        0.0370
     13  C         21.7440  -21.6440  -12.1150 C.2     1  UNL1        0.0320
     14  C         22.5410  -21.7460  -13.2640 C.2     1  UNL1        0.0340
     15  C         23.8460  -22.1480  -13.0940 C.ar    1  UNL1        0.0650
     16  C         24.3610  -22.4430  -11.8330 C.ar    1  UNL1        0.0670
     17  N         24.8670  -22.3400  -14.0330 N.ar    1  UNL1       -0.3020
     18  C         23.5910  -22.3470  -10.6900 C.2     1  UNL1        0.0610
     19  N         25.7010  -22.8180  -11.9920 N.ar    1  UNL1       -0.3020
     20  C         26.5940  -23.1890  -10.9340 C.3     1  UNL1        0.1610
     21  C         26.0370  -22.7560  -13.3630 C.ar    1  UNL1        0.3290
     22  O         27.1210  -23.0110  -13.8650 O.2     1  UNL1       -0.2460
     23  C         24.7420  -22.1320  -15.4460 C.3     1  UNL1        0.1610
     24  S         17.2040  -24.0330   -5.5510 S.O2    1  UNL1        0.2460
     25  O         17.0750  -23.9570   -4.1110 O.2     1  UNL1       -0.2060
     26  O         17.3850  -25.2970   -6.2290 O.2     1  UNL1       -0.2060
     27  N         15.8730  -23.1840   -6.2020 N.pl3   1  UNL1       -0.1810
     28  H         15.0310  -23.5670   -5.7690 H       1  UNL1        0.1460
     29  C         15.7840  -23.2620   -7.6310 C.2     1  UNL1        0.0230
     30  C         15.1780  -24.3650   -8.2340 C.2     1  UNL1        0.0240
     31  C         15.1390  -24.4580   -9.6250 C.2     1  UNL1        0.0020
     32  C         15.7120  -23.4570  -10.4100 C.2     1  UNL1        0.0070
     33  C         16.3270  -22.3500   -9.8110 C.2     1  UNL1       -0.0600
     34  C         16.9900  -21.3010  -10.6550 C.3     1  UNL1        0.0480
     35  C         16.3740  -22.2690   -8.4140 C.2     1  UNL1        0.0310
@<TRIPOS>BOND
     1    23    17    1
     2    17    21   ar
     3    17    15   ar
     4    22    21    2
     5    21    19   ar
     6    14    15    2
     7    14    13    1
     8    15    16   ar
     9    13    12    2
    10    19    16   ar
    11    19    20    1
    12    16    18    2
    13    12    18    1
    14    12    10    1
    15    34    33    1
    16    32    33    2
    17    32    31    1
    18    33    35    1
    19    10    11    1
    20    10     8   am
    21    31    30    2
    22     9     8    2
    23     8     3    1
    24    35    29    2
    25    30    29    1
    26    29    27    1
    27     3     2    1
    28     3     4    2
    29     2     1    2
    30     4     5    1
    31    26    24    2
    32    27    28    1
    33    27    24    1
    34     1    24    1
    35     1     6    1
    36     5     6    2
    37    24    25    2
    38     6     7    1
