@<TRIPOS>MOLECULE
80534_out_ligand_01.pdbqt
 27 30 0 0 0
SMALL
GASTEIGER

@<TRIPOS>ATOM
      1  C         21.8950  -21.6520  -12.3490 C.2     1  UNL1        0.0320
      2  C         20.6840  -20.9710  -12.2230 C.2     1  UNL1        0.0190
      3  C         19.8080  -21.2690  -11.1690 C.2     1  UNL1        0.0310
      4  C         20.1150  -22.2440  -10.2040 C.2     1  UNL1        0.0460
      5  C         21.3520  -22.8990  -10.3410 C.2     1  UNL1        0.0310
      6  C         22.2350  -22.6090  -11.3930 C.2     1  UNL1        0.0190
      7  N         19.2190  -22.5470   -9.1300 N.am    1  UNL1       -0.2440
      8  C         17.9130  -22.9780   -9.2820 C.2     1  UNL1        0.2660
      9  O         17.2310  -23.1870  -10.2710 O.2     1  UNL1       -0.2670
     10  C         17.3610  -23.1730   -7.9470 C.2     1  UNL1        0.0480
     11  C         16.1060  -23.5970   -7.5500 C.2     1  UNL1        0.0180
     12  C         18.3390  -22.8480   -7.0370 C.2     1  UNL1        0.0480
     13  C         15.8610  -23.6860   -6.1770 C.2     1  UNL1        0.0010
     14  C         16.8640  -23.3530   -5.2450 C.2     1  UNL1        0.0010
     15  C         18.1250  -22.9260   -5.6730 C.2     1  UNL1        0.0180
     16  C         19.5240  -22.4440   -7.7850 C.2     1  UNL1        0.2660
     17  O         20.5360  -22.0990   -7.2000 O.2     1  UNL1       -0.2670
     18  C         22.8000  -21.3070  -13.4830 C.2     1  UNL1        0.2560
     19  O         22.4710  -20.3910  -14.2260 O.2     1  UNL1       -0.2670
     20  N         23.9230  -22.1080  -13.5910 N.am    1  UNL1       -0.3230
     21  H         23.9810  -22.9070  -12.9760 H       1  UNL1        0.1690
     22  C         24.9690  -21.9920  -14.5330 C.2     1  UNL1        0.0350
     23  C         26.0240  -21.1270  -14.2140 C.2     1  UNL1        0.0290
     24  C         27.0940  -20.9520  -15.0940 C.2     1  UNL1        0.0020
     25  C         27.1200  -21.6380  -16.3050 C.2     1  UNL1        0.0000
     26  C         26.0730  -22.4980  -16.6320 C.2     1  UNL1        0.0020
     27  C         25.0020  -22.6740  -15.7500 C.2     1  UNL1        0.0290
@<TRIPOS>BOND
     1    26    25    2
     2    26    27    1
     3    25    24    1
     4    27    22    2
     5    24    23    2
     6    22    23    1
     7    22    20    1
     8    19    18    2
     9    20    18   am
    10    20    21    1
    11    18     1    1
    12     1     2    2
    13     1     6    1
    14     2     3    1
    15     6     5    2
    16     3     4    2
    17     5     4    1
    18     9     8    2
    19     4     7    1
    20     8     7   am
    21     8    10    1
    22     7    16   am
    23    10    11    2
    24    10    12    1
    25    16    17    2
    26    16    12    1
    27    11    13    1
    28    12    15    2
    29    13    14    2
    30    15    14    1
