@<TRIPOS>MOLECULE
8053_out_ligand_01.pdbqt
 39 41 0 0 0
SMALL
GASTEIGER

@<TRIPOS>ATOM
      1  C         21.0590  -22.7040   -8.0920 C.2     1  UNL1        0.0910
      2  C         20.7820  -21.6340   -7.2360 C.2     1  UNL1        0.0400
      3  C         19.6590  -21.6690   -6.4010 C.2     1  UNL1        0.0280
      4  C         18.8130  -22.7790   -6.4210 C.2     1  UNL1        0.0810
      5  C         19.0890  -23.8670   -7.2460 C.2     1  UNL1        0.0520
      6  C         20.2080  -23.8240   -8.0780 C.2     1  UNL1        0.0680
      7 CL         20.5140  -25.1910   -9.0870 Cl      1  UNL1       -0.0810
      8  O         22.1400  -22.7670   -8.9360 O.2     1  UNL1       -0.3400
      9  C         23.0450  -21.6660   -8.9630 C.3     1  UNL1        0.2780
     10  C         23.9110  -21.6180  -10.2270 C.2     1  UNL1        0.2460
     11  N         23.4170  -22.4350  -11.2330 N.am    1  UNL1       -0.3250
     12  H         22.6120  -22.9990  -10.9730 H       1  UNL1        0.1690
     13  O         24.8940  -20.8860  -10.2870 O.2     1  UNL1       -0.2710
     14  C         23.8940  -22.5820  -12.5480 C.2     1  UNL1        0.0340
     15  C         24.7590  -23.6010  -12.9580 C.2     1  UNL1        0.0300
     16  C         25.2180  -23.6500  -14.2820 C.2     1  UNL1        0.0190
     17  C         24.7960  -22.6960  -15.2090 C.2     1  UNL1        0.0320
     18  C         23.9280  -21.6740  -14.8070 C.2     1  UNL1        0.0190
     19  C         23.4790  -21.6210  -13.4850 C.2     1  UNL1        0.0300
     20  C         25.3120  -22.7660  -16.5990 C.2     1  UNL1        0.2490
     21  N         24.4450  -22.3990  -17.5950 N.am    1  UNL1       -0.3660
     22  H         24.7650  -22.5680  -18.5390 H       1  UNL1        0.1590
     23  H         23.4470  -22.3350  -17.4420 H       1  UNL1        0.1590
     24  O         26.4470  -23.1520  -16.8530 O.2     1  UNL1       -0.2680
     25  S         17.4030  -22.8420   -5.3420 S.O2    1  UNL1        0.2630
     26  O         17.1490  -24.2270   -5.0080 O.2     1  UNL1       -0.2000
     27  O         17.6030  -21.8490   -4.3070 O.2     1  UNL1       -0.2000
     28  N         16.1780  -22.2520   -6.3270 N.pl3   1  UNL1       -0.2810
     29  H         15.2890  -22.1030   -5.8430 H       1  UNL1        0.1790
     30  C         16.1620  -22.5700   -7.7050 C.2     1  UNL1        0.0430
     31  C         15.5480  -23.7530   -8.1080 C.2     1  UNL1        0.0300
     32  C         15.5490  -24.1140   -9.4560 C.2     1  UNL1        0.0030
     33  C         16.1770  -23.2960  -10.3970 C.2     1  UNL1        0.0160
     34  C         16.8150  -22.1110   -9.9980 C.2     1  UNL1        0.0500
     35  C         16.8140  -21.7640   -8.6370 C.2     1  UNL1        0.0460
     36  C         17.5250  -21.2350  -11.0040 C.3     1  UNL1        0.4170
     37  F         17.5040  -21.7470  -12.2660 F       1  UNL1       -0.1660
     38  F         16.9690  -19.9950  -11.0900 F       1  UNL1       -0.1660
     39  F         18.8390  -21.0320  -10.7090 F       1  UNL1       -0.1660
@<TRIPOS>BOND
     1    22    21    1
     2    21    23    1
     3    21    20   am
     4    24    20    2
     5    20    17    1
     6    17    18    2
     7    17    16    1
     8    18    19    1
     9    16    15    2
    10    19    14    2
    11    15    14    1
    12    14    11    1
    13    37    36    1
    14    11    12    1
    15    11    10   am
    16    38    36    1
    17    36    39    1
    18    36    34    1
    19    33    34    2
    20    33    32    1
    21    13    10    2
    22    10     9    1
    23    34    35    1
    24    32    31    2
    25     7     6    1
    26     9     8    1
    27     8     1    1
    28    35    30    2
    29    31    30    1
    30     1     6    2
    31     1     2    1
    32     6     5    1
    33    30    28    1
    34     5     4    2
    35     2     3    2
    36     4     3    1
    37     4    25    1
    38    28    29    1
    39    28    25    1
    40    25    26    2
    41    25    27    2
