@<TRIPOS>MOLECULE
80563_out_ligand_01.pdbqt
 32 35 0 0 0
SMALL
GASTEIGER

@<TRIPOS>ATOM
      1  C         21.0140  -22.0680  -11.2290 C.2     1  UNL1        0.0350
      2  C         20.0110  -21.5320  -12.0390 C.2     1  UNL1        0.0290
      3  C         18.7060  -21.3890  -11.5560 C.2     1  UNL1        0.0030
      4  C         18.3920  -21.7710  -10.2520 C.2     1  UNL1        0.0170
      5  C         19.3950  -22.2890   -9.4250 C.2     1  UNL1        0.0340
      6  C         20.6950  -22.4500   -9.9210 C.2     1  UNL1        0.0460
      7  C         19.1160  -22.7070   -8.0220 C.2     1  UNL1        0.2560
      8  O         19.4110  -23.8480   -7.6930 O.2     1  UNL1       -0.2670
      9  N         18.5860  -21.7120   -7.2190 N.am    1  UNL1       -0.3220
     10  H         18.5650  -20.7890   -7.6220 H       1  UNL1        0.1690
     11  C         18.1600  -21.8110   -5.8670 C.2     1  UNL1        0.0460
     12  C         18.8970  -21.2180   -4.8330 C.2     1  UNL1        0.0300
     13  C         18.4930  -21.3290   -3.5060 C.2     1  UNL1        0.0030
     14  C         17.3420  -22.0410   -3.1890 C.2     1  UNL1        0.0120
     15  C         16.5790  -22.6530   -4.1910 C.2     1  UNL1       -0.0240
     16  C         15.4230  -23.3660   -3.8310 C.2     1  UNL1        0.0120
     17  C         16.9710  -22.5490   -5.5530 C.2     1  UNL1        0.0010
     18  C         14.6320  -23.9870   -4.7940 C.2     1  UNL1        0.0010
     19  C         14.9870  -23.9010   -6.1310 C.2     1  UNL1        0.0010
     20  C         16.1350  -23.1950   -6.5040 C.2     1  UNL1        0.0140
     21  N         22.3470  -22.2590  -11.6430 N.am    1  UNL1       -0.3230
     22  C         23.5080  -21.8510  -11.0180 C.2     1  UNL1        0.2590
     23  O         23.5560  -21.2470   -9.9490 O.2     1  UNL1       -0.2670
     24  H         22.4750  -22.7550  -12.5190 H       1  UNL1        0.1690
     25  C         24.8050  -22.1880  -11.7120 C.2     1  UNL1        0.0650
     26  C         24.8120  -23.3820  -12.4620 C.2     1  UNL1        0.0200
     27  C         25.9520  -23.7970  -13.1470 C.2     1  UNL1        0.0010
     28  C         27.1050  -23.0250  -13.0950 C.2     1  UNL1        0.0030
     29  C         27.1200  -21.8380  -12.3590 C.2     1  UNL1        0.0380
     30  C         25.9820  -21.4070  -11.6600 C.2     1  UNL1        0.0840
     31  O         25.9510  -20.2460  -10.9260 O.2     1  UNL1       -0.3550
     32  C         26.7650  -19.1600  -11.3550 C.3     1  UNL1        0.2100
@<TRIPOS>BOND
     1    27    28    2
     2    27    26    1
     3    28    29    1
     4    24    21    1
     5    26    25    2
     6    29    30    2
     7     2     3    1
     8     2     1    2
     9    25    30    1
    10    25    22    1
    11    30    31    1
    12    21     1    1
    13    21    22   am
    14     3     4    2
    15    32    31    1
    16     1     6    1
    17    22    23    2
    18     4     5    1
    19     6     5    2
    20     5     7    1
    21     7     8    2
    22     7     9   am
    23    10     9    1
    24     9    11    1
    25    20    19    2
    26    20    17    1
    27    19    18    1
    28    11    17    2
    29    11    12    1
    30    17    15    1
    31    12    13    2
    32    18    16    2
    33    15    16    1
    34    15    14    2
    35    13    14    1
