@<TRIPOS>MOLECULE
80560_out_ligand_01.pdbqt
 31 34 0 0 0
SMALL
GASTEIGER

@<TRIPOS>ATOM
      1  C         22.9130  -22.3940  -12.0850 C.2     1  UNL1        0.0770
      2  C         22.0250  -21.5260  -12.7590 C.2     1  UNL1        0.0380
      3  C         20.7520  -21.2660  -12.2380 C.2     1  UNL1        0.0210
      4  C         20.4190  -21.8770  -11.0420 C.2     1  UNL1        0.0480
      5  C         21.2950  -22.7050  -10.3790 C.2     1  UNL1        0.0510
      6  C         22.5570  -22.9820  -10.8690 C.2     1  UNL1        0.0550
      7  C         20.6330  -23.1690   -9.1650 C.2     1  UNL1        0.2660
      8  O         21.2000  -23.9340   -8.4060 O.2     1  UNL1       -0.2670
      9  N         19.3750  -22.5950   -9.1360 N.am    1  UNL1       -0.2440
     10  C         19.1930  -21.8030  -10.2550 C.2     1  UNL1        0.2660
     11  O         18.2550  -21.1270  -10.6380 O.2     1  UNL1       -0.2670
     12  C         18.4020  -22.7970   -8.1050 C.2     1  UNL1        0.0460
     13  C         17.2120  -23.5070   -8.3410 C.2     1  UNL1        0.0310
     14  C         16.2490  -23.7030   -7.3370 C.2     1  UNL1        0.0190
     15  C         16.4540  -23.1850   -6.0590 C.2     1  UNL1        0.0320
     16  C         17.6340  -22.4930   -5.7950 C.2     1  UNL1        0.0190
     17  C         18.5900  -22.2990   -6.8040 C.2     1  UNL1        0.0310
     18  C         15.4710  -23.3640   -4.9570 C.2     1  UNL1        0.2490
     19  N         14.7320  -22.2740   -4.5860 N.am    1  UNL1       -0.3660
     20  H         14.1690  -22.3910   -3.7530 H       1  UNL1        0.1590
     21  H         15.0010  -21.3330   -4.8320 H       1  UNL1        0.1590
     22  O         15.3430  -24.4340   -4.3770 O.2     1  UNL1       -0.2680
     23  O         24.1880  -22.6510  -12.5400 O.2     1  UNL1       -0.3110
     24  C         24.9320  -21.5780  -12.9730 C.2     1  UNL1        0.0760
     25  C         24.9040  -21.2910  -14.3340 C.2     1  UNL1        0.0380
     26  C         25.6210  -20.1990  -14.8250 C.2     1  UNL1        0.0100
     27  C         26.3570  -19.3760  -13.9590 C.2     1  UNL1       -0.0560
     28  C         27.1210  -18.2100  -14.5260 C.3     1  UNL1        0.0490
     29  C         26.3600  -19.6520  -12.5750 C.2     1  UNL1       -0.0530
     30  C         25.6360  -20.7540  -12.0930 C.2     1  UNL1        0.0440
     31  C         27.1210  -18.7880  -11.6060 C.3     1  UNL1        0.0490
@<TRIPOS>BOND
     1    26    25    1
     2    26    27    2
     3    28    27    1
     4    25    24    2
     5    27    29    1
     6    24    23    1
     7    24    30    1
     8     2     3    1
     9     2     1    2
    10    29    30    2
    11    29    31    1
    12    23     1    1
    13     3     4    2
    14     1     6    1
    15     4     5    1
    16     4    10    1
    17     6     5    2
    18    11    10    2
    19     5     7    1
    20    10     9   am
    21     7     9   am
    22     7     8    2
    23     9    12    1
    24    13    12    2
    25    13    14    1
    26    12    17    1
    27    14    15    2
    28    17    16    2
    29    15    16    1
    30    15    18    1
    31    18    19   am
    32    18    22    2
    33    21    19    1
    34    19    20    1
