@<TRIPOS>MOLECULE
80564_out_ligand_01.pdbqt
 32 35 0 0 0
SMALL
GASTEIGER

@<TRIPOS>ATOM
      1  C         20.3930  -21.9080  -10.8160 C.2     1  UNL1        0.1790
      2  S         19.2480  -21.2540  -11.8500 S.2     1  UNL1       -0.0400
      3  N         21.4480  -22.5380  -11.4180 N.am    1  UNL1       -0.3260
      4  H         21.2720  -23.5350  -11.5800 H       1  UNL1        0.1690
      5  C         22.7260  -22.1320  -11.7750 C.ar    1  UNL1        0.0930
      6  C         23.8290  -22.0660  -10.9100 C.ar    1  UNL1        0.0720
      7  C         24.9290  -21.4730  -11.6020 C.ar    1  UNL1       -0.0260
      8  C         24.6250  -21.1620  -12.9010 C.ar    1  UNL1       -0.0080
      9  C         26.3260  -21.0460  -11.2920 C.3     1  UNL1        0.0410
     10  S         23.0810  -21.5830  -13.3590 S.2     1  UNL1       -0.0750
     11  C         25.7130  -20.4710  -13.6350 C.3     1  UNL1        0.0470
     12  C         26.6230  -20.0410  -12.4450 C.3     1  UNL1        0.0100
     13  C         23.7450  -22.5420   -9.5240 C.2     1  UNL1        0.2520
     14  N         24.2580  -23.7770   -9.2400 N.am    1  UNL1       -0.3660
     15  H         24.1170  -24.1190   -8.2940 H       1  UNL1        0.1590
     16  H         24.5360  -24.4390   -9.9440 H       1  UNL1        0.1590
     17  O         23.2080  -21.8950   -8.6280 O.2     1  UNL1       -0.2680
     18  N         20.4070  -21.8020   -9.4440 N.am    1  UNL1       -0.2990
     19  C         20.1540  -22.8090   -8.5180 C.2     1  UNL1        0.2580
     20  O         20.5590  -23.9610   -8.6090 O.2     1  UNL1       -0.2670
     21  H         20.2130  -20.8570   -9.1500 H       1  UNL1        0.1710
     22  C         19.4000  -22.3830   -7.3030 C.2     1  UNL1        0.0430
     23  C         19.9940  -21.4440   -6.4470 C.2     1  UNL1        0.0180
     24  C         19.3080  -21.0050   -5.3250 C.2     1  UNL1        0.0020
     25  C         18.0410  -21.5140   -5.0440 C.2     1  UNL1        0.0130
     26  C         17.4130  -22.4790   -5.8700 C.2     1  UNL1       -0.0070
     27  C         16.1260  -23.0260   -5.6030 C.2     1  UNL1        0.0220
     28  C         18.1090  -22.9220   -7.0300 C.2     1  UNL1       -0.0090
     29 BR         15.0850  -22.5140   -4.0860 Br      1  UNL1       -0.0500
     30  C         15.5420  -23.9820   -6.4440 C.2     1  UNL1        0.0200
     31  C         16.2120  -24.4020   -7.5800 C.2     1  UNL1        0.0020
     32  C         17.4690  -23.8750   -7.8690 C.2     1  UNL1        0.0130
@<TRIPOS>BOND
     1    11     8    1
     2    11    12    1
     3    10     8   ar
     4    10     5   ar
     5     8     7   ar
     6    12     9    1
     7     2     1    2
     8     5     3    1
     9     5     6   ar
    10     7     9    1
    11     7     6   ar
    12     4     3    1
    13     3     1    1
    14     6    13    1
    15     1    18    1
    16    16    14    1
    17    13    14   am
    18    13    17    2
    19    18    21    1
    20    18    19   am
    21    14    15    1
    22    20    19    2
    23    19    22    1
    24    32    31    2
    25    32    28    1
    26    31    30    1
    27    22    28    2
    28    22    23    1
    29    28    26    1
    30    23    24    2
    31    30    27    2
    32    26    27    1
    33    26    25    2
    34    27    29    1
    35    24    25    1
