@<TRIPOS>MOLECULE
8057_out_ligand_01.pdbqt
 38 41 0 0 0
SMALL
GASTEIGER

@<TRIPOS>ATOM
      1  C         19.0830  -23.4700   -7.4240 C.2     1  UNL1        0.0790
      2  C         19.4540  -24.6410   -8.0900 C.2     1  UNL1        0.0260
      3  C         20.7200  -24.7300   -8.6690 C.2     1  UNL1        0.0090
      4  C         21.6160  -23.6540   -8.5900 C.2     1  UNL1       -0.0580
      5  C         21.2190  -22.4790   -7.9340 C.2     1  UNL1        0.0090
      6  C         19.9530  -22.3820   -7.3550 C.2     1  UNL1        0.0260
      7  C         22.9810  -23.7490   -9.2340 C.3     1  UNL1        0.0480
      8  C         22.9790  -23.2230  -10.6690 C.3     1  UNL1        0.1080
      9  C         23.7290  -21.9060  -10.8030 C.2     1  UNL1        0.2220
     10  O         23.6170  -21.0180   -9.9640 O.2     1  UNL1       -0.2730
     11  N         24.5380  -21.8760  -11.9210 N.am    1  UNL1       -0.3250
     12  H         24.5170  -22.6770  -12.5470 H       1  UNL1        0.1690
     13  C         25.3590  -20.8190  -12.3720 C.2     1  UNL1        0.0690
     14  C         26.3580  -20.2220  -11.6040 C.2     1  UNL1        0.0320
     15  C         27.1190  -19.1690  -12.1280 C.2     1  UNL1        0.0020
     16  C         26.8950  -18.7090  -13.4250 C.2     1  UNL1        0.0030
     17  C         25.9030  -19.2980  -14.2060 C.2     1  UNL1        0.0390
     18  C         25.1310  -20.3330  -13.6710 C.2     1  UNL1        0.1020
     19  O         24.1570  -20.9310  -14.4450 O.2     1  UNL1       -0.3090
     20  C         24.5500  -21.4030  -15.6810 C.2     1  UNL1        0.0760
     21  C         25.1140  -20.6000  -16.6760 C.2     1  UNL1        0.0370
     22  C         25.4550  -21.1580  -17.9090 C.2     1  UNL1        0.0030
     23  C         25.2240  -22.5110  -18.1530 C.2     1  UNL1        0.0000
     24  C         24.6410  -23.3090  -17.1680 C.2     1  UNL1        0.0030
     25  C         24.2970  -22.7530  -15.9340 C.2     1  UNL1        0.0370
     26  S         17.4840  -23.3790   -6.6590 S.O2    1  UNL1        0.2590
     27  O         17.5550  -22.3830   -5.6140 O.2     1  UNL1       -0.2010
     28  O         17.0220  -24.7240   -6.4010 O.2     1  UNL1       -0.2010
     29  N         16.5340  -22.7390   -7.8660 N.3     1  UNL1       -0.3070
     30  H         16.1550  -21.8080   -7.7090 H       1  UNL1        0.1730
     31  C         16.5260  -23.3160   -9.2080 C.3     1  UNL1        0.1220
     32  C         15.0700  -23.5260   -9.6340 C.3     1  UNL1        0.0380
     33  C         17.3060  -22.4310  -10.1650 C.2     1  UNL1       -0.0350
     34  C         16.8800  -21.1340  -10.4940 C.2     1  UNL1        0.0090
     35  C         17.6380  -20.3280  -11.3470 C.2     1  UNL1        0.0010
     36  C         18.8380  -20.8030  -11.8760 C.2     1  UNL1        0.0000
     37  C         19.2790  -22.0830  -11.5530 C.2     1  UNL1        0.0010
     38  C         18.5200  -22.8910  -10.7040 C.2     1  UNL1        0.0090
@<TRIPOS>BOND
     1    23    22    2
     2    23    24    1
     3    22    21    1
     4    24    25    2
     5    21    20    2
     6    25    20    1
     7    20    19    1
     8    19    18    1
     9    17    18    1
    10    17    16    2
    11    18    13    2
    12    16    15    1
    13    12    11    1
    14    13    11    1
    15    13    14    1
    16    15    14    2
    17    11     9   am
    18    36    37    2
    19    36    35    1
    20    37    38    1
    21    35    34    2
    22     9     8    1
    23     9    10    2
    24    38    33    2
    25     8     7    1
    26    34    33    1
    27    33    31    1
    28    32    31    1
    29     7     4    1
    30    31    29    1
    31     3     4    2
    32     3     2    1
    33     4     5    1
    34     2     1    2
    35     5     6    2
    36    29    30    1
    37    29    26    1
    38     1     6    1
    39     1    26    1
    40    26    28    2
    41    26    27    2
