@<TRIPOS>MOLECULE
80579_out_ligand_01.pdbqt
 36 39 0 0 0
SMALL
GASTEIGER

@<TRIPOS>ATOM
      1  C         18.8420  -22.5290  -10.5500 C.2     1  UNL1        0.0450
      2  C         18.6560  -21.4430  -11.4100 C.2     1  UNL1        0.0300
      3  C         19.7370  -20.6830  -11.8260 C.2     1  UNL1        0.0030
      4  C         21.0230  -21.0150  -11.4070 C.2     1  UNL1        0.0140
      5  C         21.2800  -22.1250  -10.5640 C.2     1  UNL1        0.0030
      6  C         22.5960  -22.4890  -10.1300 C.2     1  UNL1        0.0450
      7  C         22.7730  -23.5800   -9.2750 C.2     1  UNL1        0.0300
      8  C         21.6820  -24.2980   -8.8090 C.2     1  UNL1        0.0030
      9  C         20.3990  -23.9530   -9.2190 C.2     1  UNL1        0.0140
     10  C         20.1580  -22.8850  -10.1160 C.2     1  UNL1        0.0030
     11  N         17.7380  -23.3370  -10.1690 N.am    1  UNL1       -0.3320
     12  H         17.5240  -24.1120  -10.7860 H       1  UNL1        0.1680
     13  C         16.7890  -23.1710   -9.1870 C.2     1  UNL1        0.1760
     14  S         15.3210  -22.5420   -9.6830 S.2     1  UNL1       -0.0410
     15  N         17.1310  -23.6540   -7.9480 N.am    1  UNL1       -0.3330
     16  H         16.9360  -24.6460   -7.8560 H       1  UNL1        0.1680
     17  C         17.4890  -23.0050   -6.7480 C.2     1  UNL1        0.0340
     18  C         18.5510  -22.0900   -6.8160 C.2     1  UNL1        0.0320
     19  C         18.9580  -21.3830   -5.6820 C.2     1  UNL1        0.0440
     20  C         18.2920  -21.5780   -4.4800 C.2     1  UNL1        0.1160
     21  F         18.6770  -20.8990   -3.3930 F       1  UNL1       -0.2060
     22  C         17.2230  -22.4590   -4.3980 C.2     1  UNL1        0.0440
     23  C         16.8160  -23.1670   -5.5340 C.2     1  UNL1        0.0320
     24  N         23.7280  -21.8080  -10.6520 N.am    1  UNL1       -0.3320
     25  H         23.8030  -20.8290  -10.4140 H       1  UNL1        0.1680
     26  C         24.8750  -22.2880  -11.2310 C.2     1  UNL1        0.1760
     27  S         26.4150  -21.6350  -11.1350 S.2     1  UNL1       -0.0410
     28  N         24.7180  -23.3510  -12.0860 N.am    1  UNL1       -0.3330
     29  H         24.4390  -24.1990  -11.6000 H       1  UNL1        0.1680
     30  C         24.7810  -23.4420  -13.4910 C.2     1  UNL1        0.0340
     31  C         25.2820  -24.5500  -14.1840 C.2     1  UNL1        0.0320
     32  C         25.3210  -24.5500  -15.5820 C.2     1  UNL1        0.0440
     33  C         24.8740  -23.4390  -16.2830 C.2     1  UNL1        0.1160
     34  F         24.9150  -23.4410  -17.6210 F       1  UNL1       -0.2060
     35  C         24.4000  -22.3190  -15.6140 C.2     1  UNL1        0.0440
     36  C         24.3620  -22.3180  -14.2180 C.2     1  UNL1        0.0320
@<TRIPOS>BOND
     1    34    33    1
     2    33    35    2
     3    33    32    1
     4    35    36    1
     5    32    31    2
     6    36    30    2
     7    31    30    1
     8    30    28    1
     9    28    29    1
    10    28    26    1
    11     3     2    1
    12     3     4    2
    13     2     1    2
    14     4     5    1
    15    26    27    2
    16    26    24    1
    17    12    11    1
    18    24    25    1
    19    24     6    1
    20     5     6    2
    21     5    10    1
    22     1    11    1
    23     1    10    1
    24    11    13    1
    25     6     7    1
    26    10     9    2
    27    14    13    2
    28     7     8    2
    29     9     8    1
    30    13    15    1
    31    15    16    1
    32    15    17    1
    33    18    17    2
    34    18    19    1
    35    17    23    1
    36    19    20    2
    37    23    22    2
    38    20    22    1
    39    20    21    1
