@<TRIPOS>MOLECULE
80584_out_ligand_01.pdbqt
 35 38 0 0 0
SMALL
GASTEIGER

@<TRIPOS>ATOM
      1  N         23.6150  -22.7160  -11.7920 N.am    1  UNL1       -0.3230
      2  C         23.5620  -21.9690  -10.6280 C.2     1  UNL1        0.2560
      3  O         24.4430  -21.2500  -10.1750 O.2     1  UNL1       -0.2670
      4  H         22.8600  -23.3690  -11.9500 H       1  UNL1        0.1690
      5  C         22.2990  -22.1160   -9.8470 C.2     1  UNL1        0.0320
      6  C         21.0910  -22.2230  -10.5450 C.2     1  UNL1        0.0180
      7  C         19.8860  -22.3640   -9.8500 C.2     1  UNL1        0.0130
      8  C         19.8720  -22.4060   -8.4500 C.2     1  UNL1       -0.0200
      9  C         21.0900  -22.3220   -7.7560 C.2     1  UNL1        0.0130
     10  C         22.2980  -22.1820   -8.4490 C.2     1  UNL1        0.0180
     11  C         18.5960  -22.5480   -7.7190 C.2     1  UNL1        0.0510
     12  C         18.5890  -22.3410   -6.3910 C.2     1  UNL1        0.0320
     13  C         17.3570  -22.4570   -5.6290 C.2     1  UNL1       -0.0010
     14  C         17.3140  -22.2530   -4.2480 C.2     1  UNL1        0.0140
     15  C         16.1810  -22.7810   -6.2970 C.2     1  UNL1        0.0890
     16  C         16.1020  -22.3780   -3.5600 C.2     1  UNL1        0.0010
     17  C         14.9320  -22.7050   -4.2470 C.2     1  UNL1        0.0030
     18  C         14.9680  -22.9090   -5.6250 C.2     1  UNL1        0.0380
     19  O         16.1770  -22.9920   -7.6860 O.3     1  UNL1       -0.2740
     20  C         17.3380  -22.8880   -8.4470 C.2     1  UNL1        0.2990
     21  O         17.3130  -23.0720   -9.6600 O.2     1  UNL1       -0.2590
     22  C         24.6570  -22.7390  -12.7450 C.2     1  UNL1        0.0370
     23  C         25.5120  -23.8220  -12.9350 C.2     1  UNL1        0.0290
     24  C         26.5230  -23.7590  -13.8950 C.2     1  UNL1        0.0040
     25  C         26.6920  -22.6140  -14.6750 C.2     1  UNL1        0.0290
     26  C         25.8510  -21.5170  -14.5010 C.2     1  UNL1        0.0360
     27  C         24.8370  -21.5890  -13.5320 C.2     1  UNL1        0.0590
     28  N         25.9510  -20.3200  -15.2440 N.am    1  UNL1       -0.3270
     29  C         26.4200  -19.0910  -14.8070 C.2     1  UNL1        0.2220
     30  O         26.8490  -18.8280  -13.6900 O.2     1  UNL1       -0.2730
     31  H         25.6460  -20.3690  -16.2080 H       1  UNL1        0.1690
     32  C         26.3680  -18.0530  -15.9230 C.3     1  UNL1        0.1030
     33  C         26.9040  -16.6810  -15.5160 C.3     1  UNL1        0.0090
     34  C         27.1200  -15.7590  -16.7190 C.3     1  UNL1       -0.0040
     35  C         26.0060  -15.9130  -17.7430 C.3     1  UNL1        0.0050
@<TRIPOS>BOND
     1    35    34    1
     2    34    33    1
     3    31    28    1
     4    32    33    1
     5    32    29    1
     6    28    29   am
     7    28    26    1
     8    29    30    2
     9    25    26    2
    10    25    24    1
    11    26    27    1
    12    24    23    2
    13    27    22    2
    14    23    22    1
    15    22     1    1
    16     4     1    1
    17     1     2   am
    18     2     3    2
    19     2     5    1
    20     6     7    1
    21     6     5    2
    22     7     8    2
    23     5    10    1
    24    21    20    2
    25     8     9    1
    26     8    11    1
    27    10     9    2
    28    20    11    1
    29    20    19    1
    30    11    12    2
    31    19    15    1
    32    12    13    1
    33    15    13    2
    34    15    18    1
    35    13    14    1
    36    18    17    2
    37    14    16    2
    38    17    16    1
