@<TRIPOS>MOLECULE
80585_out_ligand_01.pdbqt
 44 49 0 0 0
SMALL
GASTEIGER

@<TRIPOS>ATOM
      1  C         22.7650  -23.2670  -10.2610 C.2     1  UNL1        0.0450
      2  C         22.5210  -24.0290   -9.1150 C.2     1  UNL1        0.0300
      3  C         21.2420  -24.1200   -8.5870 C.2     1  UNL1        0.0030
      4  C         20.1810  -23.4730   -9.2160 C.2     1  UNL1        0.0140
      5  C         20.3560  -22.6890  -10.3830 C.2     1  UNL1        0.0030
      6  C         19.2670  -22.0400  -11.0620 C.2     1  UNL1        0.0450
      7  C         19.5300  -21.2050  -12.1510 C.2     1  UNL1        0.0300
      8  C         20.8260  -21.0190  -12.6060 C.2     1  UNL1        0.0030
      9  C         21.8810  -21.6850  -11.9910 C.2     1  UNL1        0.0140
     10  C         21.6890  -22.5480  -10.8840 C.2     1  UNL1        0.0030
     11  N         24.0570  -23.2450  -10.8550 N.am    1  UNL1       -0.3260
     12  C         25.0050  -22.2310  -10.8360 C.2     1  UNL1        0.2310
     13  O         24.8600  -21.0970  -10.3910 O.2     1  UNL1       -0.2720
     14  H         24.3610  -24.0880  -11.3210 H       1  UNL1        0.1690
     15  C         26.3530  -22.6900  -11.3680 C.3     1  UNL1        0.1850
     16  S         26.1510  -24.0210  -12.5940 S.3     1  UNL1       -0.0830
     17  C         25.9800  -23.0550  -14.0090 C.ar    1  UNL1        0.1680
     18  N         25.4420  -23.5770  -15.1470 N.ar    1  UNL1       -0.3330
     19  C         25.3860  -22.5690  -16.0760 C.ar    1  UNL1        0.0630
     20  H         25.1200  -24.5260  -15.2600 H       1  UNL1        0.1680
     21  C         24.9090  -22.5180  -17.3870 C.2     1  UNL1        0.0320
     22  C         25.9400  -21.4700  -15.4220 C.ar    1  UNL1        0.0860
     23  C         25.0150  -21.2860  -18.0470 C.2     1  UNL1        0.0090
     24  C         25.5760  -20.1600  -17.4250 C.2     1  UNL1       -0.0600
     25  C         25.6510  -18.8470  -18.1530 C.3     1  UNL1        0.0480
     26  C         26.0370  -20.2450  -16.0980 C.2     1  UNL1        0.0400
     27  N         26.3060  -21.7930  -14.1360 N.ar    1  UNL1       -0.2230
     28  N         17.9290  -22.3020  -10.6520 N.am    1  UNL1       -0.3260
     29  C         16.8200  -21.4680  -10.7440 C.2     1  UNL1        0.2310
     30  O         16.8280  -20.2940  -11.1110 O.2     1  UNL1       -0.2720
     31  H         17.7490  -23.2270  -10.2990 H       1  UNL1        0.1690
     32  C         15.5270  -22.1870  -10.3560 C.3     1  UNL1        0.1850
     33  S         15.8510  -23.8300   -9.6520 S.3     1  UNL1       -0.0830
     34  C         16.3220  -23.3460   -8.0690 C.ar    1  UNL1        0.1680
     35  N         17.3860  -22.6590   -7.7460 N.ar    1  UNL1       -0.2230
     36  C         17.2890  -22.4990   -6.3830 C.ar    1  UNL1        0.0860
     37  C         18.1720  -21.8720   -5.4900 C.2     1  UNL1        0.0400
     38  C         16.1100  -23.0560   -5.8940 C.ar    1  UNL1        0.0630
     39  C         17.8460  -21.8300   -4.1220 C.2     1  UNL1       -0.0600
     40  C         18.7780  -21.1590   -3.1540 C.3     1  UNL1        0.0480
     41  C         16.6310  -22.3710   -3.6740 C.2     1  UNL1        0.0090
     42  C         15.7360  -23.0010   -4.5500 C.2     1  UNL1        0.0320
     43  N         15.5110  -23.5960   -7.0020 N.ar    1  UNL1       -0.3330
     44  H         14.6060  -24.0420   -7.0500 H       1  UNL1        0.1680
@<TRIPOS>BOND
     1    25    24    1
     2    23    24    2
     3    23    21    1
     4    24    26    1
     5    21    19    2
     6    26    22    2
     7    19    22   ar
     8    19    18   ar
     9    22    27   ar
    10    20    18    1
    11    18    17   ar
    12    27    17   ar
    13    17    16    1
    14     8     7    1
    15     8     9    2
    16    16    15    1
    17     7     6    2
    18     9    10    1
    19    15    12    1
    20    14    11    1
    21    30    29    2
    22     6    28    1
    23     6     5    1
    24    10     5    1
    25    10     1    2
    26    11    12   am
    27    11     1    1
    28    12    13    2
    29    29    28   am
    30    29    32    1
    31    28    31    1
    32     5     4    2
    33    32    33    1
    34     1     2    1
    35    33    34    1
    36     4     3    1
    37     2     3    2
    38    34    35   ar
    39    34    43   ar
    40    35    36   ar
    41    44    43    1
    42    43    38   ar
    43    36    38   ar
    44    36    37    1
    45    38    42    1
    46    37    39    2
    47    42    41    2
    48    39    41    1
    49    39    40    1
