@<TRIPOS>MOLECULE
80608_out_ligand_01.pdbqt
 34 37 0 0 0
SMALL
GASTEIGER

@<TRIPOS>ATOM
      1  C         22.3250  -22.8550   -8.9780 C.2     1  UNL1        0.0800
      2  C         21.4390  -23.9130   -9.1550 C.2     1  UNL1        0.0270
      3  C         20.2380  -23.9400   -8.4330 C.2     1  UNL1        0.0320
      4  C         19.8980  -22.9260   -7.5180 C.2     1  UNL1        0.0460
      5  C         20.8260  -21.8820   -7.3550 C.2     1  UNL1        0.0320
      6  C         22.0300  -21.8430   -8.0710 C.2     1  UNL1        0.0270
      7  S         23.8510  -22.8060   -9.8820 S.O2    1  UNL1        0.2630
      8  O         24.2140  -21.4130  -10.0340 O.2     1  UNL1       -0.2000
      9  O         24.7700  -23.7620   -9.3040 O.2     1  UNL1       -0.2000
     10  N         23.3830  -23.3380  -11.4200 N.pl3   1  UNL1       -0.2810
     11  H         22.3900  -23.5720  -11.4270 H       1  UNL1        0.1790
     12  C         23.9010  -22.6420  -12.5450 C.2     1  UNL1        0.0420
     13  C         23.1280  -21.6640  -13.1740 C.2     1  UNL1        0.0310
     14  C         23.6120  -21.0240  -14.3160 C.2     1  UNL1        0.0270
     15  C         24.8630  -21.3800  -14.8260 C.2     1  UNL1        0.0740
     16  C         25.6430  -22.3540  -14.1960 C.2     1  UNL1        0.0270
     17  C         25.1530  -22.9920  -13.0550 C.2     1  UNL1        0.0310
     18  S         25.4760  -20.5640  -16.2790 S.O2    1  UNL1        0.2390
     19  O         24.4240  -20.5430  -17.2680 O.2     1  UNL1       -0.2060
     20  O         26.7990  -21.0670  -16.5590 O.2     1  UNL1       -0.2060
     21  N         25.6240  -18.9780  -15.7340 N.3     1  UNL1       -0.2250
     22  H         25.5090  -18.8810  -14.7260 H       1  UNL1        0.1360
     23  H         24.9690  -18.3880  -16.2500 H       1  UNL1        0.1360
     24  N         18.6660  -22.9590   -6.7870 N.am    1  UNL1       -0.2440
     25  C         17.5630  -23.7250   -7.1200 C.2     1  UNL1        0.2660
     26  O         17.3520  -24.4980   -8.0370 O.2     1  UNL1       -0.2670
     27  C         16.5350  -23.4660   -6.1180 C.2     1  UNL1        0.0480
     28  C         15.2580  -23.9800   -5.9930 C.2     1  UNL1        0.0180
     29  C         17.0430  -22.5530   -5.2230 C.2     1  UNL1        0.0480
     30  C         14.4890  -23.5350   -4.9130 C.2     1  UNL1        0.0010
     31  C         15.0090  -22.6000   -3.9960 C.2     1  UNL1        0.0010
     32  C         16.3050  -22.0960   -4.1470 C.2     1  UNL1        0.0180
     33  C         18.3990  -22.2230   -5.6470 C.2     1  UNL1        0.2660
     34  O         19.0650  -21.4210   -5.0160 O.2     1  UNL1       -0.2670
@<TRIPOS>BOND
     1    19    18    2
     2    20    18    2
     3    18    21    1
     4    18    15    1
     5    23    21    1
     6    21    22    1
     7    15    14    2
     8    15    16    1
     9    14    13    1
    10    16    17    2
    11    13    12    2
    12    17    12    1
    13    12    10    1
    14    11    10    1
    15    10     7    1
    16     8     7    2
    17     7     9    2
    18     7     1    1
    19     2     1    2
    20     2     3    1
    21     1     6    1
    22     3     4    2
    23     6     5    2
    24    26    25    2
    25     4     5    1
    26     4    24    1
    27    25    24   am
    28    25    27    1
    29    24    33   am
    30    27    28    2
    31    27    29    1
    32    28    30    1
    33    33    29    1
    34    33    34    2
    35    29    32    2
    36    30    31    2
    37    32    31    1
