@<TRIPOS>MOLECULE
80610_out_ligand_01.pdbqt
 35 38 0 0 0
SMALL
GASTEIGER

@<TRIPOS>ATOM
      1  C         21.3740  -22.4310   -9.7680 C.2     1  UNL1        0.0340
      2  C         21.4880  -22.4800  -11.1590 C.2     1  UNL1        0.0310
      3  C         22.7030  -22.1820  -11.7850 C.2     1  UNL1        0.0270
      4  C         23.8080  -21.8210  -11.0120 C.2     1  UNL1        0.0800
      5  C         23.7180  -21.7920   -9.6200 C.2     1  UNL1        0.0270
      6  C         22.5010  -22.0950   -9.0040 C.2     1  UNL1        0.0310
      7  N         20.1870  -22.7170   -9.0630 N.am    1  UNL1       -0.3260
      8  C         19.8530  -23.8990   -8.4020 C.2     1  UNL1        0.2350
      9  O         20.5550  -24.9060   -8.3740 O.2     1  UNL1       -0.2720
     10  H         19.4600  -22.0130   -9.1140 H       1  UNL1        0.1690
     11  C         18.4830  -23.7970   -7.6830 C.3     1  UNL1        0.1440
     12  C         18.5270  -22.9030   -6.4420 C.2     1  UNL1       -0.0410
     13  C         19.2870  -21.7220   -6.4110 C.2     1  UNL1        0.0080
     14  C         19.3160  -20.9260   -5.2640 C.2     1  UNL1        0.0010
     15  C         18.5790  -21.2920   -4.1400 C.2     1  UNL1        0.0000
     16  C         17.8070  -22.4510   -4.1620 C.2     1  UNL1        0.0010
     17  C         17.7770  -23.2500   -5.3070 C.2     1  UNL1        0.0080
     18  C         17.3070  -23.4550   -8.5930 C.2     1  UNL1       -0.0410
     19  C         16.1770  -24.2930   -8.6210 C.2     1  UNL1        0.0080
     20  C         15.0780  -23.9850   -9.4250 C.2     1  UNL1        0.0010
     21  C         15.0890  -22.8350  -10.2110 C.2     1  UNL1        0.0000
     22  C         16.1960  -21.9920  -10.1920 C.2     1  UNL1        0.0010
     23  C         17.2960  -22.2970   -9.3870 C.2     1  UNL1        0.0080
     24  S         25.3470  -21.4300  -11.8130 S.O2    1  UNL1        0.2630
     25  O         26.0410  -20.4540  -11.0010 O.2     1  UNL1       -0.2000
     26  O         25.9740  -22.6800  -12.1850 O.2     1  UNL1       -0.2000
     27  N         24.8450  -20.7060  -13.2560 N.pl3   1  UNL1       -0.2810
     28  H         24.8670  -19.6890  -13.1950 H       1  UNL1        0.1790
     29  C         25.1970  -21.3090  -14.4940 C.2     1  UNL1        0.0420
     30  C         24.2800  -22.1580  -15.1200 C.2     1  UNL1        0.0330
     31  C         24.5920  -22.7280  -16.3550 C.2     1  UNL1        0.0440
     32  C         25.8170  -22.4470  -16.9510 C.2     1  UNL1        0.1160
     33  F         26.1140  -22.9920  -18.1370 F       1  UNL1       -0.2060
     34  C         26.7370  -21.6070  -16.3330 C.2     1  UNL1        0.0440
     35  C         26.4260  -21.0350  -15.0990 C.2     1  UNL1        0.0330
@<TRIPOS>BOND
     1    33    32    1
     2    32    31    2
     3    32    34    1
     4    31    30    1
     5    34    35    2
     6    30    29    2
     7    35    29    1
     8    29    27    1
     9    27    28    1
    10    27    24    1
    11    26    24    2
    12    24     4    1
    13    24    25    2
    14     3     2    1
    15     3     4    2
    16     2     1    2
    17     4     5    1
    18    21    22    2
    19    21    20    1
    20    22    23    1
    21     1     7    1
    22     1     6    1
    23     5     6    2
    24    20    19    2
    25    23    18    2
    26    10     7    1
    27     7     8   am
    28    19    18    1
    29    18    11    1
    30     8     9    2
    31     8    11    1
    32    11    12    1
    33    12    13    2
    34    12    17    1
    35    13    14    1
    36    17    16    2
    37    14    15    2
    38    16    15    1
