@<TRIPOS>MOLECULE
80628_out_ligand_01.pdbqt
 36 39 0 0 0
SMALL
GASTEIGER

@<TRIPOS>ATOM
      1  C         23.9530  -22.3090  -10.7130 C.2     1  UNL1        0.0800
      2  C         22.8140  -22.8850  -11.2770 C.2     1  UNL1        0.0270
      3  C         21.6430  -22.9780  -10.5200 C.2     1  UNL1        0.0310
      4  C         21.5960  -22.4900   -9.2050 C.2     1  UNL1        0.0340
      5  C         22.7380  -21.8960   -8.6630 C.2     1  UNL1        0.0310
      6  C         23.9130  -21.7950   -9.4150 C.2     1  UNL1        0.0270
      7  N         20.3770  -22.6390   -8.5150 N.am    1  UNL1       -0.3260
      8  C         19.7650  -23.8160   -8.1040 C.2     1  UNL1        0.2350
      9  O         20.2100  -24.9480   -8.2980 O.2     1  UNL1       -0.2720
     10  H         19.9090  -21.7760   -8.2630 H       1  UNL1        0.1690
     11  C         18.3920  -23.6310   -7.4120 C.3     1  UNL1        0.1440
     12  C         17.2530  -23.3420   -8.3920 C.2     1  UNL1       -0.0410
     13  C         17.3690  -22.2440   -9.2650 C.2     1  UNL1        0.0080
     14  C         16.3670  -21.9570  -10.1940 C.2     1  UNL1        0.0010
     15  C         15.2340  -22.7640  -10.2670 C.2     1  UNL1        0.0000
     16  C         15.1040  -23.8560   -9.4130 C.2     1  UNL1        0.0010
     17  C         16.1060  -24.1460   -8.4830 C.2     1  UNL1        0.0080
     18  C         18.4460  -22.6910   -6.2020 C.2     1  UNL1       -0.0410
     19  C         19.1870  -21.4980   -6.1990 C.2     1  UNL1        0.0080
     20  C         19.2420  -20.6950   -5.0580 C.2     1  UNL1        0.0010
     21  C         18.5640  -21.0750   -3.9030 C.2     1  UNL1        0.0000
     22  C         17.8300  -22.2570   -3.8850 C.2     1  UNL1        0.0010
     23  C         17.7710  -23.0610   -5.0240 C.2     1  UNL1        0.0080
     24  S         25.4430  -22.1720  -11.6760 S.O2    1  UNL1        0.2630
     25  O         26.4540  -23.0030  -11.0590 O.2     1  UNL1       -0.2000
     26  O         25.6780  -20.7610  -11.9070 O.2     1  UNL1       -0.2000
     27  N         25.0040  -22.8140  -13.1730 N.pl3   1  UNL1       -0.2800
     28  H         24.9850  -23.8310  -13.1690 H       1  UNL1        0.1790
     29  C         25.3760  -22.1460  -14.3760 C.2     1  UNL1        0.0480
     30  C         26.6150  -22.4220  -14.9590 C.2     1  UNL1        0.0310
     31  C         26.9870  -21.8090  -16.1560 C.2     1  UNL1        0.0090
     32  C         26.1220  -20.9120  -16.7860 C.2     1  UNL1       -0.0610
     33  C         26.5180  -20.2320  -18.0630 C.3     1  UNL1        0.0480
     34  C         24.8900  -20.6180  -16.1860 C.2     1  UNL1        0.0150
     35  C         24.5020  -21.2290  -14.9800 C.2     1  UNL1       -0.0340
     36  C         23.1700  -20.8780  -14.3820 C.3     1  UNL1        0.0500
@<TRIPOS>BOND
     1    33    32    1
     2    32    34    2
     3    32    31    1
     4    34    35    1
     5    31    30    2
     6    35    36    1
     7    35    29    2
     8    30    29    1
     9    29    27    1
    10    27    28    1
    11    27    24    1
    12    26    24    2
    13    24    25    2
    14    24     1    1
    15     2     1    2
    16     2     3    1
    17     1     6    1
    18     3     4    2
    19    15    14    2
    20    15    16    1
    21    14    13    1
    22     6     5    2
    23    16    17    2
    24    13    12    2
    25     4     5    1
    26     4     7    1
    27     7    10    1
    28     7     8   am
    29    17    12    1
    30    12    11    1
    31     9     8    2
    32     8    11    1
    33    11    18    1
    34    18    19    2
    35    18    23    1
    36    19    20    1
    37    20    21    2
    38    23    22    2
    39    21    22    1
