@<TRIPOS>MOLECULE
80621_out_ligand_01.pdbqt
 29 31 0 0 0
SMALL
GASTEIGER

@<TRIPOS>ATOM
      1  N         20.1650  -23.0390   -9.4970 N.am    1  UNL1       -0.3260
      2  C         20.1830  -22.7750   -8.1350 C.2     1  UNL1        0.2350
      3  O         21.1020  -22.2130   -7.5380 O.2     1  UNL1       -0.2720
      4  H         19.3750  -23.5690   -9.8440 H       1  UNL1        0.1690
      5  C         18.9060  -23.2000   -7.3690 C.3     1  UNL1        0.1440
      6  C         18.7420  -22.4930   -6.0220 C.2     1  UNL1       -0.0410
      7  C         18.0870  -23.1680   -4.9760 C.2     1  UNL1        0.0080
      8  C         17.8920  -22.5530   -3.7380 C.2     1  UNL1        0.0010
      9  C         18.3470  -21.2550   -3.5260 C.2     1  UNL1        0.0000
     10  C         18.9960  -20.5710   -4.5510 C.2     1  UNL1        0.0010
     11  C         19.1910  -21.1820   -5.7920 C.2     1  UNL1        0.0080
     12  C         17.6490  -23.2030   -8.2480 C.2     1  UNL1       -0.0410
     13  C         17.4870  -22.1870   -9.2060 C.2     1  UNL1        0.0080
     14  C         16.3390  -22.1270   -9.9970 C.2     1  UNL1        0.0010
     15  C         15.3340  -23.0780   -9.8420 C.2     1  UNL1        0.0000
     16  C         15.4770  -24.0910   -8.8960 C.2     1  UNL1        0.0010
     17  C         16.6230  -24.1540   -8.1020 C.2     1  UNL1        0.0080
     18  C         21.1430  -22.7070  -10.4560 C.2     1  UNL1        0.0340
     19  C         22.4530  -23.1940  -10.4410 C.2     1  UNL1        0.0310
     20  C         23.3670  -22.8090  -11.4280 C.2     1  UNL1        0.0270
     21  C         22.9630  -21.9400  -12.4420 C.2     1  UNL1        0.0740
     22  C         21.6640  -21.4320  -12.4660 C.2     1  UNL1        0.0270
     23  C         20.7600  -21.8190  -11.4720 C.2     1  UNL1        0.0310
     24  S         24.1290  -21.4620  -13.6880 S.O2    1  UNL1        0.2390
     25  O         25.2020  -20.7280  -13.0560 O.2     1  UNL1       -0.2060
     26  O         24.3630  -22.5940  -14.5510 O.2     1  UNL1       -0.2060
     27  N         23.2500  -20.3150  -14.5530 N.3     1  UNL1       -0.2250
     28  H         22.3860  -20.1120  -14.0470 H       1  UNL1        0.1360
     29  H         23.0740  -20.5840  -15.5200 H       1  UNL1        0.1360
@<TRIPOS>BOND
     1    29    27    1
     2    27    28    1
     3    27    24    1
     4    26    24    2
     5    24    25    2
     6    24    21    1
     7    22    21    2
     8    22    23    1
     9    21    20    1
    10    23    18    2
    11    20    19    2
    12    18    19    1
    13    18     1    1
    14    14    15    2
    15    14    13    1
    16     4     1    1
    17    15    16    1
    18     1     2   am
    19    13    12    2
    20    16    17    2
    21    12    17    1
    22    12     5    1
    23     2     3    2
    24     2     5    1
    25     5     6    1
    26     6    11    2
    27     6     7    1
    28    11    10    1
    29     7     8    2
    30    10     9    2
    31     8     9    1
