@<TRIPOS>MOLECULE
80633_out_ligand_01.pdbqt
 33 36 0 0 0
SMALL
GASTEIGER

@<TRIPOS>ATOM
      1  O         21.0550  -22.1660   -7.3790 O.2     1  UNL1       -0.2720
      2  C         20.1600  -22.7170   -8.0200 C.2     1  UNL1        0.2350
      3  N         20.2370  -23.0590   -9.3630 N.am    1  UNL1       -0.3260
      4  H         19.4130  -23.4880   -9.7680 H       1  UNL1        0.1690
      5  C         21.3060  -22.8360  -10.2540 C.2     1  UNL1        0.0340
      6  C         22.5930  -23.3500  -10.0780 C.2     1  UNL1        0.0310
      7  C         23.6010  -23.0770  -11.0110 C.2     1  UNL1        0.0270
      8  C         23.3160  -22.2940  -12.1300 C.2     1  UNL1        0.0750
      9  C         22.0380  -21.7670  -12.3180 C.2     1  UNL1        0.0270
     10  C         21.0380  -22.0430  -11.3800 C.2     1  UNL1        0.0310
     11  S         24.6130  -21.9390  -13.2940 S.O2    1  UNL1        0.2470
     12  O         25.2980  -20.7500  -12.8340 O.2     1  UNL1       -0.2050
     13  O         25.3170  -23.1790  -13.5340 O.2     1  UNL1       -0.2050
     14  N         23.6950  -21.4680  -14.6340 N.pl3   1  UNL1       -0.1590
     15  H         23.6180  -20.4520  -14.5940 H       1  UNL1        0.1480
     16  C         24.3660  -21.7820  -15.8800 C.2     1  UNL1        0.1580
     17  N         23.9220  -22.7870  -16.5920 N.2     1  UNL1       -0.2400
     18  C         24.7380  -22.9460  -17.6960 C.2     1  UNL1        0.1260
     19  C         25.8170  -22.0910  -17.7690 C.2     1  UNL1        0.0720
     20  S         25.8200  -21.0540  -16.4010 S.3     1  UNL1       -0.0680
     21  C         18.8430  -23.1300   -7.3150 C.3     1  UNL1        0.1440
     22  C         17.6290  -23.0920   -8.2450 C.2     1  UNL1       -0.0410
     23  C         17.4520  -22.0960   -9.2200 C.2     1  UNL1        0.0080
     24  C         16.3130  -22.0850  -10.0290 C.2     1  UNL1        0.0010
     25  C         15.3320  -23.0620   -9.8720 C.2     1  UNL1        0.0000
     26  C         15.4880  -24.0520   -8.9060 C.2     1  UNL1        0.0010
     27  C         16.6260  -24.0660   -8.0970 C.2     1  UNL1        0.0080
     28  C         18.6370  -22.4460   -5.9590 C.2     1  UNL1       -0.0410
     29  C         19.0740  -21.1380   -5.6920 C.2     1  UNL1        0.0080
     30  C         18.9040  -20.5740   -4.4250 C.2     1  UNL1        0.0010
     31  C         18.2990  -21.3080   -3.4080 C.2     1  UNL1        0.0000
     32  C         17.8620  -22.6070   -3.6540 C.2     1  UNL1        0.0010
     33  C         18.0280  -23.1720   -4.9190 C.2     1  UNL1        0.0080
@<TRIPOS>BOND
     1    19    18    2
     2    19    20    1
     3    18    17    1
     4    17    16    2
     5    20    16    1
     6    16    14    1
     7    14    15    1
     8    14    11    1
     9    13    11    2
    10    11    12    2
    11    11     8    1
    12     9     8    2
    13     9    10    1
    14     8     7    1
    15    10     5    2
    16     7     6    2
    17     5     6    1
    18     5     3    1
    19    24    25    2
    20    24    23    1
    21    25    26    1
    22     4     3    1
    23     3     2   am
    24    23    22    2
    25    26    27    2
    26    22    27    1
    27    22    21    1
    28     2     1    2
    29     2    21    1
    30    21    28    1
    31    28    29    2
    32    28    33    1
    33    29    30    1
    34    33    32    2
    35    30    31    2
    36    32    31    1
