@<TRIPOS>MOLECULE
80650_out_ligand_01.pdbqt
 30 32 0 0 0
SMALL
GASTEIGER

@<TRIPOS>ATOM
      1  N         26.7280  -26.3190  -15.1370 N.1     1  UNL1       -0.1910
      2  C         26.2180  -25.3300  -14.8050 C.1     1  UNL1        0.0990
      3  C         25.5950  -24.0980  -14.4180 C.2     1  UNL1        0.0460
      4  C         25.7800  -22.9510  -15.1950 C.2     1  UNL1        0.0230
      5  C         25.1710  -21.7550  -14.8220 C.2     1  UNL1        0.0040
      6  C         24.3780  -21.7060  -13.6730 C.2     1  UNL1        0.0290
      7  C         24.1880  -22.8480  -12.8830 C.2     1  UNL1        0.0360
      8  C         24.7980  -24.0450  -13.2660 C.2     1  UNL1        0.0520
      9  N         23.3670  -22.7100  -11.7430 N.am    1  UNL1       -0.3230
     10  C         23.7180  -22.9550  -10.4270 C.2     1  UNL1        0.2560
     11  O         24.8220  -23.2730  -10.0060 O.2     1  UNL1       -0.2670
     12  H         22.4500  -22.3170  -11.9060 H       1  UNL1        0.1690
     13  C         22.6180  -22.7640   -9.4420 C.2     1  UNL1        0.0320
     14  C         22.7450  -21.7470   -8.4870 C.2     1  UNL1        0.0180
     15  C         21.7330  -21.5410   -7.5470 C.2     1  UNL1        0.0180
     16  C         20.6040  -22.3680   -7.5380 C.2     1  UNL1        0.0320
     17  C         20.4760  -23.3900   -8.4900 C.2     1  UNL1        0.0180
     18  C         21.4860  -23.5910   -9.4380 C.2     1  UNL1        0.0180
     19  C         19.5450  -22.1170   -6.5210 C.2     1  UNL1        0.2560
     20  O         19.6170  -21.0900   -5.8570 O.2     1  UNL1       -0.2670
     21  N         18.5930  -23.1140   -6.4180 N.am    1  UNL1       -0.3230
     22  H         18.7600  -23.9600   -6.9470 H       1  UNL1        0.1690
     23  C         17.4600  -23.1280   -5.5760 C.2     1  UNL1        0.0360
     24  C         17.4160  -23.7690   -4.3370 C.2     1  UNL1        0.0290
     25  C         16.2560  -23.7330   -3.5550 C.2     1  UNL1        0.0040
     26  C         15.1290  -23.0510   -4.0040 C.2     1  UNL1        0.0230
     27  C         15.1590  -22.4010   -5.2400 C.2     1  UNL1        0.0460
     28  C         14.0060  -21.6920   -5.7110 C.1     1  UNL1        0.0990
     29  C         16.3230  -22.4400   -6.0220 C.2     1  UNL1        0.0520
     30  N         13.0800  -21.1120   -6.1000 N.1     1  UNL1       -0.1910
@<TRIPOS>BOND
     1     4     5    1
     2     4     3    2
     3     1     2    3
     4     5     6    2
     5     2     3    1
     6     3     8    1
     7     6     7    1
     8     8     7    2
     9     7     9    1
    10    12     9    1
    11     9    10   am
    12    10    11    2
    13    10    13    1
    14    13    18    2
    15    13    14    1
    16    18    17    1
    17    17    16    2
    18    14    15    2
    19    15    16    1
    20    16    19    1
    21    22    21    1
    22    19    21   am
    23    19    20    2
    24    21    23    1
    25    30    28    3
    26    29    23    2
    27    29    27    1
    28    28    27    1
    29    23    24    1
    30    27    26    2
    31    24    25    2
    32    26    25    1
