@<TRIPOS>MOLECULE
80675_out_ligand_01.pdbqt
 37 40 0 0 0
SMALL
GASTEIGER

@<TRIPOS>ATOM
      1  C         23.4210  -22.2680  -12.3050 C.2     1  UNL1        0.0320
      2  C         23.6840  -23.0540  -11.1790 C.2     1  UNL1        0.0190
      3  C         22.6760  -23.3100  -10.2420 C.2     1  UNL1        0.0300
      4  C         21.3910  -22.7950  -10.4260 C.2     1  UNL1        0.0340
      5  C         21.1260  -22.0290  -11.5700 C.2     1  UNL1        0.0300
      6  C         22.1320  -21.7660  -12.5060 C.2     1  UNL1        0.0190
      7  N         20.3200  -23.0080   -9.5350 N.am    1  UNL1       -0.3260
      8  C         20.2810  -22.7380   -8.1670 C.2     1  UNL1        0.2350
      9  O         21.1900  -22.2150   -7.5280 O.2     1  UNL1       -0.2720
     10  H         19.4520  -23.3240   -9.9520 H       1  UNL1        0.1690
     11  C         18.9350  -23.1680   -7.5310 C.3     1  UNL1        0.1440
     12  C         17.7430  -22.9600   -8.4680 C.2     1  UNL1       -0.0410
     13  C         16.6200  -23.7960   -8.3560 C.2     1  UNL1        0.0080
     14  C         15.5180  -23.6250   -9.1960 C.2     1  UNL1        0.0010
     15  C         15.5190  -22.6110  -10.1520 C.2     1  UNL1        0.0000
     16  C         16.6190  -21.7640  -10.2660 C.2     1  UNL1        0.0010
     17  C         17.7230  -21.9330   -9.4260 C.2     1  UNL1        0.0080
     18  C         18.6860  -22.5930   -6.1400 C.2     1  UNL1       -0.0410
     19  C         19.0780  -21.2890   -5.7980 C.2     1  UNL1        0.0080
     20  C         18.8220  -20.7750   -4.5250 C.2     1  UNL1        0.0010
     21  C         18.1670  -21.5570   -3.5750 C.2     1  UNL1        0.0000
     22  C         17.7690  -22.8530   -3.8970 C.2     1  UNL1        0.0010
     23  C         18.0240  -23.3680   -5.1690 C.2     1  UNL1        0.0080
     24  C         24.5250  -22.0150  -13.2750 C.2     1  UNL1        0.2560
     25  O         25.6650  -22.3190  -12.9480 O.2     1  UNL1       -0.2670
     26  N         24.1300  -21.4200  -14.4570 N.am    1  UNL1       -0.3220
     27  H         23.1600  -21.1160  -14.5230 H       1  UNL1        0.1690
     28  C         24.9170  -21.0790  -15.5840 C.2     1  UNL1        0.0510
     29  C         25.6420  -19.8800  -15.6400 C.2     1  UNL1        0.0300
     30  C         26.4180  -19.5550  -16.7570 C.2     1  UNL1        0.0020
     31  C         26.4840  -20.4220  -17.8400 C.2     1  UNL1        0.0010
     32  C         25.7770  -21.6200  -17.8050 C.2     1  UNL1        0.0200
     33  C         24.9920  -21.9620  -16.6870 C.2     1  UNL1        0.0640
     34  C         24.2880  -23.2730  -16.7800 C.2     1  UNL1        0.1780
     35  O         23.2760  -23.4900  -17.4230 O.2     1  UNL1       -0.6460
     36  O         24.8610  -24.2740  -16.0800 O.3     1  UNL1       -0.7730
     37  H         24.1350  -24.5410  -15.4710 H       1  UNL1        0.1670
@<TRIPOS>BOND
     1    31    32    2
     2    31    30    1
     3    32    33    1
     4    35    34    2
     5    34    33    1
     6    34    36    1
     7    30    29    2
     8    33    28    2
     9    36    37    1
    10    29    28    1
    11    28    26    1
    12    27    26    1
    13    26    24   am
    14    24    25    2
    15    24     1    1
    16     6     1    2
    17     6     5    1
    18     1     2    1
    19     5     4    2
    20     2     3    2
    21     4     3    1
    22     4     7    1
    23    16    15    2
    24    16    17    1
    25    15    14    1
    26    10     7    1
    27     7     8   am
    28    17    12    2
    29    14    13    2
    30    12    13    1
    31    12    11    1
    32     8    11    1
    33     8     9    2
    34    11    18    1
    35    18    19    2
    36    18    23    1
    37    19    20    1
    38    23    22    2
    39    20    21    2
    40    22    21    1
