@<TRIPOS>MOLECULE
80678_out_ligand_01.pdbqt
 31 34 0 0 0
SMALL
GASTEIGER

@<TRIPOS>ATOM
      1  C         12.9290  -21.0180   -6.1310 C.1     1  UNL1        0.0180
      2  C         13.9280  -21.6370   -5.8860 C.1     1  UNL1       -0.0780
      3  C         15.1190  -22.3750   -5.5960 C.2     1  UNL1        0.0190
      4  C         15.2180  -23.0950   -4.4060 C.2     1  UNL1        0.0210
      5  C         16.3790  -23.8120   -4.1220 C.2     1  UNL1        0.0040
      6  C         17.4390  -23.8070   -5.0310 C.2     1  UNL1        0.0290
      7  C         17.3500  -23.0900   -6.2330 C.2     1  UNL1        0.0360
      8  C         16.1830  -22.3720   -6.5070 C.2     1  UNL1        0.0500
      9  N         18.4710  -23.1360   -7.0920 N.am    1  UNL1       -0.3230
     10  C         18.4670  -23.1010   -8.4730 C.2     1  UNL1        0.2560
     11  O         17.4910  -23.0880   -9.2130 O.2     1  UNL1       -0.2670
     12  H         19.3610  -23.2760   -6.6330 H       1  UNL1        0.1690
     13  C         19.8160  -23.1150   -9.1050 C.2     1  UNL1        0.0330
     14  C         20.9060  -23.7830   -8.4970 C.2     1  UNL1        0.0180
     15  C         22.1710  -23.7750   -9.0980 C.2     1  UNL1        0.0190
     16  C         22.3070  -23.0850  -10.2900 C.2     1  UNL1        0.0480
     17  C         21.2530  -22.4240  -10.8740 C.2     1  UNL1        0.0490
     18  C         23.4790  -22.8930  -11.1380 C.2     1  UNL1        0.2660
     19  C         19.9910  -22.4120  -10.3070 C.2     1  UNL1        0.0350
     20  C         21.7430  -21.8070  -12.1020 C.2     1  UNL1        0.2660
     21  O         20.9870  -21.1730  -12.8140 O.2     1  UNL1       -0.2670
     22  N         23.0870  -22.1150  -12.2110 N.am    1  UNL1       -0.2440
     23  O         24.5450  -23.3940  -10.8280 O.2     1  UNL1       -0.2670
     24  C         23.9450  -21.6960  -13.2800 C.2     1  UNL1        0.0470
     25  C         24.8780  -20.6580  -13.1100 C.2     1  UNL1        0.0300
     26  C         25.7190  -20.2430  -14.1510 C.2     1  UNL1        0.0040
     27  C         25.6480  -20.8590  -15.3940 C.2     1  UNL1        0.0210
     28  C         24.7360  -21.8890  -15.5940 C.2     1  UNL1        0.0190
     29  C         24.6550  -22.5320  -16.8700 C.1     1  UNL1       -0.0780
     30  C         23.8960  -22.3010  -14.5480 C.2     1  UNL1        0.0500
     31  C         24.5860  -23.0720  -17.9410 C.1     1  UNL1        0.0180
@<TRIPOS>BOND
     1    31    29    3
     2    29    28    1
     3    28    27    2
     4    28    30    1
     5    27    26    1
     6    30    24    2
     7    26    25    2
     8    24    25    1
     9    24    22    1
    10    21    20    2
    11    22    20   am
    12    22    18   am
    13    20    17    1
    14    18    23    2
    15    18    16    1
    16    17    19    1
    17    17    16    2
    18    19    13    2
    19    16    15    1
    20    11    10    2
    21    13    14    1
    22    13    10    1
    23    15    14    2
    24    10     9   am
    25     9    12    1
    26     9     7    1
    27     8     7    1
    28     8     3    2
    29     7     6    2
    30     1     2    3
    31     2     3    1
    32     3     4    1
    33     6     5    1
    34     4     5    2
