@<TRIPOS>MOLECULE
8068_out_ligand_01.pdbqt
 34 36 0 0 0
SMALL
GASTEIGER

@<TRIPOS>ATOM
      1  C         22.1350  -22.6040  -10.1420 C.3     1  UNL1        0.1680
      2  C         21.3060  -23.2450   -9.0140 C.2     1  UNL1        0.2410
      3  N         20.5020  -22.3350   -8.3440 N.am    1  UNL1       -0.3260
      4  H         20.6400  -21.3550   -8.5550 H       1  UNL1        0.1690
      5  O         21.3720  -24.4530   -8.7940 O.2     1  UNL1       -0.2710
      6  C         19.5700  -22.6100   -7.3210 C.2     1  UNL1        0.0340
      7  C         18.7840  -23.7630   -7.2670 C.2     1  UNL1        0.0300
      8  C         17.8750  -23.9610   -6.2190 C.2     1  UNL1        0.0190
      9  C         17.7460  -23.0040   -5.2090 C.2     1  UNL1        0.0320
     10  C         18.5180  -21.8400   -5.2680 C.2     1  UNL1        0.0190
     11  C         19.4250  -21.6470   -6.3150 C.2     1  UNL1        0.0300
     12  C         16.7970  -23.1650   -4.0750 C.2     1  UNL1        0.2490
     13  N         16.2200  -22.0340   -3.5660 N.am    1  UNL1       -0.3660
     14  H         16.2080  -21.1620   -4.0740 H       1  UNL1        0.1590
     15  H         15.4860  -22.1830   -2.8860 H       1  UNL1        0.1590
     16  O         16.5110  -24.2690   -3.6300 O.2     1  UNL1       -0.2680
     17  C         21.3290  -22.4970  -11.4480 C.3     1  UNL1        0.0680
     18  C         19.8880  -22.0680  -11.2930 C.2     1  UNL1       -0.0560
     19  C         19.5110  -20.7350  -11.5040 C.2     1  UNL1        0.0070
     20  C         18.1810  -20.3420  -11.3440 C.2     1  UNL1        0.0010
     21  C         17.2150  -21.2770  -10.9760 C.2     1  UNL1        0.0000
     22  C         17.5790  -22.6050  -10.7640 C.2     1  UNL1        0.0010
     23  C         18.9080  -23.0000  -10.9220 C.2     1  UNL1        0.0070
     24  N         23.3750  -23.3920  -10.3510 N.3     1  UNL1       -0.2020
     25  H         23.5680  -24.0480   -9.5830 H       1  UNL1        0.1410
     26  S         24.7670  -22.5230  -10.7230 S.O2    1  UNL1        0.2420
     27  O         25.8940  -23.3110  -10.2800 O.2     1  UNL1       -0.2060
     28  O         24.5700  -21.1480  -10.3200 O.2     1  UNL1       -0.2060
     29  C         24.7400  -22.5960  -12.4980 C.2     1  UNL1        0.0740
     30  C         24.2870  -21.5020  -13.2390 C.2     1  UNL1        0.0250
     31  C         24.2740  -21.5770  -14.6320 C.2     1  UNL1        0.0020
     32  C         24.7150  -22.7360  -15.2750 C.2     1  UNL1        0.0000
     33  C         25.1750  -23.8230  -14.5290 C.2     1  UNL1        0.0020
     34  C         25.1920  -23.7570  -13.1370 C.2     1  UNL1        0.0250
@<TRIPOS>BOND
     1    32    31    2
     2    32    33    1
     3    31    30    1
     4    33    34    2
     5    30    29    2
     6    34    29    1
     7    29    26    1
     8    19    20    1
     9    19    18    2
    10    17    18    1
    11    17     1    1
    12    20    21    2
    13    18    23    1
    14    21    22    1
    15    23    22    2
    16    26    24    1
    17    26    28    2
    18    26    27    2
    19    24     1    1
    20    24    25    1
    21     1     2    1
    22     2     5    2
    23     2     3   am
    24     4     3    1
    25     3     6    1
    26     6     7    2
    27     6    11    1
    28     7     8    1
    29    11    10    2
    30     8     9    2
    31    10     9    1
    32     9    12    1
    33    12    16    2
    34    12    13   am
    35    14    13    1
    36    13    15    1
