@<TRIPOS>MOLECULE
80697_out_ligand_01.pdbqt
 33 36 0 0 0
SMALL
GASTEIGER

@<TRIPOS>ATOM
      1  N         18.3940  -22.6840   -8.7110 N.am    1  UNL1       -0.2440
      2  C         18.0100  -21.9950   -9.8480 C.2     1  UNL1        0.2660
      3  O         16.9430  -21.5320  -10.2090 O.2     1  UNL1       -0.2670
      4  C         19.1930  -21.8580  -10.6910 C.2     1  UNL1        0.0480
      5  C         19.3470  -21.2670  -11.9310 C.2     1  UNL1        0.0190
      6  C         20.6250  -21.3000  -12.5030 C.2     1  UNL1        0.0180
      7  C         21.7130  -21.9080  -11.8290 C.2     1  UNL1        0.0330
      8  C         21.5190  -22.5130  -10.5790 C.2     1  UNL1        0.0350
      9  C         20.2430  -22.4610  -10.0410 C.2     1  UNL1        0.0490
     10  C         19.7410  -22.9850   -8.7770 C.2     1  UNL1        0.2660
     11  O         20.5010  -23.5510   -8.0120 O.2     1  UNL1       -0.2670
     12  C         23.0410  -21.9180  -12.5080 C.2     1  UNL1        0.2560
     13  O         23.9730  -22.4630  -11.9290 O.2     1  UNL1       -0.2670
     14  N         23.0700  -21.3300  -13.7590 N.am    1  UNL1       -0.3230
     15  H         22.1880  -21.0390  -14.1580 H       1  UNL1        0.1690
     16  C         24.1930  -21.1620  -14.6000 C.2     1  UNL1        0.0360
     17  C         25.0410  -20.0830  -14.3160 C.2     1  UNL1        0.0290
     18  C         26.1780  -19.8420  -15.0920 C.2     1  UNL1        0.0030
     19  C         26.4780  -20.6820  -16.1600 C.2     1  UNL1        0.0180
     20  C         25.6440  -21.7660  -16.4540 C.2     1  UNL1        0.0390
     21  C         24.5020  -22.0050  -15.6720 C.2     1  UNL1        0.0480
     22  C         26.0110  -22.6340  -17.6000 C.2     1  UNL1        0.1760
     23  O         27.1210  -22.7310  -18.0890 O.2     1  UNL1       -0.6460
     24  O         24.9740  -23.3410  -18.0780 O.3     1  UNL1       -0.7730
     25  H         24.2490  -22.6880  -18.1570 H       1  UNL1        0.1670
     26  C         17.5270  -23.0290   -7.6240 C.2     1  UNL1        0.0460
     27  C         16.4590  -23.9210   -7.7910 C.2     1  UNL1        0.0310
     28  C         15.6100  -24.2600   -6.7290 C.2     1  UNL1        0.0090
     29  C         15.7980  -23.7170   -5.4540 C.2     1  UNL1       -0.0560
     30  C         14.8660  -24.1020   -4.3390 C.3     1  UNL1        0.0490
     31  C         16.8560  -22.8170   -5.2560 C.2     1  UNL1       -0.0540
     32  C         17.7020  -22.4890   -6.3380 C.2     1  UNL1        0.0370
     33  C         17.1130  -22.1960   -3.9100 C.3     1  UNL1        0.0490
@<TRIPOS>BOND
     1    25    24    1
     2    23    22    2
     3    24    22    1
     4    22    20    1
     5    20    19    2
     6    20    21    1
     7    19    18    1
     8    21    16    2
     9    18    17    2
    10    16    17    1
    11    16    14    1
    12    15    14    1
    13    14    12   am
    14    12    13    2
    15    12     7    1
    16     6     5    1
    17     6     7    2
    18     5     4    2
    19     7     8    1
    20     4     9    1
    21     4     2    1
    22     8     9    2
    23     3     2    2
    24     9    10    1
    25     2     1   am
    26    10     1   am
    27    10    11    2
    28     1    26    1
    29    27    26    2
    30    27    28    1
    31    26    32    1
    32    28    29    2
    33    32    31    2
    34    29    31    1
    35    29    30    1
    36    31    33    1
