@<TRIPOS>MOLECULE
80693_out_ligand_01.pdbqt
 29 32 0 0 0
SMALL
GASTEIGER

@<TRIPOS>ATOM
      1  N         18.3930  -22.7010   -8.7030 N.am    1  UNL1       -0.2430
      2  C         18.0370  -21.9970   -9.8340 C.2     1  UNL1        0.2660
      3  O         16.9660  -21.5730  -10.2280 O.2     1  UNL1       -0.2670
      4  C         19.2380  -21.8780  -10.6560 C.2     1  UNL1        0.0480
      5  C         19.4300  -21.2460  -11.8710 C.2     1  UNL1        0.0190
      6  C         20.7040  -21.3240  -12.4440 C.2     1  UNL1        0.0180
      7  C         21.7490  -22.0240  -11.7930 C.2     1  UNL1        0.0330
      8  C         21.5160  -22.6730  -10.5700 C.2     1  UNL1        0.0350
      9  C         20.2480  -22.5750  -10.0280 C.2     1  UNL1        0.0490
     10  C         19.7020  -23.1280   -8.7910 C.2     1  UNL1        0.2660
     11  O         20.3810  -23.8050   -8.0420 O.2     1  UNL1       -0.2670
     12  C         23.1080  -22.1320  -12.3900 C.2     1  UNL1        0.2520
     13  O         23.9430  -22.8550  -11.8620 O.2     1  UNL1       -0.2680
     14  N         23.3480  -21.3720  -13.5140 N.am    1  UNL1       -0.3520
     15  H         22.6300  -20.7630  -13.8820 H       1  UNL1        0.1630
     16  C         24.6170  -21.4430  -14.2250 C.3     1  UNL1        0.0840
     17  C         25.1840  -20.0430  -14.4640 C.3     1  UNL1        0.0250
     18  C         26.5660  -20.0920  -15.1200 C.3     1  UNL1        0.0020
     19  C         26.7800  -21.3190  -16.0070 C.3     1  UNL1        0.0000
     20  C         25.4750  -21.8080  -16.6190 C.3     1  UNL1        0.0020
     21  C         24.4560  -22.2100  -15.5490 C.3     1  UNL1        0.0250
     22  C         17.4900  -23.0890   -7.6710 C.2     1  UNL1        0.0520
     23  C         16.5400  -24.0880   -7.9600 C.2     1  UNL1        0.0310
     24  C         15.5720  -24.4650   -7.0330 C.2     1  UNL1        0.0030
     25  C         15.5260  -23.8470   -5.7920 C.2     1  UNL1        0.0070
     26  C         16.4670  -22.8660   -5.4520 C.2     1  UNL1       -0.0540
     27  C         16.3860  -22.2540   -4.0770 C.3     1  UNL1        0.0490
     28  C         17.4910  -22.5140   -6.3740 C.2     1  UNL1       -0.0290
     29  C         18.5840  -21.5830   -5.9030 C.3     1  UNL1        0.0510
@<TRIPOS>BOND
     1    20    19    1
     2    20    21    1
     3    19    18    1
     4    21    16    1
     5    18    17    1
     6    17    16    1
     7    16    14    1
     8    15    14    1
     9    14    12   am
    10     6     5    1
    11     6     7    2
    12    12    13    2
    13    12     7    1
    14     5     4    2
    15     7     8    1
    16     4     9    1
    17     4     2    1
    18     8     9    2
    19     3     2    2
    20     9    10    1
    21     2     1   am
    22    10     1   am
    23    10    11    2
    24     1    22    1
    25    23    22    2
    26    23    24    1
    27    22    28    1
    28    24    25    2
    29    28    29    1
    30    28    26    2
    31    25    26    1
    32    26    27    1
