@<TRIPOS>MOLECULE
80699_out_ligand_01.pdbqt
 30 33 0 0 0
SMALL
GASTEIGER

@<TRIPOS>ATOM
      1  C         18.1100  -23.9650   -8.0670 C.2     1  UNL1        0.0770
      2  C         17.6260  -23.0360   -8.9860 C.2     1  UNL1        0.0390
      3  C         18.4960  -22.3320   -9.8230 C.2     1  UNL1        0.0330
      4  C         19.8660  -22.5840   -9.6880 C.2     1  UNL1        0.0430
      5  N         20.9390  -22.0560  -10.3690 N.pl3   1  UNL1       -0.3510
      6  C         22.1280  -22.5690   -9.8980 C.2     1  UNL1        0.1020
      7  C         21.7900  -23.4830   -8.9120 C.2     1  UNL1        0.0490
      8  C         20.3780  -23.4940   -8.7650 C.2     1  UNL1       -0.0040
      9  C         19.4860  -24.1930   -7.9290 C.2     1  UNL1        0.0510
     10  H         20.8570  -21.4030  -11.1350 H       1  UNL1        0.1660
     11  C         23.4500  -22.2380  -10.3820 C.2     1  UNL1        0.2680
     12  O         24.0560  -21.2310  -10.0350 O.2     1  UNL1       -0.2660
     13  N         23.9670  -23.1360  -11.2920 N.am    1  UNL1       -0.3470
     14  H         23.3070  -23.7110  -11.7950 H       1  UNL1        0.1630
     15  C         25.2320  -22.8800  -11.9650 C.3     1  UNL1        0.1140
     16  C         26.3780  -23.6990  -11.3610 C.3     1  UNL1        0.0370
     17  C         25.0680  -23.1470  -13.4520 C.2     1  UNL1       -0.0360
     18  C         24.6270  -22.1470  -14.3370 C.2     1  UNL1        0.0090
     19  C         24.5070  -22.4080  -15.7030 C.2     1  UNL1        0.0010
     20  C         24.8320  -23.6660  -16.2060 C.2     1  UNL1        0.0000
     21  C         25.2810  -24.6640  -15.3430 C.2     1  UNL1        0.0010
     22  C         25.4010  -24.4060  -13.9760 C.2     1  UNL1        0.0090
     23  O         17.1760  -24.5870   -7.2670 O.2     1  UNL1       -0.3110
     24  C         16.6130  -23.8440   -6.2530 C.2     1  UNL1        0.0760
     25  C         17.3180  -23.7790   -5.0520 C.2     1  UNL1        0.0370
     26  C         16.8220  -23.0120   -3.9980 C.2     1  UNL1        0.0030
     27  C         15.6290  -22.3030   -4.1500 C.2     1  UNL1        0.0070
     28  C         14.9190  -22.3550   -5.3550 C.2     1  UNL1       -0.0590
     29  C         13.6610  -21.5570   -5.5330 C.3     1  UNL1        0.0480
     30  C         15.4310  -23.1160   -6.4160 C.2     1  UNL1        0.0440
@<TRIPOS>BOND
     1    20    19    2
     2    20    21    1
     3    19    18    1
     4    21    22    2
     5    18    17    2
     6    22    17    1
     7    17    15    1
     8    15    16    1
     9    15    13    1
    10    14    13    1
    11    13    11   am
    12    10     5    1
    13    11    12    2
    14    11     6    1
    15     5     6    1
    16     5     4    1
    17     6     7    2
    18     3     4    2
    19     3     2    1
    20     4     8    1
    21     2     1    2
    22     7     8    1
    23     8     9    2
    24     1     9    1
    25     1    23    1
    26    23    24    1
    27    30    24    2
    28    30    28    1
    29    24    25    1
    30    29    28    1
    31    28    27    2
    32    25    26    2
    33    27    26    1
