@<TRIPOS>MOLECULE
80726_out_ligand_01.pdbqt
 28 31 0 0 0
SMALL
GASTEIGER

@<TRIPOS>ATOM
      1  C         16.6870  -23.3900   -8.4990 C.2     1  UNL1        0.0770
      2  C         16.1500  -22.4960   -9.4220 C.2     1  UNL1        0.0390
      3  C         16.9600  -21.8810  -10.3820 C.2     1  UNL1        0.0330
      4  C         18.3190  -22.2150  -10.3860 C.2     1  UNL1        0.0430
      5  N         19.3380  -21.7790  -11.1990 N.pl3   1  UNL1       -0.3510
      6  C         20.5370  -22.3740  -10.8640 C.2     1  UNL1        0.1020
      7  C         20.2650  -23.2180   -9.7990 C.2     1  UNL1        0.0490
      8  C         18.8780  -23.1230   -9.4900 C.2     1  UNL1       -0.0040
      9  C         18.0460  -23.7330   -8.5320 C.2     1  UNL1        0.0510
     10  H         19.2410  -21.1110  -11.9530 H       1  UNL1        0.1660
     11  C         21.7510  -22.0570  -11.5980 C.2     1  UNL1        0.2720
     12  O         21.6930  -21.3740  -12.6150 O.2     1  UNL1       -0.2660
     13  N         22.9040  -22.5820  -11.0480 N.am    1  UNL1       -0.3220
     14  H         22.7930  -23.1270  -10.2070 H       1  UNL1        0.1690
     15  C         24.2280  -22.4530  -11.5180 C.2     1  UNL1        0.0350
     16  C         25.0130  -21.4450  -10.9410 C.2     1  UNL1        0.0290
     17  C         26.3350  -21.2470  -11.3470 C.2     1  UNL1        0.0020
     18  C         26.8860  -22.0560  -12.3360 C.2     1  UNL1        0.0000
     19  C         26.1150  -23.0610  -12.9150 C.2     1  UNL1        0.0020
     20  C         24.7920  -23.2580  -12.5090 C.2     1  UNL1        0.0290
     21  O         15.8050  -23.9700   -7.6110 O.2     1  UNL1       -0.3110
     22  C         15.7610  -23.4500   -6.3370 C.2     1  UNL1        0.0760
     23  C         14.7640  -22.5670   -5.9150 C.2     1  UNL1        0.0370
     24  C         14.7660  -22.1010   -4.6020 C.2     1  UNL1        0.0030
     25  C         15.7470  -22.5320   -3.7050 C.2     1  UNL1        0.0070
     26  C         16.7260  -23.4480   -4.1110 C.2     1  UNL1       -0.0590
     27  C         17.7920  -23.8960   -3.1540 C.3     1  UNL1        0.0480
     28  C         16.7280  -23.9000   -5.4370 C.2     1  UNL1        0.0440
@<TRIPOS>BOND
     1    19    20    1
     2    19    18    2
     3    12    11    2
     4    20    15    2
     5    18    17    1
     6    10     5    1
     7    11    13   am
     8    11     6    1
     9    15    13    1
    10    15    16    1
    11    17    16    2
    12     5     6    1
    13     5     4    1
    14    13    14    1
    15     6     7    2
    16     4     3    2
    17     4     8    1
    18     3     2    1
    19     7     8    1
    20     8     9    2
    21     2     1    2
    22     9     1    1
    23     1    21    1
    24    21    22    1
    25    22    23    2
    26    22    28    1
    27    23    24    1
    28    28    26    2
    29    24    25    2
    30    26    25    1
    31    26    27    1
