@<TRIPOS>MOLECULE
80739_out_ligand_01.pdbqt
 30 33 0 0 0
SMALL
GASTEIGER

@<TRIPOS>ATOM
      1  C         18.7620  -23.6370   -7.2910 C.2     1  UNL1        0.0770
      2  C         19.0550  -22.4450   -6.6330 C.2     1  UNL1        0.0390
      3  C         20.2300  -21.7400   -6.9110 C.2     1  UNL1        0.0330
      4  C         21.1010  -22.2900   -7.8590 C.2     1  UNL1        0.0430
      5  N         22.3070  -21.8300   -8.3280 N.pl3   1  UNL1       -0.3510
      6  C         22.8450  -22.6940   -9.2580 C.2     1  UNL1        0.1020
      7  C         21.9430  -23.7370   -9.3870 C.2     1  UNL1        0.0490
      8  C         20.8440  -23.4920   -8.5140 C.2     1  UNL1       -0.0040
      9  C         19.6550  -24.1880   -8.2200 C.2     1  UNL1        0.0510
     10  H         22.7610  -20.9720   -8.0400 H       1  UNL1        0.1660
     11  C         24.1160  -22.4130   -9.8880 C.2     1  UNL1        0.2680
     12  O         24.4450  -21.2730  -10.2050 O.2     1  UNL1       -0.2660
     13  N         24.9270  -23.5040  -10.0930 N.am    1  UNL1       -0.3550
     14  H         24.6420  -24.4020   -9.7350 H       1  UNL1        0.1620
     15  C         26.2550  -23.3800  -10.6630 C.3     1  UNL1        0.1270
     16  C         26.2640  -23.6590  -12.1720 C.3     1  UNL1        0.0530
     17  C         25.7910  -22.5450  -13.0890 C.2     1  UNL1       -0.0820
     18  C         24.5630  -22.4620  -13.6350 C.2     1  UNL1       -0.0240
     19  C         24.1040  -21.3250  -14.5040 C.3     1  UNL1        0.0270
     20  C         25.0320  -20.1130  -14.4580 C.3     1  UNL1        0.0040
     21  C         26.4910  -20.5450  -14.5150 C.3     1  UNL1        0.0050
     22  C         26.8350  -21.4790  -13.3540 C.3     1  UNL1        0.0340
     23  O         17.5940  -24.2770   -6.9320 O.2     1  UNL1       -0.3110
     24  C         16.8410  -23.6970   -5.9360 C.2     1  UNL1        0.0760
     25  C         17.1280  -23.8600   -4.5790 C.2     1  UNL1        0.0370
     26  C         16.3040  -23.2660   -3.6230 C.2     1  UNL1        0.0030
     27  C         15.1870  -22.5290   -4.0220 C.2     1  UNL1        0.0070
     28  C         14.8720  -22.3930   -5.3800 C.2     1  UNL1       -0.0590
     29  C         13.6800  -21.5860   -5.8020 C.3     1  UNL1        0.0480
     30  C         15.7100  -22.9810   -6.3360 C.2     1  UNL1        0.0440
@<TRIPOS>BOND
     1    21    20    1
     2    21    22    1
     3    19    20    1
     4    19    18    1
     5    18    17    2
     6    22    17    1
     7    17    16    1
     8    16    15    1
     9    15    13    1
    10    12    11    2
    11    13    11   am
    12    13    14    1
    13    11     6    1
    14     7     6    2
    15     7     8    1
    16     6     5    1
    17     8     9    1
    18     8     4    2
    19     5    10    1
    20     5     4    1
    21     9     1    2
    22     4     3    1
    23     1    23    1
    24     1     2    1
    25    23    24    1
    26     3     2    2
    27    30    24    2
    28    30    28    1
    29    24    25    1
    30    29    28    1
    31    28    27    2
    32    25    26    2
    33    27    26    1
