@<TRIPOS>MOLECULE
80736_out_ligand_01.pdbqt
 31 33 0 0 0
SMALL
GASTEIGER

@<TRIPOS>ATOM
      1  C         21.6470  -23.4290   -8.8410 C.2     1  UNL1        0.0340
      2  C         21.2530  -22.3140   -8.0970 C.2     1  UNL1        0.0310
      3  C         20.0760  -22.3410   -7.3410 C.2     1  UNL1        0.0270
      4  C         19.2830  -23.4910   -7.3370 C.2     1  UNL1        0.0790
      5  C         19.6690  -24.6180   -8.0630 C.2     1  UNL1        0.0270
      6  C         20.8480  -24.5820   -8.8130 C.2     1  UNL1        0.0310
      7  S         17.8010  -23.5210   -6.3590 S.O2    1  UNL1        0.2580
      8  O         17.9800  -22.6000   -5.2580 O.2     1  UNL1       -0.2010
      9  O         17.4280  -24.9020   -6.1470 O.2     1  UNL1       -0.2010
     10  N         16.6790  -22.8300   -7.3860 N.3     1  UNL1       -0.3150
     11  H         16.6960  -21.8140   -7.4350 H       1  UNL1        0.1720
     12  C         16.0860  -23.6090   -8.4720 C.3     1  UNL1        0.1370
     13  C         15.8170  -22.7240   -9.6960 C.3     1  UNL1        0.0580
     14  C         17.0040  -22.1250  -10.4210 C.2     1  UNL1       -0.0570
     15  C         17.0200  -20.8220  -10.9360 C.2     1  UNL1        0.0070
     16  C         18.1390  -20.3370  -11.6190 C.2     1  UNL1        0.0010
     17  C         19.2540  -21.1490  -11.8060 C.2     1  UNL1        0.0000
     18  C         19.2520  -22.4490  -11.3110 C.2     1  UNL1        0.0010
     19  C         18.1350  -22.9340  -10.6270 C.2     1  UNL1        0.0070
     20  N         22.8250  -23.4850   -9.6110 N.am    1  UNL1       -0.3270
     21  C         23.6600  -22.4350   -9.9590 C.2     1  UNL1        0.2260
     22  O         23.4900  -21.2530   -9.6690 O.2     1  UNL1       -0.2730
     23  H         23.0550  -24.3910  -10.0040 H       1  UNL1        0.1690
     24  C         24.9180  -22.8610  -10.7080 C.3     1  UNL1        0.1410
     25  C         24.8110  -22.8140  -12.2150 C.2     1  UNL1       -0.0490
     26  C         24.1280  -21.7680  -12.8480 C.2     1  UNL1        0.0080
     27  C         24.0440  -21.7190  -14.2410 C.2     1  UNL1        0.0070
     28  C         24.6440  -22.7110  -15.0240 C.2     1  UNL1       -0.0620
     29  C         24.5120  -22.6790  -16.5180 C.3     1  UNL1        0.0480
     30  C         25.3090  -23.7670  -14.3920 C.2     1  UNL1        0.0070
     31  C         25.3970  -23.8160  -12.9990 C.2     1  UNL1        0.0080
@<TRIPOS>BOND
     1    29    28    1
     2    28    30    2
     3    28    27    1
     4    30    31    1
     5    27    26    2
     6    31    25    2
     7    26    25    1
     8    25    24    1
     9    17    16    2
    10    17    18    1
    11    16    15    1
    12    18    19    2
    13    15    14    2
    14    24    21    1
    15    19    14    1
    16    14    13    1
    17    23    20    1
    18    21    22    2
    19    21    20   am
    20    13    12    1
    21    20     1    1
    22     1     6    2
    23     1     2    1
    24     6     5    1
    25    12    10    1
    26     2     3    2
    27     5     4    2
    28    11    10    1
    29    10     7    1
    30     3     4    1
    31     4     7    1
    32     7     9    2
    33     7     8    2
