@<TRIPOS>MOLECULE
80753_out_ligand_01.pdbqt
 31 33 0 0 0
SMALL
GASTEIGER

@<TRIPOS>ATOM
      1  N         22.3510  -23.6260   -8.8380 N.am    1  UNL1       -0.3530
      2  C         21.7300  -22.5470   -8.2490 C.2     1  UNL1        0.2520
      3  O         22.3230  -21.5660   -7.8140 O.2     1  UNL1       -0.2680
      4  H         21.7750  -24.2980   -9.3270 H       1  UNL1        0.1630
      5  C         20.2320  -22.6210   -8.2630 C.2     1  UNL1        0.0430
      6  C         19.6240  -22.9630   -7.1060 C.2     1  UNL1        0.0290
      7  C         18.1820  -23.1310   -6.8700 C.2     1  UNL1       -0.0350
      8  C         17.3490  -22.0480   -6.5610 C.2     1  UNL1        0.0110
      9  C         15.9800  -22.2410   -6.3660 C.2     1  UNL1        0.0010
     10  C         15.4280  -23.5140   -6.4950 C.2     1  UNL1        0.0000
     11  C         16.2440  -24.5950   -6.8230 C.2     1  UNL1        0.0010
     12  C         17.6150  -24.4040   -7.0140 C.2     1  UNL1        0.0110
     13  C         19.5310  -22.2760   -9.5150 C.2     1  UNL1       -0.0210
     14  C         18.3440  -22.9210   -9.8860 C.2     1  UNL1        0.0120
     15  C         17.6960  -22.5820  -11.0760 C.2     1  UNL1        0.0010
     16  C         18.2250  -21.5900  -11.9010 C.2     1  UNL1        0.0000
     17  C         19.3990  -20.9330  -11.5380 C.2     1  UNL1        0.0010
     18  C         20.0480  -21.2720  -10.3490 C.2     1  UNL1        0.0120
     19  C         23.7530  -23.5830   -9.1780 C.3     1  UNL1        0.1610
     20  C         23.9480  -22.8870  -10.5050 C.2     1  UNL1       -0.0400
     21  C         22.9110  -22.8480  -11.4500 C.2     1  UNL1        0.0100
     22  C         23.0780  -22.1630  -12.6560 C.2     1  UNL1        0.0250
     23  C         24.2860  -21.5150  -12.9160 C.2     1  UNL1        0.0740
     24  C         25.3240  -21.5290  -11.9800 C.2     1  UNL1        0.0250
     25  C         25.1530  -22.2210  -10.7810 C.2     1  UNL1        0.0100
     26  S         24.5070  -20.6150  -14.4270 S.O2    1  UNL1        0.2390
     27  O         24.9160  -21.5460  -15.4510 O.2     1  UNL1       -0.2060
     28  O         25.2410  -19.4060  -14.1370 O.2     1  UNL1       -0.2060
     29  N         22.9360  -20.1110  -14.7650 N.3     1  UNL1       -0.2250
     30  H         22.7630  -19.9590  -15.7590 H       1  UNL1        0.1360
     31  H         22.2850  -20.7930  -14.3690 H       1  UNL1        0.1360
@<TRIPOS>BOND
     1    30    29    1
     2    27    26    2
     3    29    26    1
     4    29    31    1
     5    26    28    2
     6    26    23    1
     7    23    22    2
     8    23    24    1
     9    22    21    1
    10    24    25    2
    11    16    17    2
    12    16    15    1
    13    17    18    1
    14    21    20    2
    15    15    14    2
    16    25    20    1
    17    20    19    1
    18    18    13    2
    19    14    13    1
    20    13     5    1
    21     4     1    1
    22    19     1    1
    23     1     2   am
    24     5     2    1
    25     5     6    2
    26     2     3    2
    27     6     7    1
    28    12     7    2
    29    12    11    1
    30     7     8    1
    31    11    10    2
    32     8     9    2
    33    10     9    1
