@<TRIPOS>MOLECULE
80762_out_ligand_01.pdbqt
 27 29 0 0 0
SMALL
GASTEIGER

@<TRIPOS>ATOM
      1  C         20.7350  -22.1430  -11.0050 C.2     1  UNL1        0.0350
      2  C         19.7920  -21.3480  -11.6570 C.2     1  UNL1        0.0290
      3  C         18.4600  -21.3270  -11.2280 C.2     1  UNL1        0.0030
      4  C         18.0600  -22.0900  -10.1320 C.2     1  UNL1        0.0170
      5  C         19.0010  -22.8710   -9.4530 C.2     1  UNL1        0.0340
      6  C         20.3310  -22.9040   -9.9010 C.2     1  UNL1        0.0460
      7  C         18.6410  -23.7070   -8.2760 C.2     1  UNL1        0.2520
      8  O         19.3500  -24.6580   -7.9640 O.2     1  UNL1       -0.2680
      9  N         17.5170  -23.3290   -7.5710 N.am    1  UNL1       -0.3520
     10  H         17.0010  -22.5090   -7.8550 H       1  UNL1        0.1630
     11  C         17.0040  -24.1120   -6.4510 C.3     1  UNL1        0.0840
     12  C         17.7380  -23.7460   -5.1550 C.3     1  UNL1        0.0250
     13  C         17.3690  -22.4030   -4.5220 C.3     1  UNL1        0.0020
     14  C         15.9910  -22.4200   -3.8680 C.3     1  UNL1        0.0000
     15  C         14.8290  -22.0910   -4.7980 C.3     1  UNL1        0.0000
     16  C         14.9050  -22.6230   -6.2240 C.3     1  UNL1        0.0020
     17  C         15.4700  -24.0370   -6.3630 C.3     1  UNL1        0.0250
     18  N         22.0930  -22.2270  -11.3800 N.am    1  UNL1       -0.3230
     19  C         23.1890  -21.7580  -10.6780 C.2     1  UNL1        0.2560
     20  O         23.1750  -21.1330   -9.6250 O.2     1  UNL1       -0.2670
     21  H         22.2680  -22.6120  -12.2990 H       1  UNL1        0.1690
     22  C         24.5060  -22.0290  -11.3210 C.2     1  UNL1        0.0320
     23  C         24.6070  -23.1130  -12.2040 C.2     1  UNL1        0.0170
     24  C         25.8240  -23.4000  -12.8240 C.2     1  UNL1        0.0010
     25  C         26.9390  -22.6000  -12.5750 C.2     1  UNL1        0.0000
     26  C         26.8390  -21.5090  -11.7120 C.2     1  UNL1        0.0010
     27  C         25.6240  -21.2170  -11.0870 C.2     1  UNL1        0.0170
@<TRIPOS>BOND
     1    24    25    2
     2    24    23    1
     3    25    26    1
     4    21    18    1
     5    23    22    2
     6    26    27    2
     7     2     3    1
     8     2     1    2
     9    18     1    1
    10    18    19   am
    11    22    27    1
    12    22    19    1
    13     3     4    2
    14     1     6    1
    15    19    20    2
    16     4     5    1
    17     6     5    2
    18     5     7    1
    19     7     8    2
    20     7     9   am
    21    10     9    1
    22     9    11    1
    23    11    17    1
    24    11    12    1
    25    17    16    1
    26    16    15    1
    27    12    13    1
    28    15    14    1
    29    13    14    1
