@<TRIPOS>MOLECULE
80811_out_ligand_01.pdbqt
 33 35 0 0 0
SMALL
GASTEIGER

@<TRIPOS>ATOM
      1  C         19.7170  -22.6520   -7.5160 C.2     1  UNL1        0.1020
      2  C         21.0310  -22.2620   -7.7850 C.2     1  UNL1        0.0510
      3  C         21.8700  -23.1020   -8.5180 C.2     1  UNL1       -0.0330
      4  C         21.3810  -24.3330   -8.9730 C.2     1  UNL1        0.0140
      5  C         20.0570  -24.7100   -8.7210 C.2     1  UNL1        0.0400
      6  C         19.2080  -23.8700   -7.9960 C.2     1  UNL1        0.1020
      7  C         23.2480  -22.6890   -8.7920 C.2     1  UNL1        0.0140
      8  C         23.7100  -22.1440   -9.9320 C.2     1  UNL1        0.0330
      9  C         22.9590  -21.7780  -11.1280 C.ar    1  UNL1        0.0750
     10  N         21.6740  -21.3060  -10.9390 N.ar    1  UNL1       -0.3060
     11  C         20.8420  -20.8920  -11.9450 C.ar    1  UNL1        0.3270
     12  H         21.2820  -21.2510  -10.0030 H       1  UNL1        0.1710
     13  O         19.7130  -20.4700  -11.7310 O.2     1  UNL1       -0.2470
     14  N         21.3570  -20.9720  -13.2090 N.ar    1  UNL1       -0.2730
     15  C         22.6250  -21.3950  -13.5290 C.ar    1  UNL1        0.2840
     16  H         20.7630  -20.6620  -13.9660 H       1  UNL1        0.1730
     17  O         23.0220  -21.4090  -14.6880 O.2     1  UNL1       -0.2650
     18  C         23.4380  -21.8110  -12.3820 C.ar    1  UNL1        0.1970
     19  N         24.7510  -22.3060  -12.6340 N.pl3   1  UNL1       -0.1070
     20  O         24.8680  -23.5270  -12.7970 O.2     1  UNL1       -0.5310
     21  O         25.6730  -21.4800  -12.6210 O.2     1  UNL1       -0.5310
     22  O         18.9400  -21.7510   -6.8270 O.2     1  UNL1       -0.3490
     23  C         19.7140  -21.0560   -5.8410 C.3     1  UNL1        0.1710
     24  C         18.7920  -20.7030   -4.6870 C.3     1  UNL1        0.0340
     25  O         17.8900  -24.1240   -7.7400 O.2     1  UNL1       -0.3440
     26  C         17.5570  -24.6980   -6.4740 C.3     1  UNL1        0.2170
     27  C         16.5900  -23.8130   -5.7240 C.2     1  UNL1        0.0040
     28  C         15.4900  -23.1940   -6.3350 C.2     1  UNL1        0.0120
     29  C         14.6170  -22.3990   -5.5850 C.2     1  UNL1        0.0010
     30  C         14.8250  -22.2240   -4.2180 C.2     1  UNL1        0.0030
     31  C         15.9050  -22.8470   -3.5970 C.2     1  UNL1        0.0430
     32  C         16.7720  -23.6330   -4.3500 C.2     1  UNL1        0.1240
     33  F         17.8030  -24.2290   -3.7330 F       1  UNL1       -0.2050
@<TRIPOS>BOND
     1    17    15    2
     2    16    14    1
     3    15    14   ar
     4    15    18   ar
     5    14    11   ar
     6    20    19    2
     7    19    21    2
     8    19    18    1
     9    18     9   ar
    10    11    13    2
    11    11    10   ar
    12     9    10   ar
    13     9     8    1
    14    10    12    1
    15     8     7    2
    16     4     5    2
    17     4     3    1
    18     7     3    1
    19     5     6    1
    20     3     2    2
    21     6    25    1
    22     6     1    2
    23     2     1    1
    24    25    26    1
    25     1    22    1
    26    22    23    1
    27    26    27    1
    28    28    27    2
    29    28    29    1
    30    23    24    1
    31    27    32    1
    32    29    30    2
    33    32    33    1
    34    32    31    2
    35    30    31    1
