@<TRIPOS>MOLECULE
80825_out_ligand_01.pdbqt
 35 38 0 0 0
SMALL
GASTEIGER

@<TRIPOS>ATOM
      1  C         18.6770  -22.9360   -9.3030 C.2     1  UNL1        0.0800
      2  C         19.4990  -22.1300  -10.0940 C.2     1  UNL1        0.0280
      3  C         20.8680  -22.4080  -10.1790 C.2     1  UNL1        0.0380
      4  C         21.4080  -23.4900   -9.4800 C.2     1  UNL1        0.0690
      5  C         20.5690  -24.3010   -8.7080 C.2     1  UNL1        0.0380
      6  C         19.2030  -24.0320   -8.6170 C.2     1  UNL1        0.0280
      7  O         22.7190  -23.8830   -9.4910 O.2     1  UNL1       -0.3420
      8  C         23.7170  -22.8770   -9.3490 C.3     1  UNL1        0.2780
      9  C         24.3980  -22.4500  -10.6540 C.2     1  UNL1        0.2460
     10  O         25.1470  -21.4780  -10.6770 O.2     1  UNL1       -0.2710
     11  N         24.0860  -23.2830  -11.7140 N.am    1  UNL1       -0.3250
     12  H         23.4040  -24.0070  -11.5050 H       1  UNL1        0.1690
     13  C         24.5390  -23.2040  -13.0440 C.2     1  UNL1        0.0370
     14  C         25.4530  -24.1830  -13.4620 C.2     1  UNL1        0.0320
     15  C         25.9520  -24.1830  -14.7680 C.2     1  UNL1        0.0420
     16  C         25.5400  -23.2040  -15.6650 C.2     1  UNL1        0.1020
     17  C         24.6530  -22.2080  -15.2480 C.2     1  UNL1        0.1040
     18  O         26.0510  -23.2760  -16.9350 O.2     1  UNL1       -0.3460
     19  C         24.1430  -22.2160  -13.9470 C.2     1  UNL1        0.0690
     20  O         24.2300  -21.1920  -16.0690 O.2     1  UNL1       -0.3460
     21  C         25.0590  -21.0800  -17.2310 C.3     1  UNL1        0.2020
     22  C         25.3130  -22.4480  -17.8400 C.3     1  UNL1        0.2020
     23  S         16.9380  -22.5840   -9.2090 S.O2    1  UNL1        0.2630
     24  O         16.6260  -21.6920  -10.3070 O.2     1  UNL1       -0.2000
     25  O         16.2210  -23.8280   -9.0370 O.2     1  UNL1       -0.2000
     26  N         16.8210  -21.6520   -7.8050 N.pl3   1  UNL1       -0.2800
     27  H         16.1690  -20.8800   -7.9340 H       1  UNL1        0.1790
     28  C         16.8050  -22.3230   -6.5490 C.2     1  UNL1        0.0490
     29  C         17.8810  -22.2140   -5.6540 C.2     1  UNL1       -0.0350
     30  C         17.7790  -22.8430   -4.4050 C.2     1  UNL1        0.0090
     31  C         19.1120  -21.4160   -5.9780 C.3     1  UNL1        0.0500
     32  C         16.6390  -23.5730   -4.0590 C.2     1  UNL1        0.0070
     33  C         15.5780  -23.6970   -4.9610 C.2     1  UNL1       -0.0600
     34  C         14.3390  -24.4510   -4.5820 C.3     1  UNL1        0.0480
     35  C         15.6650  -23.0540   -6.2010 C.2     1  UNL1        0.0370
@<TRIPOS>BOND
     1    22    21    1
     2    22    18    1
     3    21    20    1
     4    18    16    1
     5    20    17    1
     6    16    17    2
     7    16    15    1
     8    17    19    1
     9    15    14    2
    10    19    13    2
    11    14    13    1
    12    13    11    1
    13    11    12    1
    14    11     9   am
    15    10     9    2
    16     9     8    1
    17    24    23    2
    18     3     2    1
    19     3     4    2
    20     2     1    2
    21     7     4    1
    22     7     8    1
    23     4     5    1
    24     1    23    1
    25     1     6    1
    26    23    25    2
    27    23    26    1
    28     5     6    2
    29    27    26    1
    30    26    28    1
    31    28    35    2
    32    28    29    1
    33    35    33    1
    34    31    29    1
    35    29    30    2
    36    33    34    1
    37    33    32    2
    38    30    32    1
