@<TRIPOS>MOLECULE
80821_out_ligand_01.pdbqt
 32 35 0 0 0
SMALL
GASTEIGER

@<TRIPOS>ATOM
      1  C         21.5180  -23.2760   -9.4390 C.2     1  UNL1        0.0320
      2  C         21.3220  -22.3960  -10.5090 C.2     1  UNL1        0.0170
      3  C         22.4240  -21.8960  -11.2110 C.2     1  UNL1        0.0100
      4  C         23.7280  -22.2890  -10.8730 C.2     1  UNL1       -0.0300
      5  C         23.9130  -23.1720   -9.8010 C.2     1  UNL1        0.0100
      6  C         22.8150  -23.6680   -9.0950 C.2     1  UNL1        0.0170
      7  C         20.3760  -23.8490   -8.6710 C.2     1  UNL1        0.2560
      8  O         20.3000  -25.0690   -8.5700 O.2     1  UNL1       -0.2670
      9  N         19.5170  -22.9180   -8.1120 N.am    1  UNL1       -0.3230
     10  H         19.7890  -21.9450   -8.1880 H       1  UNL1        0.1690
     11  C         18.3400  -23.1720   -7.3800 C.2     1  UNL1        0.0350
     12  C         17.2410  -23.6640   -8.0920 C.2     1  UNL1        0.0310
     13  C         16.0400  -23.9480   -7.4360 C.2     1  UNL1        0.0270
     14  C         15.9240  -23.7510   -6.0590 C.2     1  UNL1        0.0490
     15 CL         14.4070  -24.1300   -5.3240 Cl      1  UNL1       -0.0830
     16  C         17.0100  -23.2640   -5.3230 C.2     1  UNL1        0.0710
     17  C         18.2160  -22.9770   -6.0010 C.2     1  UNL1        0.0470
     18  C         16.9160  -23.0460   -3.8360 C.3     1  UNL1        0.4190
     19  F         15.9730  -22.1260   -3.4820 F       1  UNL1       -0.1660
     20  F         16.5890  -24.1780   -3.1540 F       1  UNL1       -0.1660
     21  F         18.0810  -22.5940   -3.2920 F       1  UNL1       -0.1660
     22  C         24.9260  -21.7510  -11.6340 C.3     1  UNL1        0.3110
     23  N         24.6530  -21.4660  -13.0540 N.3     1  UNL1        0.0970
     24  C         25.5430  -20.3960  -13.5350 C.3     1  UNL1        0.2770
     25  C         25.1440  -19.9490  -14.9500 C.3     1  UNL1        0.0690
     26  C         24.9550  -21.1100  -15.8910 C.2     1  UNL1       -0.0490
     27  C         24.9050  -20.8970  -17.2750 C.2     1  UNL1        0.0070
     28  C         24.7680  -22.4050  -15.3750 C.2     1  UNL1       -0.0240
     29  C         24.6950  -21.9680  -18.1460 C.2     1  UNL1        0.0010
     30  C         24.5280  -23.2550  -17.6400 C.2     1  UNL1        0.0010
     31  C         24.5670  -23.4750  -16.2630 C.2     1  UNL1        0.0090
     32  C         24.8490  -22.6730  -13.8860 C.3     1  UNL1        0.3110
@<TRIPOS>BOND
     1    29    30    2
     2    29    27    1
     3    30    31    1
     4    27    26    2
     5    31    28    2
     6    26    28    1
     7    26    25    1
     8    28    32    1
     9    25    24    1
    10    32    23    1
    11    24    23    1
    12    23    22    1
    13    22     4    1
    14     3     4    2
    15     3     2    1
    16     4     5    1
    17     2     1    2
    18     5     6    2
    19     1     6    1
    20     1     7    1
    21     7     8    2
    22     7     9   am
    23    10     9    1
    24     9    11    1
    25    12    13    1
    26    12    11    2
    27    13    14    2
    28    11    17    1
    29    14    15    1
    30    14    16    1
    31    17    16    2
    32    16    18    1
    33    18    19    1
    34    18    21    1
    35    18    20    1
