@<TRIPOS>MOLECULE
80841_out_ligand_01.pdbqt
 36 40 0 0 0
SMALL
GASTEIGER

@<TRIPOS>ATOM
      1  O         19.5810  -20.2760  -11.9560 O.2     1  UNL1       -0.2670
      2  C         19.8340  -21.3680  -11.4640 C.2     1  UNL1        0.2560
      3  N         20.9840  -22.1170  -11.6470 N.am    1  UNL1       -0.3230
      4  H         20.9780  -23.0560  -11.2730 H       1  UNL1        0.1690
      5  C         18.8070  -22.0130  -10.6010 C.2     1  UNL1        0.0320
      6  C         17.6140  -21.3570  -10.2700 C.2     1  UNL1        0.0170
      7  C         16.6700  -21.9950   -9.4600 C.2     1  UNL1        0.0100
      8  C         16.9070  -23.2890   -8.9720 C.2     1  UNL1       -0.0300
      9  C         18.0980  -23.9420   -9.3260 C.2     1  UNL1        0.0100
     10  C         19.0400  -23.3120  -10.1400 C.2     1  UNL1        0.0170
     11  C         15.8790  -23.9870   -8.1030 C.3     1  UNL1        0.3110
     12  N         16.4260  -24.4730   -6.8270 N.3     1  UNL1        0.0970
     13  C         15.6330  -23.9400   -5.6940 C.3     1  UNL1        0.2770
     14  C         16.4270  -23.5160   -4.4460 C.3     1  UNL1        0.0690
     15  C         17.5220  -22.5750   -4.8690 C.2     1  UNL1       -0.0490
     16  C         17.8520  -21.4190   -4.1610 C.2     1  UNL1        0.0070
     17  C         18.2270  -22.9160   -6.0370 C.2     1  UNL1       -0.0240
     18  C         18.8780  -20.5970   -4.6250 C.2     1  UNL1        0.0010
     19  C         19.5770  -20.9290   -5.7870 C.2     1  UNL1        0.0010
     20  C         19.2570  -22.0900   -6.4920 C.2     1  UNL1        0.0090
     21  C         17.8750  -24.2240   -6.7050 C.3     1  UNL1        0.3110
     22  C         22.1320  -21.7550  -12.3840 C.2     1  UNL1        0.0350
     23  C         22.0920  -21.1030  -13.6190 C.2     1  UNL1        0.0310
     24  C         23.2760  -20.7720  -14.2880 C.2     1  UNL1        0.0270
     25  C         24.5090  -21.0730  -13.7060 C.2     1  UNL1        0.0790
     26  C         24.5650  -21.7470  -12.4870 C.2     1  UNL1        0.0270
     27  C         23.3770  -22.0760  -11.8260 C.2     1  UNL1        0.0310
     28  S         26.0170  -20.6710  -14.5690 S.O2    1  UNL1        0.2610
     29  O         27.1210  -21.0270  -13.7050 O.2     1  UNL1       -0.2000
     30  O         25.8730  -19.3270  -15.0870 O.2     1  UNL1       -0.2000
     31  N         26.0130  -21.7350  -15.8840 N.3     1  UNL1       -0.3030
     32  C         25.9110  -23.1970  -15.6180 C.3     1  UNL1        0.1610
     33  C         24.6390  -23.7740  -16.2490 C.3     1  UNL1        0.1880
     34  O         24.5620  -23.5880  -17.6700 O.3     1  UNL1       -0.3880
     35  C         25.2890  -22.4440  -18.1380 C.3     1  UNL1        0.1880
     36  C         25.3130  -21.2980  -17.1210 C.3     1  UNL1        0.1610
@<TRIPOS>BOND
     1    35    34    1
     2    35    36    1
     3    34    33    1
     4    36    31    1
     5    33    32    1
     6    31    32    1
     7    31    28    1
     8    30    28    2
     9    28    25    1
    10    28    29    2
    11    24    25    2
    12    24    23    1
    13    25    26    1
    14    23    22    2
    15    26    27    2
    16    22    27    1
    17    22     3    1
    18     1     2    2
    19     3     2   am
    20     3     4    1
    21     2     5    1
    22     5     6    2
    23     5    10    1
    24     6     7    1
    25    10     9    2
    26     7     8    2
    27     9     8    1
    28     8    11    1
    29    11    12    1
    30    12    21    1
    31    12    13    1
    32    21    17    1
    33    20    17    1
    34    20    19    2
    35    17    15    2
    36    19    18    1
    37    13    14    1
    38    15    14    1
    39    15    16    1
    40    18    16    2
