@<TRIPOS>MOLECULE
80858_out_ligand_01.pdbqt
 36 38 0 0 0
SMALL
GASTEIGER

@<TRIPOS>ATOM
      1  N         22.4590  -22.4920  -11.0220 N.am    1  UNL1       -0.3260
      2  C         23.5000  -21.9210  -10.3050 C.2     1  UNL1        0.2400
      3  O         23.3950  -21.0620   -9.4360 O.2     1  UNL1       -0.2710
      4  H         22.7310  -23.1380  -11.7670 H       1  UNL1        0.1690
      5  C         21.0810  -22.2260  -10.9100 C.2     1  UNL1        0.0360
      6  C         20.3780  -21.3650  -11.7580 C.2     1  UNL1        0.0290
      7  C         19.0040  -21.1560  -11.5870 C.2     1  UNL1        0.0040
      8  C         18.3200  -21.8020  -10.5630 C.2     1  UNL1        0.0250
      9  C         19.0220  -22.6530   -9.7080 C.2     1  UNL1        0.0770
     10  C         20.3930  -22.8760   -9.8790 C.2     1  UNL1        0.0540
     11  S         18.1420  -23.4740   -8.3980 S.O2    1  UNL1        0.2470
     12  O         18.9950  -24.5300   -7.8860 O.2     1  UNL1       -0.2050
     13  O         16.8190  -23.7630   -8.9110 O.2     1  UNL1       -0.2050
     14  N         18.0410  -22.2430   -7.2060 N.pl3   1  UNL1       -0.1760
     15  C         19.3400  -21.8120   -6.6350 C.3     1  UNL1        0.1360
     16  C         17.0180  -22.4670   -6.2170 C.2     1  UNL1        0.0250
     17  C         15.6770  -22.1500   -6.4440 C.2     1  UNL1        0.0240
     18  C         14.7150  -22.4520   -5.4790 C.2     1  UNL1        0.0020
     19  C         15.0890  -23.0880   -4.2960 C.2     1  UNL1        0.0000
     20  C         16.4230  -23.4270   -4.0780 C.2     1  UNL1        0.0020
     21  C         17.3870  -23.1240   -5.0410 C.2     1  UNL1        0.0240
     22  C         24.8720  -22.4670  -10.7130 C.3     1  UNL1        0.2400
     23  N         25.2350  -21.9790  -12.0390 N.am    1  UNL1       -0.2560
     24  C         24.9800  -22.7990  -13.1280 C.2     1  UNL1        0.2690
     25  O         24.4410  -23.9010  -13.0300 O.2     1  UNL1       -0.2670
     26  C         25.3730  -22.2780  -14.4580 C.2     1  UNL1        0.1150
     27  C         25.9350  -21.0650  -14.5140 C.2     1  UNL1        0.1180
     28  N         26.1650  -20.2960  -13.3930 N.am    1  UNL1       -0.3130
     29  C         26.8120  -19.0010  -13.5730 C.3     1  UNL1        0.1600
     30  C         25.8400  -20.7290  -12.1170 C.2     1  UNL1        0.3310
     31  O         26.0900  -20.0760  -11.1010 O.2     1  UNL1       -0.2460
     32  C         25.1840  -23.0080  -15.7420 C.2     1  UNL1        0.2560
     33  N         24.1000  -22.6680  -16.4830 N.am    1  UNL1       -0.3660
     34  H         23.9260  -23.1550  -17.3510 H       1  UNL1        0.1590
     35  H         23.4300  -21.9680  -16.1700 H       1  UNL1        0.1590
     36  O         25.9600  -23.8770  -16.1300 O.2     1  UNL1       -0.2680
@<TRIPOS>BOND
     1    34    33    1
     2    33    35    1
     3    33    32   am
     4    36    32    2
     5    32    26    1
     6    27    26    2
     7    27    28    1
     8    26    24    1
     9    29    28    1
    10    28    30   am
    11    24    25    2
    12    24    23   am
    13    30    23   am
    14    30    31    2
    15    23    22    1
    16     4     1    1
    17     6     7    1
    18     6     5    2
    19     7     8    2
    20     1     5    1
    21     1     2   am
    22     5    10    1
    23    22     2    1
    24     8     9    1
    25     2     3    2
    26    10     9    2
    27     9    11    1
    28    13    11    2
    29    11    12    2
    30    11    14    1
    31    14    15    1
    32    14    16    1
    33    17    16    2
    34    17    18    1
    35    16    21    1
    36    18    19    2
    37    21    20    2
    38    19    20    1
