@<TRIPOS>MOLECULE
80860_out_ligand_01.pdbqt
 34 37 0 0 0
SMALL
GASTEIGER

@<TRIPOS>ATOM
      1  C         17.2130  -22.6180   -9.3370 C.2     1  UNL1        0.0820
      2  C         16.5970  -21.7740  -10.2650 C.2     1  UNL1        0.0250
      3  C         17.3600  -21.2040  -11.2780 C.2     1  UNL1        0.0040
      4  C         18.7290  -21.4770  -11.3550 C.2     1  UNL1        0.0290
      5  C         19.3520  -22.3220  -10.4240 C.2     1  UNL1        0.0360
      6  C         18.5860  -22.8870   -9.4050 C.2     1  UNL1        0.0540
      7  N         20.7320  -22.5410  -10.5900 N.am    1  UNL1       -0.3230
      8  C         21.7360  -22.4310   -9.6480 C.2     1  UNL1        0.2610
      9  O         21.5910  -22.1270   -8.4700 O.2     1  UNL1       -0.2670
     10  H         21.0410  -22.8220  -11.5180 H       1  UNL1        0.1690
     11  C         23.0620  -22.7260  -10.1690 C.2     1  UNL1        0.0990
     12  C         24.0950  -23.4250   -9.5140 C.2     1  UNL1        0.1600
     13  N         25.2030  -23.5400  -10.2470 N.2     1  UNL1       -0.1770
     14  N         24.9090  -22.9040  -11.4090 N.pl3   1  UNL1       -0.2190
     15  C         25.7350  -22.7280  -12.5280 C.2     1  UNL1        0.0360
     16  C         23.6030  -22.3970  -11.3980 C.2     1  UNL1        0.1680
     17  C         27.1210  -23.2930  -12.4760 C.3     1  UNL1        0.0700
     18  C         25.2580  -22.0640  -13.5960 C.2     1  UNL1        0.0530
     19  C         23.8520  -21.5600  -13.4970 C.2     1  UNL1        0.0350
     20  C         23.3030  -20.8140  -14.6890 C.3     1  UNL1        0.0700
     21  N         23.0720  -21.7160  -12.4660 N.2     1  UNL1       -0.2330
     22  S         16.2600  -23.3260   -8.0210 S.O2    1  UNL1        0.2630
     23  O         15.5500  -22.2400   -7.3760 O.2     1  UNL1       -0.2000
     24  O         15.5360  -24.4690   -8.5350 O.2     1  UNL1       -0.2000
     25  N         17.4190  -23.8500   -6.9180 N.pl3   1  UNL1       -0.2780
     26  H         18.1470  -24.4090   -7.3570 H       1  UNL1        0.1790
     27  C         17.7860  -22.9730   -5.8550 C.2     1  UNL1        0.0750
     28  C         18.6430  -21.9060   -6.1400 C.2     1  UNL1        0.0330
     29  C         18.9910  -21.0040   -5.1350 C.2     1  UNL1        0.0020
     30  C         18.4820  -21.1700   -3.8490 C.2     1  UNL1        0.0030
     31  C         17.6240  -22.2360   -3.5610 C.2     1  UNL1        0.0390
     32  C         17.2660  -23.1450   -4.5610 C.2     1  UNL1        0.0950
     33  O         16.4580  -24.2360   -4.3710 O.2     1  UNL1       -0.3540
     34  C         15.0570  -24.0150   -4.3070 C.3     1  UNL1        0.2100
@<TRIPOS>BOND
     1    20    19    1
     2    18    19    1
     3    18    15    2
     4    19    21    2
     5    15    17    1
     6    15    14    1
     7    21    16    1
     8    10     7    1
     9    14    16    1
    10    14    13    1
    11    16    11    2
    12     4     3    2
    13     4     5    1
    14     3     2    1
    15     7     5    1
    16     7     8   am
    17     5     6    2
    18     2     1    2
    19    13    12    2
    20    11     8    1
    21    11    12    1
    22     8     9    2
    23     6     1    1
    24     1    22    1
    25    24    22    2
    26    22    23    2
    27    22    25    1
    28    26    25    1
    29    25    27    1
    30    28    27    2
    31    28    29    1
    32    27    32    1
    33    29    30    2
    34    32    33    1
    35    32    31    2
    36    33    34    1
    37    30    31    1
