@<TRIPOS>MOLECULE
80874_out_ligand_01.pdbqt
 31 34 0 0 0
SMALL
GASTEIGER

@<TRIPOS>ATOM
      1  C         17.2330  -22.5820   -7.4570 C.2     1  UNL1       -0.0190
      2  C         15.9860  -22.8480   -8.0430 C.2     1  UNL1        0.0100
      3  C         15.8560  -22.9530   -9.4290 C.2     1  UNL1        0.0030
      4  C         16.9670  -22.7970  -10.2580 C.2     1  UNL1        0.0290
      5  C         18.2190  -22.5350   -9.7100 C.2     1  UNL1        0.0350
      6  C         18.3410  -22.4270   -8.3170 C.2     1  UNL1        0.0390
      7  N         19.3890  -22.3690  -10.4710 N.am    1  UNL1       -0.3220
      8  C         20.6310  -22.9390  -10.2700 C.2     1  UNL1        0.2740
      9  O         20.9570  -23.7140   -9.3780 O.2     1  UNL1       -0.2660
     10  H         19.3420  -21.7460  -11.2740 H       1  UNL1        0.1690
     11  C         21.6400  -22.5160  -11.2980 C.2     1  UNL1        0.1270
     12  C         21.2820  -21.6150  -12.2910 C.2     1  UNL1        0.0370
     13  C         22.2470  -21.2500  -13.2210 C.2     1  UNL1        0.0060
     14  C         23.5310  -21.7880  -13.1300 C.2     1  UNL1        0.0510
     15  C         23.8140  -22.6880  -12.1020 C.2     1  UNL1        0.1350
     16  N         22.8860  -23.0630  -11.1830 N.2     1  UNL1       -0.2250
     17  N         25.1160  -23.2500  -11.9800 N.pl3   1  UNL1       -0.3000
     18  C         26.0060  -23.1590  -10.9320 C.2     1  UNL1        0.1180
     19  C         27.1110  -23.8850  -11.3140 C.2     1  UNL1        0.1350
     20  N         26.9360  -24.4180  -12.5580 N.2     1  UNL1       -0.2540
     21  C         25.7400  -24.0220  -12.9350 C.2     1  UNL1        0.2150
     22  C         17.4160  -22.4480   -5.9480 C.3     1  UNL1        0.1390
     23  C         18.7420  -21.7800   -5.5780 C.3     1  UNL1        0.0540
     24  N         16.3200  -21.7550   -5.2960 N.am    1  UNL1       -0.3210
     25  C         15.6670  -22.5310   -4.3760 C.2     1  UNL1        0.3240
     26  H         16.0790  -20.7820   -5.4250 H       1  UNL1        0.1650
     27  O         14.7460  -22.1550   -3.6750 O.2     1  UNL1       -0.2470
     28  N         16.2280  -23.7600   -4.3680 N.am    1  UNL1       -0.2770
     29  C         17.2900  -23.8100   -5.2170 C.2     1  UNL1        0.2580
     30  H         15.9480  -24.5050   -3.7540 H       1  UNL1        0.1730
     31  O         18.0250  -24.7800   -5.3450 O.2     1  UNL1       -0.2700
@<TRIPOS>BOND
     1    13    14    2
     2    13    12    1
     3    14    15    1
     4    21    20    2
     5    21    17    1
     6    20    19    1
     7    12    11    2
     8    15    17    1
     9    15    16    2
    10    17    18    1
    11    19    18    2
    12    11    16    1
    13    11     8    1
    14    10     7    1
    15     7     8   am
    16     7     5    1
    17     8     9    2
    18     4     5    2
    19     4     3    1
    20     5     6    1
    21     3     2    2
    22     6     1    2
    23     2     1    1
    24     1    22    1
    25    22    23    1
    26    22    24    1
    27    22    29    1
    28    26    24    1
    29    31    29    2
    30    24    25   am
    31    29    28   am
    32    25    28   am
    33    25    27    2
    34    28    30    1
