@<TRIPOS>MOLECULE
80885_out_ligand_01.pdbqt
 25 27 0 0 0
SMALL
GASTEIGER

@<TRIPOS>ATOM
      1  N         18.0680  -21.0180  -11.8920 N.1     1  UNL1       -0.1910
      2  C         18.8090  -21.5610  -11.1810 C.1     1  UNL1        0.1020
      3  C         19.7640  -22.2170  -10.3320 C.2     1  UNL1        0.0720
      4  C         21.1100  -22.1050  -10.7450 C.2     1  UNL1        0.0490
      5  C         22.1320  -22.6520   -9.9730 C.2     1  UNL1        0.0750
      6  C         21.8300  -23.3240   -8.8000 C.2     1  UNL1        0.0270
      7  C         20.4940  -23.4310   -8.3950 C.2     1  UNL1        0.0320
      8  C         19.4120  -22.8950   -9.1350 C.2     1  UNL1        0.0510
      9  N         18.1240  -23.0540   -8.6560 N.pl3   1  UNL1       -0.3790
     10  C         17.0110  -22.1150   -8.8420 C.3     1  UNL1        0.1230
     11  C         15.7560  -22.9320   -8.5330 C.3     1  UNL1        0.0300
     12  C         16.2260  -23.9620   -7.5080 C.3     1  UNL1        0.0380
     13  C         17.6420  -24.2910   -8.0180 C.3     1  UNL1        0.1320
     14  C         16.1190  -23.4400   -6.0840 C.2     1  UNL1       -0.0520
     15  C         17.1630  -23.7180   -5.1850 C.2     1  UNL1        0.0070
     16  C         17.1100  -23.2740   -3.8630 C.2     1  UNL1        0.0010
     17  C         16.0090  -22.5480   -3.4150 C.2     1  UNL1        0.0000
     18  C         14.9610  -22.2730   -4.2890 C.2     1  UNL1        0.0010
     19  C         15.0150  -22.7150   -5.6130 C.2     1  UNL1        0.0070
     20  S         23.8110  -22.5160  -10.5180 S.O2    1  UNL1        0.2390
     21  O         24.2860  -21.1930  -10.1940 O.2     1  UNL1       -0.2060
     22  O         23.9060  -23.0760  -11.8470 O.2     1  UNL1       -0.2060
     23  N         24.5860  -23.6130   -9.5060 N.3     1  UNL1       -0.2250
     24  H         25.5030  -23.8390   -9.8980 H       1  UNL1        0.1360
     25  H         24.0400  -24.4500   -9.3050 H       1  UNL1        0.1360
@<TRIPOS>BOND
     1     1     2    3
     2    22    20    2
     3     2     3    1
     4     4     3    2
     5     4     5    1
     6    20    21    2
     7    20     5    1
     8    20    23    1
     9     3     8    1
    10     5     6    2
    11    24    23    1
    12    23    25    1
    13     8     9    1
    14     8     7    2
    15    10     9    1
    16    10    11    1
    17     6     7    1
    18     9    13    1
    19    11    12    1
    20    13    12    1
    21    12    14    1
    22    14    19    2
    23    14    15    1
    24    19    18    1
    25    15    16    2
    26    18    17    2
    27    16    17    1
