@<TRIPOS>MOLECULE
80884_out_ligand_01.pdbqt
 32 35 0 0 0
SMALL
GASTEIGER

@<TRIPOS>ATOM
      1  C         20.2190  -22.2210   -9.9550 C.2     1  UNL1        0.0350
      2  C         19.9340  -21.7680  -11.2440 C.2     1  UNL1        0.0290
      3  C         20.9520  -21.6490  -12.1940 C.2     1  UNL1        0.0030
      4  C         22.2660  -21.9700  -11.8630 C.2     1  UNL1        0.0110
      5  C         22.5730  -22.4060  -10.5710 C.2     1  UNL1       -0.0320
      6  C         21.5440  -22.5450   -9.6290 C.2     1  UNL1        0.0410
      7  C         23.9490  -22.7310  -10.1820 C.2     1  UNL1        0.0390
      8  C         25.0050  -22.9440  -10.9900 C.2     1  UNL1        0.0800
      9 CL         26.5240  -23.3800  -10.2630 Cl      1  UNL1       -0.0800
     10  C         24.9950  -22.8610  -12.4090 C.ar    1  UNL1        0.1500
     11  N         24.8580  -23.8130  -13.3170 N.ar    1  UNL1       -0.2270
     12  C         24.9520  -23.2000  -14.5380 C.ar    1  UNL1        0.0890
     13  C         24.8600  -23.7510  -15.8240 C.2     1  UNL1        0.0790
     14  C         25.1740  -21.8370  -14.3890 C.ar    1  UNL1        0.0660
     15  C         24.9920  -22.8900  -16.9130 C.2     1  UNL1        0.1570
     16  F         24.9070  -23.3940  -18.1530 F       1  UNL1       -0.2030
     17  C         25.2110  -21.5250  -16.7380 C.2     1  UNL1        0.1570
     18  F         25.3340  -20.7270  -17.8090 F       1  UNL1       -0.2030
     19  C         25.3080  -20.9570  -15.4660 C.2     1  UNL1        0.0770
     20  N         25.2150  -21.6490  -13.0310 N.ar    1  UNL1       -0.3380
     21  H         25.3610  -20.7660  -12.5630 H       1  UNL1        0.1670
     22  N         19.2520  -22.3780   -8.9400 N.am    1  UNL1       -0.3230
     23  C         19.0080  -23.4990   -8.1700 C.2     1  UNL1        0.2570
     24  O         19.6130  -24.5640   -8.2320 O.2     1  UNL1       -0.2670
     25  H         18.6450  -21.5810   -8.7830 H       1  UNL1        0.1690
     26  C         17.9380  -23.3670   -7.1370 C.2     1  UNL1        0.0540
     27  C         16.8210  -24.2090   -7.2910 C.2     1  UNL1        0.0190
     28  C         15.7640  -24.1730   -6.3800 C.2     1  UNL1        0.0010
     29  C         15.8050  -23.2900   -5.3050 C.2     1  UNL1        0.0020
     30  C         16.8990  -22.4370   -5.1480 C.2     1  UNL1        0.0250
     31  C         17.9630  -22.4680   -6.0600 C.2     1  UNL1        0.0490
     32 CL         19.2420  -21.3360   -5.7900 Cl      1  UNL1       -0.0830
@<TRIPOS>BOND
     1    16    15    1
     2    18    17    1
     3    15    17    2
     4    15    13    1
     5    17    19    1
     6    13    12    2
     7    19    14    2
     8    12    14   ar
     9    12    11   ar
    10    14    20   ar
    11    11    10   ar
    12    20    21    1
    13    20    10   ar
    14    10     8    1
    15     3     4    2
    16     3     2    1
    17     4     5    1
    18     2     1    2
    19     8     9    1
    20     8     7    2
    21     5     7    1
    22     5     6    2
    23     1     6    1
    24     1    22    1
    25    22    25    1
    26    22    23   am
    27    24    23    2
    28    23    26    1
    29    27    26    2
    30    27    28    1
    31    26    31    1
    32    28    29    2
    33    31    32    1
    34    31    30    2
    35    29    30    1
