@<TRIPOS>MOLECULE
80895_out_ligand_01.pdbqt
 34 38 0 0 0
SMALL
GASTEIGER

@<TRIPOS>ATOM
      1  C         22.7440  -22.8960  -10.2540 C.3     1  UNL1        0.1390
      2  N         24.0370  -23.2020   -9.9950 N.2     1  UNL1       -0.2150
      3  C         25.0220  -22.8620  -10.8510 C.2     1  UNL1        0.1330
      4  N         24.8240  -22.2130  -12.0020 N.pl3   1  UNL1       -0.2250
      5  C         23.5420  -21.9140  -12.2460 C.2     1  UNL1        0.1140
      6  S         23.1290  -21.0730  -13.6700 S.3     1  UNL1       -0.0800
      7  C         21.4730  -21.0800  -13.2630 C.2     1  UNL1        0.0650
      8  C         21.2330  -21.7140  -12.0590 C.2     1  UNL1       -0.0030
      9  C         22.4490  -22.2080  -11.4480 C.2     1  UNL1        0.0570
     10  N         21.7660  -23.2770   -9.3390 N.3     1  UNL1       -0.3740
     11  H         20.8520  -23.4260   -9.7530 H       1  UNL1        0.1610
     12  C         21.7650  -22.6390   -8.0280 C.3     1  UNL1        0.1260
     13  C         20.6260  -21.6230   -7.8910 C.3     1  UNL1        0.0580
     14  C         19.5480  -22.1120   -6.9540 C.2     1  UNL1       -0.0570
     15  C         19.1730  -21.3510   -5.8360 C.2     1  UNL1        0.0090
     16  C         18.1670  -21.8010   -4.9790 C.2     1  UNL1        0.0250
     17  C         17.5290  -23.0130   -5.2470 C.2     1  UNL1        0.0740
     18  C         17.8950  -23.7870   -6.3500 C.2     1  UNL1        0.0250
     19  C         18.8990  -23.3310   -7.2050 C.2     1  UNL1        0.0090
     20  S         16.2540  -23.5990   -4.1610 S.O2    1  UNL1        0.2390
     21  O         15.1290  -24.0220   -4.9590 O.2     1  UNL1       -0.2060
     22  O         16.8580  -24.4420   -3.1540 O.2     1  UNL1       -0.2060
     23  N         15.8200  -22.1810   -3.3610 N.3     1  UNL1       -0.2250
     24  H         15.6140  -21.4600   -4.0550 H       1  UNL1        0.1360
     25  H         15.0510  -22.3100   -2.7040 H       1  UNL1        0.1360
     26  C         26.4330  -23.2350  -10.4490 C.3     1  UNL1        0.0570
     27  C         26.7460  -24.5170   -9.7140 C.3     1  UNL1        0.0130
     28  C         27.1210  -24.3800  -11.1600 C.3     1  UNL1        0.0130
     29  C         19.8710  -21.8180  -11.5610 C.2     1  UNL1       -0.0240
     30  C         19.4250  -23.0090  -10.9770 C.2     1  UNL1        0.0120
     31  C         18.1200  -23.1030  -10.4860 C.2     1  UNL1        0.0010
     32  C         17.2580  -22.0100  -10.5810 C.2     1  UNL1        0.0000
     33  C         17.6990  -20.8210  -11.1640 C.2     1  UNL1        0.0010
     34  C         19.0020  -20.7230  -11.6530 C.2     1  UNL1        0.0120
@<TRIPOS>BOND
     1     6     7    1
     2     6     5    1
     3     7     8    2
     4     5     4    1
     5     5     9    2
     6     8    29    1
     7     8     9    1
     8     4     3    1
     9    34    29    2
    10    34    33    1
    11    29    30    1
    12     9     1    1
    13    33    32    2
    14    28    26    1
    15    28    27    1
    16    30    31    2
    17     3    26    1
    18     3     2    2
    19    32    31    1
    20    26    27    1
    21     1     2    1
    22     1    10    1
    23    11    10    1
    24    10    12    1
    25    12    13    1
    26    13    14    1
    27    19    14    2
    28    19    18    1
    29    14    15    1
    30    18    17    2
    31    15    16    2
    32    17    16    1
    33    17    20    1
    34    21    20    2
    35    20    23    1
    36    20    22    2
    37    24    23    1
    38    23    25    1
