@<TRIPOS>MOLECULE
80906_out_ligand_01.pdbqt
 27 29 0 0 0
SMALL
GASTEIGER

@<TRIPOS>ATOM
      1  S         20.2240  -23.9050   -9.1970 S.O2    1  UNL1        0.2630
      2  O         19.4210  -23.8360  -10.4000 O.2     1  UNL1       -0.2000
      3  O         20.8790  -25.1350   -8.8070 O.2     1  UNL1       -0.2000
      4  N         21.3710  -22.6690   -9.3260 N.pl3   1  UNL1       -0.2810
      5  H         21.0900  -21.8590   -8.7740 H       1  UNL1        0.1790
      6  C         21.9460  -22.4290  -10.6010 C.2     1  UNL1        0.0420
      7  C         23.1850  -22.9830  -10.9210 C.2     1  UNL1        0.0310
      8  C         23.7760  -22.7060  -12.1580 C.2     1  UNL1        0.0190
      9  C         23.1280  -21.8630  -13.0710 C.2     1  UNL1        0.0320
     10  C         21.8790  -21.3200  -12.7440 C.2     1  UNL1        0.0190
     11  C         21.2920  -21.5970  -11.5070 C.2     1  UNL1        0.0310
     12  C         23.7120  -21.5330  -14.3990 C.2     1  UNL1        0.2490
     13  N         23.4120  -20.3130  -14.9390 N.am    1  UNL1       -0.3660
     14  H         23.7190  -20.1690  -15.8930 H       1  UNL1        0.1590
     15  H         22.6310  -19.7580  -14.6190 H       1  UNL1        0.1590
     16  O         24.4100  -22.3330  -15.0090 O.2     1  UNL1       -0.2680
     17  C         19.2080  -23.3470   -7.8500 C.2     1  UNL1        0.0800
     18  C         19.6570  -22.2920   -7.0450 C.2     1  UNL1        0.0280
     19  C         18.8590  -21.8450   -5.9950 C.2     1  UNL1        0.0400
     20  C         17.6240  -22.4550   -5.7730 C.2     1  UNL1        0.0890
     21  O         16.8520  -21.9730   -4.6980 O.3     1  UNL1       -0.2750
     22  C         17.1630  -23.4990   -6.5770 C.2     1  UNL1       -0.0010
     23  C         15.6090  -22.5180   -4.4040 C.2     1  UNL1        0.2880
     24  O         14.9200  -22.1160   -3.4750 O.2     1  UNL1       -0.2600
     25  C         15.1420  -23.6170   -5.2670 C.2     1  UNL1        0.0830
     26  C         15.8640  -24.0850   -6.2900 C.2     1  UNL1        0.0200
     27  C         17.9600  -23.9460   -7.6310 C.2     1  UNL1        0.0390
@<TRIPOS>BOND
     1    14    13    1
     2    16    12    2
     3    13    15    1
     4    13    12   am
     5    12     9    1
     6     9    10    2
     7     9     8    1
     8    10    11    1
     9     8     7    2
    10    11     6    2
    11     7     6    1
    12     6     4    1
    13     2     1    2
    14     4     1    1
    15     4     5    1
    16     1     3    2
    17     1    17    1
    18    17    27    2
    19    17    18    1
    20    27    22    1
    21    18    19    2
    22    22    26    1
    23    22    20    2
    24    26    25    2
    25    19    20    1
    26    20    21    1
    27    25    23    1
    28    21    23    1
    29    23    24    2
