@<TRIPOS>MOLECULE
80918_out_ligand_01.pdbqt
 27 29 0 0 0
SMALL
GASTEIGER

@<TRIPOS>ATOM
      1  C         21.0130  -23.2440   -8.2630 C.3     1  UNL1        0.2750
      2  N         21.7070  -22.6900   -9.4270 N.3     1  UNL1        0.0930
      3  H         21.8980  -21.7010   -9.2840 H       1  UNL1        0.3160
      4  C         21.0740  -22.8820  -10.7320 C.3     1  UNL1        0.2580
      5  C         19.6400  -22.4240  -10.7910 C.2     1  UNL1       -0.0160
      6  C         18.5440  -22.9710  -10.1410 C.2     1  UNL1        0.0520
      7  C         19.5030  -21.2840  -11.6000 C.2     1  UNL1       -0.0490
      8  C         17.3080  -22.3590  -10.3210 C.2     1  UNL1        0.1170
      9  C         17.1630  -21.2220  -11.1260 C.2     1  UNL1        0.0430
     10  F         16.2300  -22.8630   -9.7060 F       1  UNL1       -0.2060
     11  C         18.2720  -20.6690  -11.7710 C.2     1  UNL1        0.0110
     12  C         20.8270  -20.8530  -12.1520 C.3     1  UNL1        0.0460
     13  C         21.6630  -22.1360  -11.9660 C.3     1  UNL1        0.0230
     14  C         23.1630  -21.8840  -11.9470 C.3     1  UNL1        0.0120
     15  C         20.5000  -22.1300   -7.3310 C.3     1  UNL1        0.0680
     16  C         19.2360  -22.4920   -6.5830 C.2     1  UNL1       -0.0560
     17  C         18.5730  -23.6990   -6.8540 C.2     1  UNL1        0.0090
     18  C         17.4160  -24.0450   -6.1550 C.2     1  UNL1        0.0250
     19  C         16.9160  -23.1750   -5.1830 C.2     1  UNL1        0.0740
     20  C         17.5720  -21.9780   -4.8900 C.2     1  UNL1        0.0250
     21  C         18.7290  -21.6390   -5.5920 C.2     1  UNL1        0.0090
     22  S         15.4470  -23.6000   -4.2890 S.O2    1  UNL1        0.2390
     23  O         15.8070  -24.4600   -3.1870 O.2     1  UNL1       -0.2060
     24  O         14.4070  -23.9380   -5.2350 O.2     1  UNL1       -0.2060
     25  N         15.0020  -22.1030   -3.6530 N.3     1  UNL1       -0.2250
     26  H         15.3470  -21.9560   -2.7060 H       1  UNL1        0.1360
     27  H         15.3180  -21.3710   -4.2920 H       1  UNL1        0.1360
@<TRIPOS>BOND
     1    12    13    1
     2    12     7    1
     3    13    14    1
     4    13     4    1
     5    11     7    1
     6    11     9    2
     7     7     5    2
     8     9     8    1
     9     5     4    1
    10     5     6    1
    11     4     2    1
    12     8     6    2
    13     8    10    1
    14     2     3    1
    15     2     1    1
    16     1    15    1
    17    15    16    1
    18    17    16    2
    19    17    18    1
    20    16    21    1
    21    18    19    2
    22    21    20    2
    23    24    22    2
    24    19    20    1
    25    19    22    1
    26    27    25    1
    27    22    25    1
    28    22    23    2
    29    25    26    1
