@<TRIPOS>MOLECULE
80955_out_ligand_01.pdbqt
 28 30 0 0 0
SMALL
GASTEIGER

@<TRIPOS>ATOM
      1  N         20.4590  -21.8360  -10.4680 N.am    1  UNL1       -0.3080
      2  C         19.3360  -21.3270  -11.0840 C.2     1  UNL1        0.3220
      3  O         19.3490  -20.5800  -12.0590 O.2     1  UNL1       -0.2470
      4  N         18.1350  -21.7160  -10.4820 N.am    1  UNL1       -0.3340
      5  C         16.9080  -21.1570  -11.0270 C.3     1  UNL1        0.1540
      6  H         20.3260  -22.0490   -9.4940 H       1  UNL1        0.1700
      7  C         21.7990  -21.7610  -10.9120 C.2     1  UNL1        0.0430
      8  C         22.1330  -21.7090  -12.2730 C.2     1  UNL1        0.0470
      9  C         23.4720  -21.6750  -12.6840 C.2     1  UNL1        0.0340
     10  C         24.4920  -21.6700  -11.7300 C.2     1  UNL1        0.0170
     11  C         24.1730  -21.7270  -10.3750 C.2     1  UNL1        0.0100
     12  C         22.8340  -21.7820   -9.9500 C.2     1  UNL1       -0.0350
     13  C         22.5580  -21.8480   -8.4700 C.3     1  UNL1        0.0500
     14  C         23.7710  -21.6350  -14.1410 C.2     1  UNL1        0.2490
     15  N         23.2670  -20.5810  -14.8550 N.am    1  UNL1       -0.3660
     16  H         23.6030  -20.5070  -15.8070 H       1  UNL1        0.1590
     17  H         22.9690  -19.7300  -14.4020 H       1  UNL1        0.1590
     18  O         24.4670  -22.4780  -14.6900 O.2     1  UNL1       -0.2680
     19  C         17.9930  -22.9460   -9.7020 C.3     1  UNL1        0.1650
     20  C         17.6540  -22.7150   -8.2430 C.2     1  UNL1       -0.0370
     21  C         18.7010  -22.4640   -7.3230 C.2     1  UNL1        0.0120
     22  C         18.4360  -22.2530   -5.9660 C.2     1  UNL1        0.0400
     23  C         17.1250  -22.3100   -5.5540 C.2     1  UNL1        0.1050
     24  C         16.1010  -22.5700   -6.4320 C.2     1  UNL1        0.1050
     25  O         16.6820  -22.1290   -4.2810 O.2     1  UNL1       -0.3230
     26  C         16.3310  -22.7830   -7.7760 C.2     1  UNL1        0.0480
     27  O         14.8860  -22.5900   -5.8230 O.2     1  UNL1       -0.3230
     28  C         15.2620  -22.3130   -4.4580 C.3     1  UNL1        0.3520
@<TRIPOS>BOND
     1    16    15    1
     2    15    17    1
     3    15    14   am
     4    18    14    2
     5    14     9    1
     6     9     8    1
     7     9    10    2
     8     8     7    2
     9     3     2    2
    10    10    11    1
    11     2     4   am
    12     2     1   am
    13     5     4    1
    14     7     1    1
    15     7    12    1
    16     4    19    1
    17     1     6    1
    18    11    12    2
    19    12    13    1
    20    19    20    1
    21    20    26    2
    22    20    21    1
    23    26    24    1
    24    21    22    2
    25    24    27    1
    26    24    23    2
    27    22    23    1
    28    27    28    1
    29    23    25    1
    30    28    25    1
