@<TRIPOS>MOLECULE
80962_out_ligand_01.pdbqt
 33 36 0 0 0
SMALL
GASTEIGER

@<TRIPOS>ATOM
      1  C         22.1820  -21.5920  -12.5340 C.2     1  UNL1        0.0540
      2  C         22.7230  -20.9310  -13.6460 C.2     1  UNL1        0.0190
      3  C         23.9310  -21.3660  -14.1960 C.2     1  UNL1        0.0010
      4  C         24.5960  -22.4620  -13.6450 C.2     1  UNL1        0.0020
      5  C         24.0540  -23.1320  -12.5460 C.2     1  UNL1        0.0250
      6  C         22.8430  -22.7100  -11.9940 C.2     1  UNL1        0.0380
      7  N         22.3570  -23.3710  -10.8160 N.pl3   1  UNL1       -0.1800
      8  H         21.3270  -23.4260  -10.7730 H       1  UNL1        0.1460
      9  S         22.9150  -22.7570   -9.3340 S.O2    1  UNL1        0.2450
     10  O         23.2020  -21.3530   -9.5340 O.2     1  UNL1       -0.2060
     11  O         23.9010  -23.6630   -8.7820 O.2     1  UNL1       -0.2060
     12  C         21.4510  -22.8370   -8.3270 C.2     1  UNL1        0.0750
     13  C         20.5940  -23.9370   -8.4610 C.2     1  UNL1        0.0270
     14  C         19.4460  -24.0100   -7.6760 C.2     1  UNL1        0.0400
     15  C         19.1730  -22.9790   -6.7760 C.2     1  UNL1        0.0890
     16  O         18.0050  -23.0960   -5.9990 O.3     1  UNL1       -0.2750
     17  C         20.0160  -21.8740   -6.6450 C.2     1  UNL1       -0.0010
     18  C         17.6530  -22.1190   -5.0770 C.2     1  UNL1        0.2880
     19  O         16.6470  -22.2030   -4.3830 O.2     1  UNL1       -0.2600
     20  C         18.5530  -20.9580   -4.9600 C.2     1  UNL1        0.0830
     21  C         19.6660  -20.8340   -5.6910 C.2     1  UNL1        0.0200
     22  C         21.1660  -21.8000   -7.4300 C.2     1  UNL1        0.0390
     23  C         20.8850  -21.1500  -11.9550 C.2     1  UNL1        0.2580
     24  N         19.9340  -22.1440  -11.8290 N.am    1  UNL1       -0.3230
     25  H         20.1420  -23.0340  -12.2640 H       1  UNL1        0.1690
     26  O         20.7630  -19.9600  -11.6800 O.2     1  UNL1       -0.2670
     27  C         18.6420  -22.0270  -11.2740 C.2     1  UNL1        0.0350
     28  C         17.9130  -20.8740  -11.5930 C.2     1  UNL1        0.0290
     29  C         16.6260  -20.6820  -11.0850 C.2     1  UNL1        0.0030
     30  C         16.0520  -21.6460  -10.2590 C.2     1  UNL1        0.0070
     31  C         16.7560  -22.8120   -9.9450 C.2     1  UNL1       -0.0600
     32  C         16.1580  -23.8360   -9.0260 C.3     1  UNL1        0.0480
     33  C         18.0560  -22.9890  -10.4490 C.2     1  UNL1        0.0360
@<TRIPOS>BOND
     1     3     2    1
     2     3     4    2
     3     2     1    2
     4     4     5    1
     5     5     6    2
     6     1     6    1
     7     1    23    1
     8    25    24    1
     9     6     7    1
    10    23    24   am
    11    23    26    2
    12    24    27    1
    13    28    27    2
    14    28    29    1
    15    27    33    1
    16    29    30    2
    17     7     8    1
    18     7     9    1
    19    33    31    2
    20    30    31    1
    21    31    32    1
    22    10     9    2
    23     9    11    2
    24     9    12    1
    25    13    12    2
    26    13    14    1
    27    12    22    1
    28    14    15    2
    29    22    17    2
    30    15    17    1
    31    15    16    1
    32    17    21    1
    33    16    18    1
    34    21    20    2
    35    18    20    1
    36    18    19    2
