@<TRIPOS>MOLECULE
80_out_ligand_01.pdbqt
 28 31 0 0 0
SMALL
GASTEIGER

@<TRIPOS>ATOM
      1  N         19.3050  -23.2530   -9.7500 N.3     1  UNL1        0.0930
      2  C         19.9250  -24.1410   -8.7710 C.3     1  UNL1        0.2730
      3  C         21.3910  -24.0760   -9.1630 C.3     1  UNL1        0.0430
      4  C         21.5970  -22.6280   -9.6270 C.3     1  UNL1        0.0690
      5  C         20.1750  -22.0700   -9.8030 C.3     1  UNL1        0.2830
      6  C         22.4430  -22.5270  -10.8610 C.2     1  UNL1        0.0650
      7  C         23.6010  -23.2720  -11.1910 C.2     1  UNL1        0.0810
      8  C         24.0010  -22.8120  -12.4210 C.2     1  UNL1        0.1550
      9  N         25.0410  -23.1580  -13.2400 N.2     1  UNL1       -0.2340
     10  N         23.0900  -21.8190  -12.7650 N.pl3   1  UNL1       -0.1930
     11  C         25.1400  -22.5050  -14.3640 C.2     1  UNL1        0.0370
     12  C         26.2630  -22.8720  -15.3010 C.3     1  UNL1        0.0700
     13  C         24.2070  -21.4230  -14.8180 C.2     1  UNL1        0.0840
     14  C         23.2090  -21.1260  -13.9760 C.2     1  UNL1        0.1670
     15  N         22.1330  -21.6380  -11.8160 N.2     1  UNL1       -0.1680
     16  O         22.2800  -20.1460  -14.2850 O.2     1  UNL1       -0.3450
     17  H         21.4300  -20.6240  -14.4090 H       1  UNL1        0.2190
     18  C         17.9120  -22.9440   -9.4260 C.3     1  UNL1        0.3110
     19  C         17.6410  -22.9440   -7.9320 C.2     1  UNL1       -0.0240
     20  C         16.6800  -23.7900   -7.3380 C.2     1  UNL1       -0.0510
     21  C         16.4610  -23.7160   -5.9490 C.2     1  UNL1        0.0440
     22  C         15.8590  -24.7490   -8.1550 C.3     1  UNL1        0.0490
     23  C         17.1760  -22.8210   -5.1450 C.2     1  UNL1        0.0740
     24  C         18.1270  -21.9740   -5.7330 C.2     1  UNL1       -0.0280
     25  C         18.3550  -22.0480   -7.1160 C.2     1  UNL1        0.0190
     26  C         18.9180  -21.0060   -4.8990 C.3     1  UNL1        0.0510
     27  O         17.0190  -22.6880   -3.7890 O.2     1  UNL1       -0.3550
     28  C         16.0780  -23.5440   -3.1540 C.3     1  UNL1        0.2100
@<TRIPOS>BOND
     1    12    11    1
     2    13    11    1
     3    13    14    2
     4    17    16    1
     5    11     9    2
     6    16    14    1
     7    14    10    1
     8     9     8    1
     9    10     8    1
    10    10    15    1
    11     8     7    2
    12    15     6    2
    13     7     6    1
    14     6     4    1
    15     5     1    1
    16     5     4    1
    17     1    18    1
    18     1     2    1
    19     4     3    1
    20    18    19    1
    21     3     2    1
    22    22    20    1
    23    19    20    2
    24    19    25    1
    25    20    21    1
    26    25    24    2
    27    21    23    2
    28    24    23    1
    29    24    26    1
    30    23    27    1
    31    27    28    1
