@<TRIPOS>MOLECULE
81015_out_ligand_01.pdbqt
 33 36 0 0 0
SMALL
GASTEIGER

@<TRIPOS>ATOM
      1  C         23.0980  -22.6430  -12.1200 C.2     1  UNL1        0.0380
      2  C         24.2810  -23.0090  -12.7650 C.2     1  UNL1        0.0250
      3  C         24.6930  -22.3260  -13.9120 C.2     1  UNL1        0.0020
      4  C         23.9230  -21.2790  -14.4210 C.2     1  UNL1        0.0010
      5  C         22.7350  -20.9120  -13.7870 C.2     1  UNL1        0.0190
      6  C         22.3100  -21.6030  -12.6420 C.2     1  UNL1        0.0540
      7  N         22.6620  -23.4190  -10.9940 N.pl3   1  UNL1       -0.1800
      8  H         22.9400  -24.4120  -11.0450 H       1  UNL1        0.1460
      9  S         23.1020  -22.8250   -9.4650 S.O2    1  UNL1        0.2460
     10  O         23.3820  -21.4080   -9.5680 O.2     1  UNL1       -0.2060
     11  O         24.0620  -23.7490   -8.9040 O.2     1  UNL1       -0.2060
     12  C         21.5960  -23.0350   -8.5420 C.2     1  UNL1        0.0770
     13  C         21.1830  -22.0060   -7.6860 C.2     1  UNL1        0.0640
     14  C         20.0110  -22.2110   -6.9930 C.ar    1  UNL1        0.1090
     15  O         19.4420  -21.3210   -6.0970 O.2     1  UNL1       -0.2590
     16  C         19.2700  -23.3680   -7.1380 C.ar    1  UNL1        0.0730
     17  C         18.2830  -21.9990   -5.6860 C.ar    1  UNL1        0.3720
     18  N         18.1840  -23.2250   -6.3100 N.ar    1  UNL1       -0.2950
     19  O         17.4930  -21.5330   -4.8770 O.2     1  UNL1       -0.2380
     20  C         17.1290  -24.1820   -6.1400 C.3     1  UNL1        0.1620
     21  C         19.6500  -24.3920   -7.9820 C.2     1  UNL1        0.0340
     22  C         20.8380  -24.2170   -8.6990 C.2     1  UNL1        0.0270
     23  C         21.0570  -21.2050  -11.9490 C.2     1  UNL1        0.2580
     24  O         21.0080  -20.0810  -11.4630 O.2     1  UNL1       -0.2670
     25  N         20.0860  -22.1860  -11.8920 N.am    1  UNL1       -0.3230
     26  H         20.3620  -23.1170  -12.1820 H       1  UNL1        0.1690
     27  C         18.7940  -22.0730  -11.3380 C.2     1  UNL1        0.0370
     28  C         18.0910  -20.8850  -11.5920 C.2     1  UNL1        0.0290
     29  C         16.8070  -20.6870  -11.0740 C.2     1  UNL1        0.0050
     30  C         16.2180  -21.6750  -10.2930 C.2     1  UNL1        0.0420
     31  C         16.9170  -22.8490  -10.0380 C.2     1  UNL1        0.1180
     32  F         16.3490  -23.7970   -9.2800 F       1  UNL1       -0.2060
     33  C         18.1960  -23.0560  -10.5510 C.2     1  UNL1        0.0710
@<TRIPOS>BOND
     1     4     3    2
     2     4     5    1
     3     3     2    1
     4     5     6    2
     5     2     1    2
     6     6     1    1
     7     6    23    1
     8    26    25    1
     9     1     7    1
    10    23    25   am
    11    23    24    2
    12    25    27    1
    13    28    27    2
    14    28    29    1
    15    27    33    1
    16    29    30    2
    17     8     7    1
    18     7     9    1
    19    33    31    2
    20    30    31    1
    21    31    32    1
    22    10     9    2
    23     9    11    2
    24     9    12    1
    25    22    12    2
    26    22    21    1
    27    12    13    1
    28    21    16    2
    29    13    14    2
    30    16    14   ar
    31    16    18   ar
    32    14    15   ar
    33    18    20    1
    34    18    17   ar
    35    15    17   ar
    36    17    19    2
