@<TRIPOS>MOLECULE
81011_out_ligand_01.pdbqt
 32 34 0 0 0
SMALL
GASTEIGER

@<TRIPOS>ATOM
      1  N         23.0960  -22.7440  -10.9660 N.am    1  UNL1       -0.3530
      2  C         22.3750  -21.8360  -10.2230 C.2     1  UNL1        0.2520
      3  O         22.8490  -21.0820   -9.3850 O.2     1  UNL1       -0.2680
      4  H         22.6490  -23.1690  -11.7680 H       1  UNL1        0.1630
      5  C         24.5360  -22.8090  -10.8820 C.3     1  UNL1        0.1610
      6  C         25.1670  -21.6960  -11.6790 C.2     1  UNL1       -0.0390
      7  C         26.2430  -20.9690  -11.1470 C.2     1  UNL1        0.0090
      8  C         26.8130  -19.9170  -11.8630 C.2     1  UNL1        0.0020
      9  C         26.3120  -19.5740  -13.1190 C.2     1  UNL1        0.0240
     10  C         25.2390  -20.2860  -13.6530 C.2     1  UNL1        0.0240
     11  C         24.6670  -21.3400  -12.9390 C.2     1  UNL1        0.0330
     12  N         24.7070  -19.9700  -14.9420 N.pl3   1  UNL1       -0.1730
     13  H         25.0830  -19.0900  -15.2990 H       1  UNL1        0.1470
     14  S         24.9160  -21.1070  -16.1680 S.O2    1  UNL1        0.2800
     15  O         26.3310  -21.3550  -16.2630 O.2     1  UNL1       -0.1940
     16  O         23.9490  -22.1620  -16.0090 O.2     1  UNL1       -0.1940
     17  N         24.4770  -20.1920  -17.4780 N.3     1  UNL1       -0.2160
     18  H         23.6170  -19.6760  -17.3190 H       1  UNL1        0.1370
     19  H         24.5640  -20.6950  -18.3570 H       1  UNL1        0.1370
     20  C         20.9320  -21.7710  -10.5590 C.2     1  UNL1        0.0380
     21  C         20.5850  -20.9630  -11.6510 C.2     1  UNL1        0.0170
     22  C         19.2610  -20.8940  -12.0750 C.2     1  UNL1        0.0010
     23  C         18.2850  -21.6300  -11.4090 C.2     1  UNL1        0.0010
     24  C         18.6260  -22.4210  -10.3090 C.2     1  UNL1        0.0080
     25  C         19.9530  -22.4870   -9.8430 C.2     1  UNL1       -0.0380
     26  C         20.2960  -23.3250   -8.6260 C.3     1  UNL1        0.0780
     27  C         19.4110  -23.1060   -7.4180 C.2     1  UNL1       -0.0540
     28  C         19.4760  -21.9020   -6.7010 C.2     1  UNL1        0.0070
     29  C         18.6620  -21.6950   -5.5870 C.2     1  UNL1        0.0010
     30  C         17.7760  -22.6890   -5.1770 C.2     1  UNL1        0.0000
     31  C         17.7030  -23.8910   -5.8800 C.2     1  UNL1        0.0010
     32  C         18.5170  -24.1000   -6.9940 C.2     1  UNL1        0.0070
@<TRIPOS>BOND
     1    19    17    1
     2    17    18    1
     3    17    14    1
     4    15    14    2
     5    14    16    2
     6    14    12    1
     7    13    12    1
     8    12    10    1
     9    10     9    2
    10    10    11    1
    11     9     8    1
    12    11     6    2
    13    22    21    1
    14    22    23    2
    15     8     7    2
    16     4     1    1
    17     6     7    1
    18     6     5    1
    19    21    20    2
    20    23    24    1
    21     1     5    1
    22     1     2   am
    23    20     2    1
    24    20    25    1
    25    24    25    2
    26     2     3    2
    27    25    26    1
    28    26    27    1
    29    27    32    2
    30    27    28    1
    31    32    31    1
    32    28    29    2
    33    31    30    2
    34    29    30    1
