@<TRIPOS>MOLECULE
81032_out_ligand_01.pdbqt
 30 33 0 0 0
SMALL
GASTEIGER

@<TRIPOS>ATOM
      1  N         17.6650  -23.5910   -7.9450 N.3     1  UNL1       -0.2980
      2  C         18.8730  -24.3140   -7.4950 C.3     1  UNL1        0.1740
      3  C         20.1560  -23.8010   -8.1070 C.2     1  UNL1       -0.0400
      4  C         20.8320  -24.5480   -9.0840 C.2     1  UNL1        0.0100
      5  C         22.0230  -24.0770   -9.6440 C.2     1  UNL1        0.0170
      6  C         22.5550  -22.8510   -9.2270 C.2     1  UNL1        0.0320
      7  C         21.9040  -22.1130   -8.2340 C.2     1  UNL1        0.0170
      8  C         20.7090  -22.5830   -7.6840 C.2     1  UNL1        0.0100
      9  C         23.8190  -22.3140   -9.7960 C.2     1  UNL1        0.2520
     10  O         23.9420  -21.1100   -9.9910 O.2     1  UNL1       -0.2680
     11  N         24.7840  -23.2560  -10.1000 N.am    1  UNL1       -0.3520
     12  H         24.5250  -24.2350  -10.0970 H       1  UNL1        0.1630
     13  C         26.0250  -22.8950  -10.7100 C.3     1  UNL1        0.0840
     14  C         26.9770  -23.9570  -11.1840 C.3     1  UNL1        0.0270
     15  C         26.2450  -23.1090  -12.1820 C.3     1  UNL1        0.0270
     16  C         17.9200  -22.5610   -8.9660 C.3     1  UNL1        0.0960
     17  C         17.8580  -22.8910  -10.4360 C.3     1  UNL1        0.0280
     18  C         16.8090  -22.0180   -9.8210 C.3     1  UNL1        0.0280
     19  S         16.4290  -23.2830   -6.8140 S.O2    1  UNL1        0.2640
     20  O         15.4420  -22.4160   -7.4120 O.2     1  UNL1       -0.2000
     21  O         16.0170  -24.5420   -6.2270 O.2     1  UNL1       -0.2000
     22  C         17.2240  -22.3800   -5.5050 C.2     1  UNL1        0.1120
     23  C         18.3400  -21.5900   -5.8320 C.2     1  UNL1        0.0280
     24  C         19.0510  -20.9130   -4.8360 C.2     1  UNL1        0.0020
     25  C         18.6760  -21.0370   -3.4990 C.2     1  UNL1        0.0030
     26  C         17.5980  -21.8500   -3.1530 C.2     1  UNL1        0.0380
     27  C         16.8880  -22.5250   -4.1590 C.2     1  UNL1        0.1260
     28  N         15.7950  -23.3580   -3.7100 N.pl3   1  UNL1       -0.1140
     29  O         16.0960  -24.4220   -3.1560 O.2     1  UNL1       -0.5320
     30  O         14.6590  -22.8810   -3.8200 O.2     1  UNL1       -0.5320
@<TRIPOS>BOND
     1    15    14    1
     2    15    13    1
     3    14    13    1
     4    13    11    1
     5    17    18    1
     6    17    16    1
     7    11    12    1
     8    11     9   am
     9    10     9    2
    10    18    16    1
    11     9     6    1
    12     5     6    2
    13     5     4    1
    14     6     7    1
    15     4     3    2
    16    16     1    1
    17     7     8    2
    18     3     8    1
    19     3     2    1
    20     1     2    1
    21     1    19    1
    22    20    19    2
    23    19    21    2
    24    19    22    1
    25    23    22    2
    26    23    24    1
    27    22    27    1
    28    24    25    2
    29    27    28    1
    30    27    26    2
    31    30    28    2
    32    28    29    2
    33    25    26    1
