@<TRIPOS>MOLECULE
81041_out_ligand_01.pdbqt
 31 34 0 0 0
SMALL
GASTEIGER

@<TRIPOS>ATOM
      1  S         22.4250  -23.1190   -9.4250 S.3     1  UNL1        0.3030
      2  O         21.9180  -22.0310   -8.6090 O.3     1  UNL1       -0.1930
      3  O         23.6620  -23.7990   -9.0940 O.3     1  UNL1       -0.1930
      4  C         22.6640  -22.4600  -11.0640 C.2     1  UNL1        0.0870
      5  C         23.8580  -22.7360  -11.7370 C.2     1  UNL1        0.0450
      6  C         24.0400  -22.2130  -13.0200 C.ar    1  UNL1        0.0600
      7  C         25.2770  -22.4740  -13.7800 C.ar    1  UNL1        0.2610
      8  C         23.0490  -21.4300  -13.6200 C.ar    1  UNL1        0.0520
      9  N         25.3630  -21.8860  -15.0170 N.ar    1  UNL1       -0.2750
     10  O         26.1630  -23.1860  -13.3250 O.2     1  UNL1       -0.2670
     11  C         24.3990  -21.1270  -15.6170 C.ar    1  UNL1        0.3270
     12  H         26.2010  -22.0570  -15.5510 H       1  UNL1        0.1730
     13  O         24.5450  -20.6620  -16.7430 O.2     1  UNL1       -0.2470
     14  N         23.2570  -20.9150  -14.9010 N.ar    1  UNL1       -0.3080
     15  H         22.5510  -20.3490  -15.3560 H       1  UNL1        0.1700
     16  C         21.8580  -21.1650  -12.9440 C.2     1  UNL1        0.0320
     17  C         21.6620  -21.6830  -11.6600 C.2     1  UNL1        0.0280
     18  O         21.2330  -24.2190   -9.6400 O.2     1  UNL1       -0.2290
     19  C         19.9360  -23.8740   -9.3670 C.2     1  UNL1        0.0920
     20  C         19.1180  -23.2190  -10.2880 C.2     1  UNL1        0.0380
     21  C         17.8130  -22.8680   -9.9340 C.2     1  UNL1        0.0050
     22  C         17.3300  -23.1680   -8.6600 C.2     1  UNL1        0.0370
     23  C         18.1560  -23.8240   -7.7430 C.2     1  UNL1        0.0780
     24  C         19.4680  -24.1510   -8.0840 C.2     1  UNL1        0.0750
     25  O         17.7490  -24.1090   -6.4610 O.2     1  UNL1       -0.3110
     26  C         18.0220  -23.1720   -5.4890 C.2     1  UNL1        0.0760
     27  C         18.5870  -21.9250   -5.7750 C.2     1  UNL1        0.0370
     28  C         18.8080  -21.0120   -4.7420 C.2     1  UNL1        0.0030
     29  C         18.4490  -21.3360   -3.4330 C.2     1  UNL1        0.0000
     30  C         17.8630  -22.5710   -3.1530 C.2     1  UNL1        0.0030
     31  C         17.6420  -23.4870   -4.1830 C.2     1  UNL1        0.0370
@<TRIPOS>BOND
     1    13    11    2
     2    11     9   ar
     3    11    14   ar
     4    12     9    1
     5    15    14    1
     6     9     7   ar
     7    14     8   ar
     8     7    10    2
     9     7     6   ar
    10     8     6   ar
    11     8    16    1
    12     6     5    1
    13    16    17    2
    14     5     4    2
    15    17     4    1
    16     4     1    1
    17    20    21    1
    18    20    19    2
    19    21    22    2
    20    18     1    1
    21    18    19    1
    22     1     3    1
    23     1     2    1
    24    19    24    1
    25    22    23    1
    26    24    23    2
    27    23    25    1
    28    25    26    1
    29    27    26    2
    30    27    28    1
    31    26    31    1
    32    28    29    2
    33    31    30    2
    34    29    30    1
