@<TRIPOS>MOLECULE
81040_out_ligand_01.pdbqt
 35 38 0 0 0
SMALL
GASTEIGER

@<TRIPOS>ATOM
      1  C         15.8300  -24.4250   -8.1810 C.1     1  UNL1        0.0180
      2  C         16.2880  -23.6350   -8.9610 C.1     1  UNL1       -0.0780
      3  C         16.8380  -22.6950   -9.8890 C.2     1  UNL1        0.0190
      4  C         16.0850  -21.5890  -10.2840 C.2     1  UNL1        0.0210
      5  C         16.6180  -20.6760  -11.1910 C.2     1  UNL1        0.0040
      6  C         17.9040  -20.8690  -11.7010 C.2     1  UNL1        0.0290
      7  C         18.6720  -21.9740  -11.3070 C.2     1  UNL1        0.0360
      8  C         18.1270  -22.8870  -10.4000 C.2     1  UNL1        0.0500
      9  N         19.9560  -22.0990  -11.8770 N.am    1  UNL1       -0.3230
     10  C         20.9140  -21.1120  -12.0030 C.2     1  UNL1        0.2580
     11  O         20.8030  -19.9230  -11.7180 O.2     1  UNL1       -0.2670
     12  H         20.1500  -22.9820  -12.3320 H       1  UNL1        0.1690
     13  C         22.2000  -21.5580  -12.5990 C.2     1  UNL1        0.0540
     14  C         22.7310  -20.8930  -13.7140 C.2     1  UNL1        0.0190
     15  C         23.9280  -21.3330  -14.2810 C.2     1  UNL1        0.0010
     16  C         24.5930  -22.4370  -13.7450 C.2     1  UNL1        0.0020
     17  C         24.0620  -23.1100  -12.6430 C.2     1  UNL1        0.0250
     18  C         22.8600  -22.6840  -12.0740 C.2     1  UNL1        0.0380
     19  N         22.3850  -23.3460  -10.8920 N.pl3   1  UNL1       -0.1800
     20  H         21.3570  -23.4160  -10.8470 H       1  UNL1        0.1460
     21  S         22.9370  -22.7160   -9.4140 S.O2    1  UNL1        0.2460
     22  O         23.9540  -23.5930   -8.8710 O.2     1  UNL1       -0.2060
     23  O         23.1800  -21.3060   -9.6150 O.2     1  UNL1       -0.2060
     24  C         21.4820  -22.8400   -8.3960 C.2     1  UNL1        0.0770
     25  C         20.6580  -23.9890   -8.4900 C.2     1  UNL1        0.0270
     26  C         19.5120  -24.1080   -7.6970 C.2     1  UNL1        0.0330
     27  C         19.2470  -23.0670   -6.8370 C.ar    1  UNL1        0.0630
     28  N         18.1990  -22.9040   -5.9400 N.ar    1  UNL1       -0.3070
     29  C         20.0690  -21.9440   -6.7440 C.ar    1  UNL1        0.0640
     30  C         18.3580  -21.6790   -5.2760 C.ar    1  UNL1        0.3250
     31  H         17.4400  -23.5410   -5.7590 H       1  UNL1        0.1700
     32  O         17.6250  -21.2150   -4.4210 O.2     1  UNL1       -0.2470
     33  N         19.5240  -21.0940   -5.7880 N.ar    1  UNL1       -0.3060
     34  H         19.8850  -20.2040   -5.4820 H       1  UNL1        0.1700
     35  C         21.2010  -21.7950   -7.5060 C.2     1  UNL1        0.0560
@<TRIPOS>BOND
     1    15    16    2
     2    15    14    1
     3    16    17    1
     4    14    13    2
     5    17    18    2
     6    13    18    1
     7    13    10    1
     8    12     9    1
     9    18    19    1
    10    10     9   am
    11    10    11    2
    12     9     7    1
    13     6     7    2
    14     6     5    1
    15     7     8    1
    16     5     4    2
    17    19    20    1
    18    19    21    1
    19     8     3    2
    20     4     3    1
    21     3     2    1
    22    23    21    2
    23    21    22    2
    24    21    24    1
    25     2     1    3
    26    25    24    2
    27    25    26    1
    28    24    35    1
    29    26    27    2
    30    35    29    2
    31    27    29   ar
    32    27    28   ar
    33    29    33   ar
    34    28    31    1
    35    28    30   ar
    36    33    34    1
    37    33    30   ar
    38    30    32    2
