@<TRIPOS>MOLECULE
81043_out_ligand_01.pdbqt
 29 31 0 0 0
SMALL
GASTEIGER

@<TRIPOS>ATOM
      1  N         20.9930  -22.9720   -8.5540 N.am    1  UNL1       -0.3520
      2  C         20.0480  -23.9540   -8.3550 C.2     1  UNL1        0.2570
      3  O         20.2340  -25.1430   -8.5750 O.2     1  UNL1       -0.2670
      4  H         20.7920  -22.0180   -8.2940 H       1  UNL1        0.1630
      5  C         18.7680  -23.4560   -7.8020 C.2     1  UNL1        0.1000
      6  C         18.4150  -23.8050   -6.5520 C.2     1  UNL1        0.0400
      7  C         17.1400  -23.4040   -5.9870 C.2     1  UNL1        0.0330
      8  C         16.2660  -22.7040   -6.7340 C.2     1  UNL1        0.0260
      9  C         16.7650  -23.8010   -4.5930 C.2     1  UNL1        0.1610
     10  N         16.6130  -22.3540   -8.0230 N.am    1  UNL1       -0.3260
     11  C         14.9170  -22.2450   -6.2510 C.3     1  UNL1        0.0580
     12  C         17.8180  -22.6570   -8.6250 C.2     1  UNL1        0.2610
     13  H         15.9780  -21.8120   -8.5990 H       1  UNL1        0.1690
     14  O         18.0750  -22.2490   -9.7510 O.2     1  UNL1       -0.2670
     15  C         14.8240  -22.2380   -4.7280 C.3     1  UNL1        0.0140
     16  C         15.3480  -23.5350   -4.1350 C.3     1  UNL1        0.0840
     17  O         17.5780  -24.3740   -3.8670 O.2     1  UNL1       -0.2920
     18  C         22.3510  -23.2960   -8.9230 C.3     1  UNL1        0.1610
     19  C         22.6610  -22.7610  -10.2980 C.2     1  UNL1       -0.0400
     20  C         21.6450  -22.1780  -11.0710 C.2     1  UNL1        0.0100
     21  C         21.9150  -21.7060  -12.3570 C.2     1  UNL1        0.0170
     22  C         23.1990  -21.8280  -12.8970 C.2     1  UNL1        0.0310
     23  C         24.2190  -22.4060  -12.1300 C.2     1  UNL1        0.0170
     24  C         23.9480  -22.8740  -10.8400 C.2     1  UNL1        0.0100
     25  C         23.4390  -21.3180  -14.2720 C.2     1  UNL1        0.2490
     26  N         22.7570  -20.1940  -14.6540 N.am    1  UNL1       -0.3660
     27  H         23.0490  -19.7910  -15.5350 H       1  UNL1        0.1590
     28  H         22.3520  -19.5670  -13.9750 H       1  UNL1        0.1590
     29  O         24.2400  -21.8510  -15.0280 O.2     1  UNL1       -0.2680
@<TRIPOS>BOND
     1    27    26    1
     2    29    25    2
     3    26    25   am
     4    26    28    1
     5    25    22    1
     6    22    21    2
     7    22    23    1
     8    21    20    1
     9    23    24    2
    10    20    19    2
    11    24    19    1
    12    19    18    1
    13    14    12    2
    14    18     1    1
    15    12    10   am
    16    12     5    1
    17    13    10    1
    18     3     2    2
    19     1     2   am
    20     1     4    1
    21     2     5    1
    22    10     8    1
    23     5     6    2
    24     8    11    1
    25     8     7    2
    26     6     7    1
    27    11    15    1
    28     7     9    1
    29    15    16    1
    30     9    16    1
    31     9    17    2
