@<TRIPOS>MOLECULE
81052_out_ligand_01.pdbqt
 32 36 0 0 0
SMALL
GASTEIGER

@<TRIPOS>ATOM
      1  N         20.0390  -22.9270  -10.0920 N.3     1  UNL1       -0.2980
      2  C         20.6960  -21.6540  -10.4780 C.3     1  UNL1        0.1740
      3  C         21.7020  -21.7170  -11.6060 C.2     1  UNL1       -0.0400
      4  C         21.4520  -21.0590  -12.8210 C.2     1  UNL1        0.0100
      5  C         22.3880  -21.1030  -13.8570 C.2     1  UNL1        0.0170
      6  C         23.5900  -21.8010  -13.6940 C.2     1  UNL1        0.0320
      7  C         23.8350  -22.4810  -12.4960 C.2     1  UNL1        0.0170
      8  C         22.8970  -22.4350  -11.4590 C.2     1  UNL1        0.0100
      9  C         24.5640  -21.8100  -14.8200 C.2     1  UNL1        0.2520
     10  O         25.4100  -22.6950  -14.8910 O.2     1  UNL1       -0.2680
     11  N         24.4160  -20.8090  -15.7630 N.am    1  UNL1       -0.3520
     12  H         23.5840  -20.2300  -15.7430 H       1  UNL1        0.1630
     13  C         25.2600  -20.7190  -16.9110 C.3     1  UNL1        0.0840
     14  C         24.9530  -21.5120  -18.1530 C.3     1  UNL1        0.0270
     15  C         24.7750  -20.0210  -18.1530 C.3     1  UNL1        0.0270
     16  C         18.6180  -23.0420  -10.4850 C.3     1  UNL1        0.0960
     17  C         17.9650  -22.0490  -11.4150 C.3     1  UNL1        0.0280
     18  C         17.4730  -22.1890  -10.0090 C.3     1  UNL1        0.0280
     19  S         20.6130  -23.7580   -8.7310 S.O2    1  UNL1        0.2610
     20  O         21.9180  -23.2510   -8.3600 O.2     1  UNL1       -0.2000
     21  O         20.3890  -25.1740   -8.9320 O.2     1  UNL1       -0.2000
     22  C         19.5140  -23.2150   -7.4390 C.2     1  UNL1        0.0820
     23  C         19.7130  -21.9570   -6.8620 C.2     1  UNL1        0.0280
     24  C         18.8650  -21.5330   -5.8380 C.2     1  UNL1        0.0410
     25  C         17.8320  -22.3620   -5.3880 C.2     1  UNL1        0.1020
     26  C         17.6130  -23.6060   -6.0020 C.2     1  UNL1        0.1030
     27  O         17.0980  -21.8540   -4.3450 O.2     1  UNL1       -0.3480
     28  C         18.4780  -24.0470   -7.0060 C.2     1  UNL1        0.0650
     29  O         16.6000  -24.4790   -5.6960 O.2     1  UNL1       -0.3480
     30  C         15.3820  -23.8370   -5.3180 C.3     1  UNL1        0.1780
     31  C         15.3800  -23.4990   -3.8380 C.3     1  UNL1        0.0530
     32  C         16.6840  -22.8500   -3.4070 C.3     1  UNL1        0.1780
@<TRIPOS>BOND
     1    14    15    1
     2    14    13    1
     3    15    13    1
     4    13    11    1
     5    11    12    1
     6    11     9   am
     7    10     9    2
     8     9     6    1
     9     5     6    2
    10     5     4    1
    11     6     7    1
    12     4     3    2
    13     7     8    2
    14     3     8    1
    15     3     2    1
    16    17    16    1
    17    17    18    1
    18    16     1    1
    19    16    18    1
    20     2     1    1
    21     1    19    1
    22    21    19    2
    23    19    20    2
    24    19    22    1
    25    22    28    2
    26    22    23    1
    27    28    26    1
    28    23    24    2
    29    26    29    1
    30    26    25    2
    31    24    25    1
    32    29    30    1
    33    25    27    1
    34    30    31    1
    35    27    32    1
    36    31    32    1
