@<TRIPOS>MOLECULE
81056_out_ligand_01.pdbqt
 28 31 0 0 0
SMALL
GASTEIGER

@<TRIPOS>ATOM
      1  C         17.2620  -23.2450   -8.6600 C.ar    1  UNL1        0.1170
      2  N         16.5230  -22.3140   -9.2340 N.ar    1  UNL1       -0.1440
      3  N         17.2120  -21.6240  -10.2110 N.ar    1  UNL1       -0.1360
      4  C         18.4470  -22.0670  -10.3450 C.ar    1  UNL1        0.1890
      5  S         18.8610  -23.3530   -9.2970 S.2     1  UNL1       -0.0440
      6  C         16.7980  -24.1700   -7.5600 C.3     1  UNL1        0.1920
      7  N         16.6160  -23.6220   -6.1990 N.pl3   1  UNL1       -0.3700
      8  C         17.4990  -22.6460   -5.7120 C.2     1  UNL1        0.0370
      9  C         18.6330  -22.2260   -6.4300 C.2     1  UNL1        0.0300
     10  C         17.3000  -22.0570   -4.4420 C.2     1  UNL1       -0.0320
     11  C         19.5140  -21.2570   -5.9340 C.2     1  UNL1        0.0020
     12  C         19.2890  -20.6790   -4.6930 C.2     1  UNL1        0.0010
     13  C         18.1840  -21.0760   -3.9500 C.2     1  UNL1        0.0090
     14  C         16.1150  -22.4170   -3.5820 C.3     1  UNL1        0.0430
     15  C         15.4550  -23.7060   -4.0390 C.3     1  UNL1        0.0290
     16  C         15.2950  -23.7330   -5.5570 C.3     1  UNL1        0.0810
     17  C         14.3350  -22.6620   -6.0820 C.3     1  UNL1        0.0320
     18  C         19.3880  -21.5090  -11.3090 C.2     1  UNL1        0.2830
     19  O         19.1120  -20.5720  -12.0520 O.2     1  UNL1       -0.2650
     20  N         20.6130  -22.1630  -11.2800 N.am    1  UNL1       -0.3210
     21  H         20.6730  -22.9200  -10.6030 H       1  UNL1        0.1690
     22  C         21.7600  -21.9130  -12.0570 C.2     1  UNL1        0.0350
     23  C         21.7460  -21.2370  -13.2790 C.2     1  UNL1        0.0320
     24  C         22.9350  -21.0320  -13.9870 C.2     1  UNL1        0.0440
     25  C         24.1350  -21.5020  -13.4720 C.2     1  UNL1        0.1160
     26  F         25.2710  -21.3050  -14.1510 F       1  UNL1       -0.2060
     27  C         24.1690  -22.1760  -12.2590 C.2     1  UNL1        0.0440
     28  C         22.9820  -22.3820  -11.5510 C.2     1  UNL1        0.0320
@<TRIPOS>BOND
     1    26    25    1
     2    24    25    2
     3    24    23    1
     4    25    27    1
     5    23    22    2
     6    27    28    2
     7    22    28    1
     8    22    20    1
     9    19    18    2
    10    18    20   am
    11    18     4    1
    12    20    21    1
    13     4     3   ar
    14     4     5   ar
    15     3     2   ar
    16     5     1   ar
    17     2     1   ar
    18     1     6    1
    19     6     7    1
    20     9    11    1
    21     9     8    2
    22     7     8    1
    23     7    16    1
    24    17    16    1
    25    11    12    2
    26     8    10    1
    27    16    15    1
    28    12    13    1
    29    10    13    2
    30    10    14    1
    31    15    14    1
