@<TRIPOS>MOLECULE
81068_out_ligand_01.pdbqt
 30 34 0 0 0
SMALL
GASTEIGER

@<TRIPOS>ATOM
      1  N         19.0140  -22.7930   -9.7900 N.am    1  UNL1       -0.3430
      2  C         17.8390  -22.7250   -9.0300 C.2     1  UNL1        0.2290
      3  O         16.8450  -22.0920   -9.4090 O.2     1  UNL1       -0.2730
      4  C         20.2120  -23.5460   -9.3890 C.3     1  UNL1        0.1640
      5  C         21.5270  -22.9800   -9.8940 C.2     1  UNL1       -0.0400
      6  C         22.2020  -22.0360   -9.1010 C.2     1  UNL1        0.0100
      7  C         23.4010  -21.4580   -9.5330 C.2     1  UNL1        0.0170
      8  C         23.9350  -21.8060  -10.7790 C.2     1  UNL1        0.0320
      9  C         23.2740  -22.7480  -11.5720 C.2     1  UNL1        0.0170
     10  C         22.0770  -23.3220  -11.1380 C.2     1  UNL1        0.0100
     11  C         25.2080  -21.2210  -11.2840 C.2     1  UNL1        0.2520
     12  O         25.8210  -20.4070  -10.6020 O.2     1  UNL1       -0.2680
     13  N         25.6430  -21.6810  -12.5140 N.am    1  UNL1       -0.3520
     14  H         25.1880  -22.4840  -12.9280 H       1  UNL1        0.1630
     15  C         26.8730  -21.2400  -13.0920 C.3     1  UNL1        0.0840
     16  C         26.9040  -20.0250  -13.9760 C.3     1  UNL1        0.0270
     17  C         27.1200  -21.3860  -14.5680 C.3     1  UNL1        0.0270
     18  C         19.1180  -22.1930  -11.1240 C.3     1  UNL1        0.0870
     19  C         19.3060  -20.7210  -11.3660 C.3     1  UNL1        0.0270
     20  C         18.0260  -21.3960  -11.7830 C.3     1  UNL1        0.0270
     21  C         17.7260  -23.4160   -7.6550 C.3     1  UNL1        0.1110
     22  C         16.4650  -24.2980   -7.5510 C.3     1  UNL1        0.0190
     23  C         15.5380  -23.9770   -6.3840 C.3     1  UNL1        0.0060
     24  C         16.3150  -23.7870   -5.0880 C.3     1  UNL1        0.0390
     25  C         17.3750  -22.7260   -5.2300 C.2     1  UNL1       -0.0510
     26  C         17.7280  -21.9480   -4.1170 C.2     1  UNL1        0.0070
     27  C         18.0570  -22.5490   -6.4480 C.2     1  UNL1       -0.0390
     28  C         18.7400  -20.9950   -4.2100 C.2     1  UNL1        0.0010
     29  C         19.4250  -20.8250   -5.4090 C.2     1  UNL1        0.0010
     30  C         19.0950  -21.6030   -6.5180 C.2     1  UNL1        0.0080
@<TRIPOS>BOND
     1    17    16    1
     2    17    15    1
     3    16    15    1
     4    15    13    1
     5    14    13    1
     6    13    11   am
     7    20    19    1
     8    20    18    1
     9     9    10    1
    10     9     8    2
    11    19    18    1
    12    11     8    1
    13    11    12    2
    14    10     5    2
    15    18     1    1
    16     8     7    1
    17     5     4    1
    18     5     6    1
    19     1     4    1
    20     1     2   am
    21     7     6    2
    22     3     2    2
    23     2    21    1
    24    21    22    1
    25    21    27    1
    26    22    23    1
    27    30    27    1
    28    30    29    2
    29    27    25    2
    30    23    24    1
    31    29    28    1
    32    25    24    1
    33    25    26    1
    34    28    26    2
