@<TRIPOS>MOLECULE
81080_out_ligand_01.pdbqt
 28 31 0 0 0
SMALL
GASTEIGER

@<TRIPOS>ATOM
      1  C         17.4020  -22.1840  -10.1830 C.ar    1  UNL1        0.1890
      2  N         16.1130  -22.0910   -9.9160 N.ar    1  UNL1       -0.1360
      3  N         15.7560  -22.8570   -8.8240 N.ar    1  UNL1       -0.1440
      4  C         16.7880  -23.4940   -8.3030 C.ar    1  UNL1        0.1170
      5  S         18.2750  -23.2090   -9.1270 S.2     1  UNL1       -0.0440
      6  C         18.0440  -21.4740  -11.2770 C.2     1  UNL1        0.2790
      7  N         19.4240  -21.4870  -11.2200 N.am    1  UNL1       -0.3510
      8  H         19.8650  -22.0290  -10.4830 H       1  UNL1        0.1630
      9  O         17.4460  -20.9060  -12.1900 O.2     1  UNL1       -0.2650
     10  C         20.2300  -20.9160  -12.2670 C.3     1  UNL1        0.1610
     11  C         21.5800  -21.5760  -12.3200 C.2     1  UNL1       -0.0410
     12  C         22.4640  -21.2980  -13.3700 C.2     1  UNL1        0.0090
     13  C         23.7310  -21.8870  -13.4090 C.2     1  UNL1        0.0070
     14  C         24.1430  -22.7490  -12.3860 C.2     1  UNL1       -0.0620
     15  C         25.4900  -23.4070  -12.4400 C.3     1  UNL1        0.0480
     16  C         23.2600  -23.0310  -11.3380 C.2     1  UNL1        0.0070
     17  C         21.9930  -22.4420  -11.3000 C.2     1  UNL1        0.0090
     18  C         16.7330  -24.4020   -7.0980 C.3     1  UNL1        0.1920
     19  N         16.6990  -23.7890   -5.7520 N.pl3   1  UNL1       -0.3740
     20  C         15.5720  -24.1070   -4.8700 C.3     1  UNL1        0.1230
     21  C         15.8670  -23.7700   -3.4180 C.3     1  UNL1        0.0240
     22  C         16.2310  -22.3010   -3.3120 C.3     1  UNL1        0.0420
     23  C         17.3640  -21.9790   -4.2520 C.2     1  UNL1       -0.0320
     24  C         18.2020  -20.8930   -3.9400 C.2     1  UNL1        0.0090
     25  C         17.5570  -22.7390   -5.4270 C.2     1  UNL1        0.0360
     26  C         19.2710  -20.5660   -4.7660 C.2     1  UNL1        0.0010
     27  C         19.5110  -21.3260   -5.9000 C.2     1  UNL1        0.0020
     28  C         18.6680  -22.3980   -6.2190 C.2     1  UNL1        0.0300
@<TRIPOS>BOND
     1    13    12    1
     2    13    14    2
     3    12    11    2
     4    15    14    1
     5    14    16    1
     6    11    10    1
     7    11    17    1
     8    10     7    1
     9     9     6    2
    10    16    17    2
    11     6     7   am
    12     6     1    1
    13     7     8    1
    14     1     2   ar
    15     1     5   ar
    16     2     3   ar
    17     5     4   ar
    18     3     4   ar
    19     4    18    1
    20    18    19    1
    21    28    27    2
    22    28    25    1
    23    27    26    1
    24    19    25    1
    25    19    20    1
    26    25    23    2
    27    20    21    1
    28    26    24    2
    29    23    24    1
    30    23    22    1
    31    21    22    1
