@<TRIPOS>MOLECULE
81093_out_ligand_01.pdbqt
 33 36 0 0 0
SMALL
GASTEIGER

@<TRIPOS>ATOM
      1  C         24.2740  -22.4420  -10.2990 C.ar    1  UNL1        0.1890
      2  N         23.9900  -21.1990   -9.9580 N.ar    1  UNL1       -0.1360
      3  N         22.8940  -21.1320   -9.1220 N.ar    1  UNL1       -0.1440
      4  C         22.4030  -22.3280   -8.8520 C.ar    1  UNL1        0.1270
      5  S         23.2430  -23.6220   -9.6120 S.2     1  UNL1       -0.0440
      6  C         21.2040  -22.5700   -7.9770 C.3     1  UNL1        0.3390
      7  N         20.5170  -23.8070   -8.3740 N.3     1  UNL1        0.1030
      8  H         20.8120  -24.5440   -7.7300 H       1  UNL1        0.3170
      9  C         19.0490  -23.6870   -8.2690 C.3     1  UNL1        0.2860
     10  C         18.4720  -22.8140   -9.3880 C.2     1  UNL1       -0.0210
     11  C         17.1160  -22.4410   -9.3470 C.2     1  UNL1        0.0090
     12  C         16.5690  -21.6220  -10.3370 C.2     1  UNL1        0.0010
     13  C         17.3650  -21.1640  -11.3800 C.2     1  UNL1        0.0000
     14  C         18.7120  -21.5170  -11.4350 C.2     1  UNL1        0.0010
     15  C         19.2630  -22.3300  -10.4440 C.2     1  UNL1        0.0090
     16  C         18.5990  -23.2020   -6.8960 C.2     1  UNL1       -0.0210
     17  C         18.9240  -21.9170   -6.4300 C.2     1  UNL1        0.0090
     18  C         18.4990  -21.4830   -5.1730 C.2     1  UNL1        0.0010
     19  C         17.7450  -22.3280   -4.3630 C.2     1  UNL1        0.0000
     20  C         17.4140  -23.6050   -4.8090 C.2     1  UNL1        0.0010
     21  C         17.8350  -24.0390   -6.0680 C.2     1  UNL1        0.0090
     22  C         25.3620  -22.7880  -11.1980 C.2     1  UNL1        0.2790
     23  N         24.9840  -23.6470  -12.2140 N.am    1  UNL1       -0.3510
     24  H         23.9950  -23.8490  -12.2990 H       1  UNL1        0.1630
     25  O         26.5180  -22.3800  -11.0880 O.2     1  UNL1       -0.2650
     26  C         25.8750  -24.0400  -13.2760 C.3     1  UNL1        0.1610
     27  C         25.6030  -23.2630  -14.5380 C.2     1  UNL1       -0.0410
     28  C         25.8980  -21.8960  -14.6060 C.2     1  UNL1        0.0090
     29  C         25.6560  -21.1730  -15.7770 C.2     1  UNL1        0.0070
     30  C         25.1060  -21.8010  -16.8990 C.2     1  UNL1       -0.0620
     31  C         24.8320  -21.0260  -18.1530 C.3     1  UNL1        0.0480
     32  C         24.7860  -23.1630  -16.8260 C.2     1  UNL1        0.0070
     33  C         25.0320  -23.8880  -15.6560 C.2     1  UNL1        0.0090
@<TRIPOS>BOND
     1    31    30    1
     2    30    32    2
     3    30    29    1
     4    32    33    1
     5    29    28    2
     6    33    27    2
     7    28    27    1
     8    27    26    1
     9    26    23    1
    10    24    23    1
    11    23    22   am
    12    14    13    2
    13    14    15    1
    14    13    12    1
    15    22    25    2
    16    22     1    1
    17    15    10    2
    18    12    11    2
    19     1     2   ar
    20     1     5   ar
    21     2     3   ar
    22     5     4   ar
    23    10    11    1
    24    10     9    1
    25     3     4   ar
    26     4     6    1
    27     7     9    1
    28     7     6    1
    29     7     8    1
    30     9    16    1
    31    16    17    2
    32    16    21    1
    33    17    18    1
    34    21    20    2
    35    18    19    2
    36    20    19    1
