@<TRIPOS>MOLECULE
81124_out_ligand_01.pdbqt
 27 30 0 0 0
SMALL
GASTEIGER

@<TRIPOS>ATOM
      1  O         17.4780  -22.8520  -10.0720 O.2     1  UNL1       -0.2670
      2  C         18.1820  -22.7880   -9.0680 C.2     1  UNL1        0.2580
      3  N         19.5340  -22.5110   -9.0610 N.am    1  UNL1       -0.3230
      4  H         19.9680  -22.4940   -8.1370 H       1  UNL1        0.1690
      5  C         20.3790  -22.2490  -10.1560 C.2     1  UNL1        0.0350
      6  C         20.0660  -21.3850  -11.2010 C.2     1  UNL1        0.0300
      7  C         20.9710  -21.1850  -12.2530 C.2     1  UNL1        0.0170
      8  C         22.2070  -21.8440  -12.2860 C.2     1  UNL1        0.0120
      9  C         22.5170  -22.7120  -11.2320 C.2     1  UNL1        0.0170
     10  C         21.6120  -22.9120  -10.1800 C.2     1  UNL1        0.0300
     11  C         23.1180  -21.6010  -13.4070 C.2     1  UNL1        0.1610
     12  N         22.9120  -20.7980  -14.4370 N.2     1  UNL1       -0.1300
     13  N         24.0060  -20.8520  -15.2680 N.2     1  UNL1       -0.1430
     14  C         24.8630  -21.6860  -14.7350 C.2     1  UNL1        0.2330
     15  N         24.3530  -22.1780  -13.5740 N.pl3   1  UNL1       -0.3320
     16  H         24.7980  -22.8390  -12.9580 H       1  UNL1        0.1680
     17  C         17.5300  -23.0280   -7.7300 C.2     1  UNL1        0.0620
     18  C         16.4850  -23.9710   -7.7190 C.2     1  UNL1        0.0210
     19  C         15.8140  -24.2730   -6.5430 C.2     1  UNL1        0.0260
     20  C         16.1820  -23.6310   -5.3660 C.2     1  UNL1        0.0460
     21 CL         15.2960  -24.0610   -3.9380 Cl      1  UNL1       -0.0830
     22  C         17.2300  -22.6770   -5.3470 C.2     1  UNL1        0.0150
     23  C         17.6340  -22.0050   -4.1710 C.2     1  UNL1        0.0170
     24  C         17.9190  -22.3670   -6.5480 C.2     1  UNL1        0.0840
     25  C         18.6640  -21.0770   -4.1910 C.2     1  UNL1        0.0200
     26  C         19.2780  -20.8370   -5.3960 C.2     1  UNL1        0.1170
     27  N         18.9290  -21.4530   -6.5480 N.2     1  UNL1       -0.2590
@<TRIPOS>BOND
     1    13    14    2
     2    13    12    1
     3    14    15    1
     4    12    11    2
     5    15    11    1
     6    15    16    1
     7    11     8    1
     8     8     7    2
     9     8     9    1
    10     7     6    1
    11     9    10    2
    12     6     5    2
    13    10     5    1
    14     5     3    1
    15     1     2    2
    16     2     3   am
    17     2    17    1
    18     3     4    1
    19    17    18    2
    20    17    24    1
    21    18    19    1
    22    24    27    1
    23    24    22    2
    24    27    26    2
    25    19    20    2
    26    26    25    1
    27    20    22    1
    28    20    21    1
    29    22    23    1
    30    25    23    2
