@<TRIPOS>MOLECULE
81128_out_ligand_01.pdbqt
 27 29 0 0 0
SMALL
GASTEIGER

@<TRIPOS>ATOM
      1  C         19.8890  -23.3150   -9.5140 C.2     1  UNL1        0.2570
      2  O         20.2090  -24.4720   -9.2730 O.2     1  UNL1       -0.2670
      3  N         18.9510  -22.5320   -8.8710 N.am    1  UNL1       -0.3220
      4  H         18.8580  -21.5900   -9.2160 H       1  UNL1        0.1690
      5  C         20.6350  -22.6290  -10.5990 C.2     1  UNL1        0.0510
      6  C         20.0370  -21.7970  -11.5560 C.2     1  UNL1        0.0260
      7  C         20.8260  -21.2100  -12.5560 C.2     1  UNL1        0.0210
      8 BR         18.1720  -21.4470  -11.6130 Br      1  UNL1       -0.0500
      9  C         22.1980  -21.4610  -12.6140 C.2     1  UNL1        0.0260
     10  C         22.7820  -22.3080  -11.6710 C.2     1  UNL1        0.0750
     11  C         22.0120  -22.8890  -10.6600 C.2     1  UNL1        0.0430
     12  S         24.5230  -22.6420  -11.7230 S.O2    1  UNL1        0.2390
     13  O         25.2110  -21.3770  -11.7950 O.2     1  UNL1       -0.2060
     14  O         24.7510  -23.7120  -12.6680 O.2     1  UNL1       -0.2060
     15  N         24.7970  -23.3150  -10.2070 N.3     1  UNL1       -0.2250
     16  H         24.9920  -22.5710   -9.5370 H       1  UNL1        0.1360
     17  H         25.5090  -24.0450  -10.1920 H       1  UNL1        0.1360
     18  C         18.1060  -22.8920   -7.7950 C.2     1  UNL1        0.0410
     19  C         16.9740  -23.6960   -7.9830 C.2     1  UNL1        0.0300
     20  C         16.1680  -24.0800   -6.9090 C.2     1  UNL1        0.0030
     21  C         16.4780  -23.6680   -5.6200 C.2     1  UNL1        0.0080
     22  C         17.5870  -22.8490   -5.4050 C.2     1  UNL1       -0.0500
     23  C         18.4050  -22.4420   -6.4890 C.2     1  UNL1       -0.0250
     24  C         17.9680  -22.4260   -4.0090 C.3     1  UNL1        0.0390
     25  C         19.5960  -21.5830   -6.1210 C.3     1  UNL1        0.0410
     26  C         19.2170  -20.4820   -5.1250 C.3     1  UNL1        0.0050
     27  C         18.3290  -20.9440   -3.9660 C.3     1  UNL1        0.0050
@<TRIPOS>BOND
     1    14    12    2
     2     9     7    2
     3     9    10    1
     4     7     6    1
     5    13    12    2
     6    12    10    1
     7    12    15    1
     8    10    11    2
     9     8     6    1
    10     6     5    2
    11    11     5    1
    12     5     1    1
    13    15    17    1
    14    15    16    1
    15     1     2    2
    16     1     3   am
    17     4     3    1
    18     3    18    1
    19    19    18    2
    20    19    20    1
    21    18    23    1
    22    20    21    2
    23    23    25    1
    24    23    22    2
    25    25    26    1
    26    21    22    1
    27    22    24    1
    28    26    27    1
    29    24    27    1
