@<TRIPOS>MOLECULE
81121_out_ligand_01.pdbqt
 31 34 0 0 0
SMALL
GASTEIGER

@<TRIPOS>ATOM
      1  C         23.8560  -23.5750   -9.2970 C.3     1  UNL1        0.1610
      2  N         23.9590  -23.2490  -10.7010 N.am    1  UNL1       -0.3530
      3  C         24.4270  -22.0230  -11.1190 C.2     1  UNL1        0.2520
      4  O         24.6810  -21.1080  -10.3420 O.2     1  UNL1       -0.2680
      5  H         23.9540  -24.0230  -11.3450 H       1  UNL1        0.1630
      6  C         24.6340  -21.8710  -12.5650 C.2     1  UNL1        0.0400
      7  C         24.5960  -22.9720  -13.4940 C.2     1  UNL1        0.0500
      8  C         24.8240  -22.5990  -14.8030 C.2     1  UNL1        0.1150
      9  S         25.0870  -20.9170  -14.9320 S.3     1  UNL1       -0.0880
     10  C         24.9120  -20.6970  -13.2420 C.2     1  UNL1        0.0680
     11  S         24.8850  -23.5260  -16.3170 S.O2    1  UNL1        0.2450
     12  O         25.1930  -24.8810  -15.9300 O.2     1  UNL1       -0.2060
     13  O         23.6860  -23.1530  -17.0280 O.2     1  UNL1       -0.2060
     14  N         26.1820  -22.9410  -17.2080 N.3     1  UNL1       -0.2250
     15  H         26.6370  -23.6710  -17.7520 H       1  UNL1        0.1360
     16  H         25.9510  -22.0890  -17.7150 H       1  UNL1        0.1360
     17  C         22.4420  -23.3800   -8.8130 C.2     1  UNL1       -0.0400
     18  C         21.4590  -24.3470   -9.0550 C.2     1  UNL1        0.0090
     19  C         20.1570  -24.1690   -8.5770 C.2     1  UNL1        0.0130
     20  C         19.8030  -23.0270   -7.8410 C.2     1  UNL1       -0.0260
     21  C         20.7970  -22.0670   -7.5970 C.2     1  UNL1        0.0130
     22  C         22.1000  -22.2410   -8.0740 C.2     1  UNL1        0.0090
     23  C         18.4310  -22.8430   -7.3380 C.2     1  UNL1       -0.0250
     24  C         17.3310  -22.8300   -8.2300 C.2     1  UNL1        0.0150
     25  C         16.0210  -22.6490   -7.7760 C.2     1  UNL1        0.0380
     26  C         15.8260  -22.4940   -6.4220 C.2     1  UNL1        0.0750
     27  C         16.8820  -22.5020   -5.5260 C.2     1  UNL1       -0.0220
     28  O         14.6050  -22.3020   -5.8320 O.2     1  UNL1       -0.3500
     29  C         18.1860  -22.6670   -5.9630 C.2     1  UNL1        0.0220
     30  C         16.3660  -22.2460   -4.1630 C.3     1  UNL1        0.0680
     31  C         14.8770  -22.4830   -4.4220 C.3     1  UNL1        0.1800
@<TRIPOS>BOND
     1    15    14    1
     2    16    14    1
     3    14    11    1
     4    13    11    2
     5    11    12    2
     6    11     8    1
     7     9     8    1
     8     9    10    1
     9     8     7    2
    10     7     6    1
    11    10     6    2
    12     6     3    1
    13     5     2    1
    14     3     2   am
    15     3     4    2
    16     2     1    1
    17     1    17    1
    18    18    17    2
    19    18    19    1
    20    17    22    1
    21    19    20    2
    22    24    25    1
    23    24    23    2
    24    22    21    2
    25    20    21    1
    26    20    23    1
    27    25    26    2
    28    23    29    1
    29    26    28    1
    30    26    27    1
    31    29    27    2
    32    28    31    1
    33    27    30    1
    34    31    30    1
