@<TRIPOS>MOLECULE
81141_out_ligand_01.pdbqt
 33 37 0 0 0
SMALL
GASTEIGER

@<TRIPOS>ATOM
      1  C         22.4680  -22.9650  -10.2210 C.ar    1  UNL1        0.1740
      2  N         21.8940  -23.1970   -9.0640 N.ar    1  UNL1       -0.2220
      3  C         20.5600  -22.8280   -9.1260 C.ar    1  UNL1        0.0910
      4  C         20.1500  -22.2600  -10.3270 C.ar    1  UNL1        0.0840
      5  S         21.4800  -22.2870  -11.4220 S.2     1  UNL1       -0.0460
      6  N         23.7890  -23.2730  -10.4140 N.am    1  UNL1       -0.3020
      7  C         24.8340  -22.3940  -10.5260 C.2     1  UNL1        0.2470
      8  O         24.8210  -21.1740  -10.4880 O.2     1  UNL1       -0.2680
      9  H         23.9620  -24.2670  -10.4370 H       1  UNL1        0.1710
     10  C         26.1110  -23.1270  -10.7340 C.2     1  UNL1        0.0750
     11  C         26.6520  -23.3430  -11.9440 C.2     1  UNL1        0.0170
     12  C         26.1250  -22.8520  -13.2220 C.2     1  UNL1       -0.0330
     13  C         25.9950  -21.4720  -13.4250 C.2     1  UNL1        0.0140
     14  C         25.4800  -20.9780  -14.6280 C.2     1  UNL1        0.0400
     15  C         25.0890  -21.8640  -15.6300 C.2     1  UNL1        0.1020
     16  C         25.1850  -23.2440  -15.4210 C.2     1  UNL1        0.1020
     17  O         24.6110  -21.3100  -16.7910 O.2     1  UNL1       -0.3460
     18  C         25.7090  -23.7370  -14.2250 C.2     1  UNL1        0.0510
     19  O         24.7870  -24.1750  -16.3480 O.2     1  UNL1       -0.3460
     20  C         23.9850  -23.5820  -17.3760 C.3     1  UNL1        0.2020
     21  C         24.5940  -22.2720  -17.8520 C.3     1  UNL1        0.2020
     22  C         19.7100  -23.0290   -7.9620 C.2     1  UNL1       -0.0060
     23  C         18.9920  -24.2190   -7.7900 C.2     1  UNL1        0.0140
     24  C         18.1630  -24.3830   -6.6770 C.2     1  UNL1        0.0010
     25  C         18.0580  -23.3650   -5.7290 C.2     1  UNL1        0.0000
     26  C         18.7870  -22.1860   -5.8850 C.2     1  UNL1        0.0010
     27  C         19.6160  -22.0190   -6.9970 C.2     1  UNL1        0.0140
     28  C         18.8890  -21.7000  -10.7210 C.2     1  UNL1        0.1460
     29  N         18.7310  -20.6820  -11.5450 N.2     1  UNL1       -0.2400
     30  C         17.3780  -20.4750  -11.6370 C.2     1  UNL1        0.1360
     31  C         16.6960  -21.3730  -10.8540 C.2     1  UNL1        0.1090
     32  N         17.6670  -22.1400  -10.2700 N.pl3   1  UNL1       -0.3480
     33  H         17.5160  -22.9080   -9.6280 H       1  UNL1        0.1670
@<TRIPOS>BOND
     1    21    20    1
     2    21    17    1
     3    20    19    1
     4    17    15    1
     5    19    16    1
     6    15    16    2
     7    15    14    1
     8    16    18    1
     9    14    13    2
    10    18    12    2
    11    13    12    1
    12    12    11    1
    13    11    10    2
    14    30    29    1
    15    30    31    2
    16    29    28    2
    17     5     4   ar
    18     5     1   ar
    19    31    32    1
    20    10     7    1
    21    28     4    1
    22    28    32    1
    23     7     8    2
    24     7     6   am
    25     9     6    1
    26     6     1    1
    27     4     3   ar
    28    32    33    1
    29     1     2   ar
    30     3     2   ar
    31     3    22    1
    32    22    23    2
    33    22    27    1
    34    23    24    1
    35    27    26    2
    36    24    25    2
    37    26    25    1
