@<TRIPOS>MOLECULE
81161_out_ligand_01.pdbqt
 35 38 0 0 0
SMALL
GASTEIGER

@<TRIPOS>ATOM
      1  C         19.8060  -22.2610  -10.2300 C.2     1  UNL1        0.0540
      2  C         18.9170  -21.3420  -10.8070 C.2     1  UNL1        0.0190
      3  C         19.2740  -20.6730  -11.9800 C.2     1  UNL1        0.0010
      4  C         20.5070  -20.9220  -12.5810 C.2     1  UNL1        0.0020
      5  C         21.3900  -21.8450  -12.0160 C.2     1  UNL1        0.0250
      6  C         21.0400  -22.5270  -10.8490 C.2     1  UNL1        0.0380
      7  N         22.0050  -23.4050  -10.2490 N.pl3   1  UNL1       -0.1800
      8  H         21.6000  -24.0290   -9.5330 H       1  UNL1        0.1460
      9  S         23.3760  -22.6570   -9.5830 S.O2    1  UNL1        0.2460
     10  O         23.0120  -21.3480   -9.0810 O.2     1  UNL1       -0.2060
     11  O         24.0320  -23.6370   -8.7440 O.2     1  UNL1       -0.2060
     12  C         24.4100  -22.4450  -11.0160 C.2     1  UNL1        0.0770
     13  C         25.2460  -21.3050  -11.1120 C.2     1  UNL1        0.0270
     14  C         26.0690  -21.1210  -12.2290 C.2     1  UNL1        0.0330
     15  C         26.0210  -22.0950  -13.1990 C.ar    1  UNL1        0.0630
     16  N         26.7130  -22.1850  -14.4000 N.ar    1  UNL1       -0.3070
     17  C         25.2010  -23.2200  -13.0910 C.ar    1  UNL1        0.0640
     18  C         26.3350  -23.3690  -15.0520 C.ar    1  UNL1        0.3250
     19  H         27.3900  -21.5370  -14.7700 H       1  UNL1        0.1700
     20  O         26.7450  -23.7680  -16.1270 O.2     1  UNL1       -0.2470
     21  N         25.3940  -23.9990  -14.2260 N.ar    1  UNL1       -0.3060
     22  H         24.9560  -24.8790  -14.4470 H       1  UNL1        0.1700
     23  C         24.3840  -23.4330  -12.0100 C.2     1  UNL1        0.0560
     24  C         19.4260  -22.9950   -8.9950 C.2     1  UNL1        0.2580
     25  N         18.6190  -22.2850   -8.1260 N.am    1  UNL1       -0.3220
     26  H         18.5130  -21.3010   -8.3310 H       1  UNL1        0.1690
     27  O         19.8870  -24.1210   -8.8430 O.2     1  UNL1       -0.2670
     28  C         18.0480  -22.7320   -6.9080 C.2     1  UNL1        0.0410
     29  C         17.1180  -23.7770   -6.8750 C.2     1  UNL1        0.0300
     30  C         16.5530  -24.1950   -5.6730 C.2     1  UNL1        0.0030
     31  C         16.9060  -23.5700   -4.4840 C.2     1  UNL1        0.0070
     32  C         17.8310  -22.5150   -4.4760 C.2     1  UNL1       -0.0540
     33  C         18.1720  -21.8810   -3.1530 C.3     1  UNL1        0.0490
     34  C         18.4110  -22.0850   -5.6960 C.2     1  UNL1       -0.0290
     35  C         19.4160  -20.9570   -5.7100 C.3     1  UNL1        0.0510
@<TRIPOS>BOND
     1    20    18    2
     2    18    16   ar
     3    18    21   ar
     4    19    16    1
     5    22    21    1
     6    16    15   ar
     7    21    17   ar
     8    15    17   ar
     9    15    14    1
    10    17    23    1
    11     4     5    2
    12     4     3    1
    13    14    13    2
    14     5     6    1
    15    23    12    2
    16     3     2    2
    17    13    12    1
    18    12     9    1
    19     6     7    1
    20     6     1    2
    21     2     1    1
    22     7     9    1
    23     7     8    1
    24     1    24    1
    25     9    10    2
    26     9    11    2
    27    24    27    2
    28    24    25   am
    29    26    25    1
    30    25    28    1
    31    28    29    2
    32    28    34    1
    33    29    30    1
    34    35    34    1
    35    34    32    2
    36    30    31    2
    37    31    32    1
    38    32    33    1
