@<TRIPOS>MOLECULE
811_out_ligand_01.pdbqt
 37 40 0 0 0
SMALL
GASTEIGER

@<TRIPOS>ATOM
      1  C         20.5500  -22.6290   -9.5520 C.2     1  UNL1        0.0340
      2  C         19.8840  -21.9470  -10.5800 C.2     1  UNL1        0.0170
      3  C         20.5340  -21.7130  -11.7930 C.2     1  UNL1        0.0030
      4  C         21.8380  -22.1690  -11.9870 C.2     1  UNL1        0.0300
      5  C         22.4940  -22.8660  -10.9720 C.2     1  UNL1        0.0430
      6  C         21.8540  -23.0980   -9.7570 C.2     1  UNL1        0.0470
      7  C         19.8980  -22.9150   -8.2430 C.2     1  UNL1        0.2560
      8  N         19.5320  -21.8000   -7.5110 N.am    1  UNL1       -0.3230
      9  H         19.8190  -20.9000   -7.8710 H       1  UNL1        0.1690
     10  O         19.7680  -24.0880   -7.9090 O.2     1  UNL1       -0.2670
     11  C         18.8850  -21.7750   -6.2570 C.2     1  UNL1        0.0360
     12  C         19.3430  -21.0510   -5.1530 C.2     1  UNL1        0.0290
     13  C         18.6390  -21.0650   -3.9420 C.2     1  UNL1        0.0040
     14  C         17.4720  -21.8140   -3.8180 C.2     1  UNL1        0.0250
     15  C         17.0250  -22.5550   -4.9100 C.2     1  UNL1        0.0760
     16  C         17.7150  -22.5320   -6.1290 C.2     1  UNL1        0.0540
     17  S         15.5440  -23.5180   -4.7720 S.O2    1  UNL1        0.2390
     18  O         15.1270  -23.9100   -6.0970 O.2     1  UNL1       -0.2060
     19  O         15.7150  -24.4660   -3.6950 O.2     1  UNL1       -0.2060
     20  N         14.4360  -22.3570   -4.2650 N.3     1  UNL1       -0.2250
     21  H         14.7010  -22.0340   -3.3320 H       1  UNL1        0.1360
     22  H         13.4690  -22.6780   -4.2930 H       1  UNL1        0.1360
     23  N         23.8010  -23.3900  -11.1770 N.pl3   1  UNL1       -0.2810
     24  H         23.8970  -24.2140  -11.7700 H       1  UNL1        0.1790
     25  S         25.0900  -22.3160  -11.4060 S.O2    1  UNL1        0.2630
     26  O         26.3000  -23.0810  -11.1960 O.2     1  UNL1       -0.2000
     27  O         24.8310  -21.1000  -10.6630 O.2     1  UNL1       -0.2000
     28  C         24.9870  -21.9420  -13.1400 C.2     1  UNL1        0.0820
     29  C         24.9800  -20.6090  -13.5690 C.2     1  UNL1        0.0280
     30  C         24.8740  -20.3290  -14.9320 C.2     1  UNL1        0.0410
     31  C         24.7840  -21.3740  -15.8510 C.2     1  UNL1        0.1020
     32  C         24.7830  -22.7030  -15.4110 C.2     1  UNL1        0.1030
     33  O         24.6910  -21.0200  -17.1730 O.2     1  UNL1       -0.3460
     34  C         24.9100  -22.9940  -14.0560 C.2     1  UNL1        0.0650
     35  O         24.6620  -23.7740  -16.2590 O.2     1  UNL1       -0.3460
     36  C         24.1670  -23.3660  -17.5400 C.3     1  UNL1        0.2020
     37  C         24.9190  -22.1410  -18.0350 C.3     1  UNL1        0.2020
@<TRIPOS>BOND
     1    37    36    1
     2    37    33    1
     3    36    35    1
     4    33    31    1
     5    35    32    1
     6    31    32    2
     7    31    30    1
     8    32    34    1
     9    30    29    2
    10    34    28    2
    11    29    28    1
    12    28    25    1
    13     4     3    2
    14     4     5    1
    15     3     2    1
    16    24    23    1
    17    25    26    2
    18    25    23    1
    19    25    27    2
    20    23     5    1
    21     5     6    2
    22     2     1    2
    23     6     1    1
    24     1     7    1
    25     7    10    2
    26     7     8   am
    27     9     8    1
    28     8    11    1
    29    11    16    2
    30    11    12    1
    31    16    15    1
    32    18    17    2
    33    12    13    2
    34    15    17    1
    35    15    14    2
    36    17    20    1
    37    17    19    2
    38    22    20    1
    39    20    21    1
    40    13    14    1
