@<TRIPOS>MOLECULE
81290_out_ligand_01.pdbqt
 31 34 0 0 0
SMALL
GASTEIGER

@<TRIPOS>ATOM
      1  O         23.4920  -21.2760   -9.3990 O.2     1  UNL1       -0.2720
      2  C         23.6840  -22.4460   -9.7230 C.2     1  UNL1        0.2310
      3  N         22.8870  -23.5260   -9.3880 N.am    1  UNL1       -0.3270
      4  H         23.1850  -24.4290   -9.7400 H       1  UNL1        0.1690
      5  C         24.9230  -22.8230  -10.5250 C.3     1  UNL1        0.1860
      6  S         24.5560  -23.1290  -12.2760 S.3     1  UNL1       -0.0730
      7  C         23.0710  -22.2450  -12.4630 C.ar    1  UNL1        0.2310
      8  N         22.8950  -21.2860  -13.3480 N.ar    1  UNL1       -0.1140
      9  N         21.5850  -20.8670  -13.2220 N.ar    1  UNL1       -0.1200
     10  C         21.0480  -21.6070  -12.2740 C.ar    1  UNL1        0.2030
     11  O         21.9430  -22.4880  -11.7300 O.2     1  UNL1       -0.2630
     12  C         19.6890  -21.6300  -11.7500 C.2     1  UNL1        0.0190
     13  C         18.8540  -20.4990  -11.8080 C.2     1  UNL1        0.0190
     14  C         17.5560  -20.5450  -11.2910 C.2     1  UNL1        0.0430
     15  C         17.0870  -21.7200  -10.7160 C.2     1  UNL1        0.1160
     16  F         15.8440  -21.7630  -10.2220 F       1  UNL1       -0.2060
     17  C         17.8910  -22.8500  -10.6460 C.2     1  UNL1        0.0430
     18  C         19.1900  -22.8050  -11.1610 C.2     1  UNL1        0.0190
     19  C         21.6630  -23.5130   -8.6890 C.2     1  UNL1        0.0340
     20  C         21.1860  -22.4160   -7.9670 C.2     1  UNL1        0.0300
     21  C         19.9490  -22.4760   -7.3100 C.2     1  UNL1        0.0190
     22  C         19.1810  -23.6430   -7.3600 C.2     1  UNL1        0.0320
     23  C         19.6500  -24.7380   -8.0930 C.2     1  UNL1        0.0190
     24  C         20.8820  -24.6730   -8.7490 C.2     1  UNL1        0.0300
     25  C         17.8570  -23.7570   -6.6860 C.2     1  UNL1        0.2520
     26  O         16.9000  -24.2190   -7.2990 O.2     1  UNL1       -0.2680
     27  N         17.8020  -23.3540   -5.3650 N.am    1  UNL1       -0.3520
     28  H         18.6610  -23.1500   -4.8720 H       1  UNL1        0.1630
     29  C         16.5980  -23.4390   -4.6010 C.3     1  UNL1        0.0840
     30  C         16.3450  -22.4920   -3.4600 C.3     1  UNL1        0.0270
     31  C         15.5460  -22.3710   -4.7240 C.3     1  UNL1        0.0270
@<TRIPOS>BOND
     1     8     9   ar
     2     8     7   ar
     3     9    10   ar
     4     7     6    1
     5     7    11   ar
     6     6     5    1
     7    10    12    1
     8    10    11   ar
     9    13    12    2
    10    13    14    1
    11    12    18    1
    12    14    15    2
    13    18    17    2
    14    15    17    1
    15    15    16    1
    16     5     2    1
    17     4     3    1
    18     2     1    2
    19     2     3   am
    20     3    19    1
    21    24    19    2
    22    24    23    1
    23    19    20    1
    24    23    22    2
    25    20    21    2
    26    22    21    1
    27    22    25    1
    28    26    25    2
    29    25    27   am
    30    27    28    1
    31    27    29    1
    32    31    29    1
    33    31    30    1
    34    29    30    1
