@<TRIPOS>MOLECULE
81296_out_ligand_01.pdbqt
 32 35 0 0 0
SMALL
GASTEIGER

@<TRIPOS>ATOM
      1  C         23.7010  -21.6290  -10.3780 C.ar    1  UNL1        0.1920
      2  N         24.9810  -21.3600  -10.3370 N.ar    1  UNL1       -0.1220
      3  N         25.4400  -21.3610  -11.6260 N.ar    1  UNL1       -0.1280
      4  C         24.4260  -21.6040  -12.4390 C.ar    1  UNL1        0.1670
      5  N         23.3030  -21.8330  -11.6740 N.ar    1  UNL1       -0.3070
      6  S         22.6840  -21.7540   -8.9850 S.3     1  UNL1       -0.0810
      7  C         22.4470  -23.5610   -8.8950 C.3     1  UNL1        0.1850
      8  C         21.0630  -24.0270   -8.4450 C.2     1  UNL1        0.2310
      9  N         20.3350  -23.1200   -7.7040 N.am    1  UNL1       -0.3260
     10  H         20.7490  -22.1960   -7.6210 H       1  UNL1        0.1690
     11  O         20.6700  -25.1390   -8.8090 O.2     1  UNL1       -0.2720
     12  C         19.0680  -23.2850   -7.0950 C.2     1  UNL1        0.0400
     13  C         18.2480  -24.3940   -7.3470 C.2     1  UNL1        0.0300
     14  C         17.0050  -24.5260   -6.7210 C.2     1  UNL1        0.0020
     15  C         16.5730  -23.5580   -5.8200 C.2     1  UNL1        0.0010
     16  C         17.3840  -22.4600   -5.5380 C.2     1  UNL1        0.0090
     17  C         18.6280  -22.3020   -6.1770 C.2     1  UNL1       -0.0350
     18  C         19.4410  -21.0730   -5.8560 C.3     1  UNL1        0.0500
     19  C         22.0030  -22.2750  -12.1260 C.3     1  UNL1        0.1370
     20  C         21.0270  -21.1130  -12.3130 C.3     1  UNL1        0.0590
     21  C         19.6730  -21.3990  -11.7080 C.2     1  UNL1       -0.0570
     22  C         19.4280  -22.6270  -11.0740 C.2     1  UNL1        0.0070
     23  C         18.1740  -22.9000  -10.5200 C.2     1  UNL1        0.0010
     24  C         17.1520  -21.9520  -10.5950 C.2     1  UNL1        0.0000
     25  C         17.3840  -20.7290  -11.2260 C.2     1  UNL1        0.0010
     26  C         18.6360  -20.4550  -11.7860 C.2     1  UNL1        0.0070
     27  C         24.5930  -21.6120  -13.9930 C.2     1  UNL1        0.0430
     28  C         24.3770  -20.5910  -14.9510 C.2     1  UNL1        0.0420
     29  C         24.6690  -21.1410  -16.1780 C.2     1  UNL1        0.1430
     30  O         25.0610  -22.4300  -16.0380 O.2     1  UNL1       -0.3260
     31  C         25.0200  -22.7190  -14.7060 C.2     1  UNL1        0.0620
     32  C         25.4200  -24.0930  -14.3290 C.3     1  UNL1        0.0770
@<TRIPOS>BOND
     1    29    30    1
     2    29    28    2
     3    30    31    1
     4    28    27    1
     5    31    32    1
     6    31    27    2
     7    27     4    1
     8     4     5   ar
     9     4     3   ar
    10    20    19    1
    11    20    21    1
    12    19     5    1
    13    26    21    2
    14    26    25    1
    15    21    22    1
    16     5     1   ar
    17     3     2   ar
    18    25    24    2
    19    22    23    2
    20    24    23    1
    21     1     2   ar
    22     1     6    1
    23     6     7    1
    24     7     8    1
    25    11     8    2
    26     8     9   am
    27     9    10    1
    28     9    12    1
    29    13    12    2
    30    13    14    1
    31    12    17    1
    32    14    15    2
    33    17    18    1
    34    17    16    2
    35    15    16    1
