@<TRIPOS>MOLECULE
81306_out_ligand_01.pdbqt
 38 41 0 0 0
SMALL
GASTEIGER

@<TRIPOS>ATOM
      1  N         19.1850  -20.6540  -12.1220 N.1     1  UNL1       -0.1910
      2  C         19.9940  -21.3740  -11.7030 C.1     1  UNL1        0.1030
      3  C         21.0260  -22.2430  -11.2280 C.2     1  UNL1        0.0950
      4  C         20.7480  -23.2360  -10.3560 C.2     1  UNL1        0.1140
      5  C         22.3820  -22.1170  -11.6930 C.2     1  UNL1        0.1200
      6  N         22.7640  -21.5370  -12.8220 N.2     1  UNL1       -0.2390
      7  C         24.1340  -21.6090  -12.9920 C.2     1  UNL1        0.0750
      8  C         24.8220  -22.2070  -11.9600 C.2     1  UNL1        0.0840
      9  S         23.7210  -22.7520  -10.7720 S.3     1  UNL1       -0.0780
     10  C         24.7850  -21.0150  -14.1510 C.2     1  UNL1        0.0040
     11  C         25.4050  -19.7690  -13.9600 C.2     1  UNL1        0.0140
     12  C         26.0830  -19.1490  -15.0030 C.2     1  UNL1        0.0020
     13  C         26.1450  -19.7670  -16.2500 C.2     1  UNL1        0.0120
     14  C         25.5170  -21.0030  -16.4780 C.2     1  UNL1       -0.0250
     15  C         25.5810  -21.5960  -17.7500 C.2     1  UNL1        0.0120
     16  C         24.8120  -21.6460  -15.4270 C.2     1  UNL1       -0.0130
     17  C         24.9500  -22.8110  -18.0100 C.2     1  UNL1        0.0010
     18  C         24.2380  -23.4470  -17.0020 C.2     1  UNL1        0.0010
     19  C         24.1670  -22.8710  -15.7310 C.2     1  UNL1        0.0130
     20  N         19.5610  -23.6140   -9.7480 N.pl3   1  UNL1       -0.3640
     21  H         19.3300  -24.5960   -9.9140 H       1  UNL1        0.1650
     22  C         19.1890  -23.2780   -8.4230 C.2     1  UNL1        0.0320
     23  C         19.6620  -22.1330   -7.7660 C.2     1  UNL1        0.0310
     24  C         19.2900  -21.8640   -6.4460 C.2     1  UNL1        0.0270
     25  C         18.4340  -22.7400   -5.7760 C.2     1  UNL1        0.0800
     26  C         17.9890  -23.9080   -6.4000 C.2     1  UNL1        0.0270
     27  C         18.3710  -24.1730   -7.7170 C.2     1  UNL1        0.0310
     28  S         17.9690  -22.4120   -4.0950 S.O2    1  UNL1        0.2650
     29  O         18.7970  -21.3510   -3.5630 O.2     1  UNL1       -0.2000
     30  O         17.9020  -23.6930   -3.4170 O.2     1  UNL1       -0.2000
     31  N         16.3860  -21.8980   -4.2030 N.pl3   1  UNL1       -0.2550
     32  C         15.2560  -22.6810   -4.2330 C.cat   1  UNL1        0.1790
     33  N         15.3100  -23.9540   -4.2160 N.pl3   1  UNL1       -0.2730
     34  N         14.1190  -21.9640   -4.2810 N.pl3   1  UNL1       -0.2720
     35  H         14.3670  -24.3440   -4.2040 H       1  UNL1        0.1890
     36  H         14.1970  -21.0780   -4.7620 H       1  UNL1        0.1270
     37  H         13.3030  -22.4810   -4.5820 H       1  UNL1        0.1270
     38  H         16.3100  -20.9020   -4.0460 H       1  UNL1        0.1810
@<TRIPOS>BOND
     1    17    15    2
     2    17    18    1
     3    15    14    1
     4    18    19    2
     5    14    13    2
     6    14    16    1
     7    13    12    1
     8    19    16    1
     9    16    10    2
    10    12    11    2
    11    10    11    1
    12    10     7    1
    13     7     6    1
    14     7     8    2
    15     6     5    2
    16     1     2    3
    17     8     9    1
    18     2     3    1
    19     5     3    1
    20     5     9    1
    21     3     4    2
    22     4    20    1
    23    21    20    1
    24    20    22    1
    25    22    23    2
    26    22    27    1
    27    23    24    1
    28    27    26    2
    29    24    25    2
    30    26    25    1
    31    25    28    1
    32    36    34    1
    33    37    34    1
    34    34    32    1
    35    32    33    2
    36    32    31    1
    37    33    35    1
    38    31    28    1
    39    31    38    1
    40    28    29    2
    41    28    30    2
