@<TRIPOS>MOLECULE
81300_out_ligand_01.pdbqt
 27 31 0 0 0
SMALL
GASTEIGER

@<TRIPOS>ATOM
      1  C         24.7570  -22.5140  -12.1860 C.2     1  UNL1        0.1580
      2  N         24.6530  -21.9410  -13.4130 N.2     1  UNL1       -0.2220
      3  C         23.4650  -21.4620  -13.8000 C.2     1  UNL1        0.2360
      4  N         22.3210  -21.4760  -13.1140 N.2     1  UNL1       -0.2400
      5  C         22.4120  -22.0510  -11.8860 C.ar    1  UNL1        0.0920
      6  C         23.6050  -22.5740  -11.3950 C.ar    1  UNL1        0.0830
      7  S         23.3970  -23.2240   -9.8180 S.2     1  UNL1       -0.0630
      8  C         21.7480  -22.8110   -9.7870 C.ar    1  UNL1        0.1120
      9  N         21.0020  -23.0860   -8.6960 N.ar    1  UNL1       -0.2390
     10  C         19.6990  -22.7230   -8.7670 C.ar    1  UNL1        0.0750
     11  C         19.1610  -22.1040   -9.8840 C.ar    1  UNL1       -0.0210
     12  C         19.9730  -21.8270  -10.9920 C.ar    1  UNL1       -0.0340
     13  C         21.3270  -22.1920  -10.9570 C.ar    1  UNL1        0.0370
     14  C         19.1980  -21.0940  -12.0530 C.3     1  UNL1        0.0400
     15  C         17.7570  -21.3890  -11.6270 C.3     1  UNL1        0.0090
     16  C         17.7810  -21.5630  -10.1030 C.3     1  UNL1        0.0420
     17  C         18.9170  -23.0170   -7.5580 C.2     1  UNL1       -0.0070
     18  C         18.2390  -24.2370   -7.3980 C.2     1  UNL1        0.0140
     19  C         17.4980  -24.5030   -6.2430 C.2     1  UNL1        0.0010
     20  C         17.4300  -23.5550   -5.2240 C.2     1  UNL1        0.0000
     21  C         18.1090  -22.3460   -5.3550 C.2     1  UNL1        0.0010
     22  C         18.8490  -22.0820   -6.5110 C.2     1  UNL1        0.0140
     23  N         25.9990  -23.0320  -11.7600 N.pl3   1  UNL1       -0.3070
     24  H         26.7650  -22.3680  -11.8920 H       1  UNL1        0.1820
     25  N         26.2700  -24.3890  -12.0340 N.3     1  UNL1       -0.2480
     26  H         26.1620  -24.9230  -11.1600 H       1  UNL1        0.1430
     27  H         27.2590  -24.4950  -12.2730 H       1  UNL1        0.1430
@<TRIPOS>BOND
     1     3     2    1
     2     3     4    2
     3     2     1    2
     4     4     5    1
     5    27    25    1
     6     1    23    1
     7     1     6    1
     8    14    15    1
     9    14    12    1
    10    25    23    1
    11    25    26    1
    12    24    23    1
    13     5     6   ar
    14     5    13   ar
    15    15    16    1
    16     6     7   ar
    17    12    13   ar
    18    12    11   ar
    19    13     8   ar
    20    16    11    1
    21    11    10   ar
    22     7     8   ar
    23     8     9   ar
    24    10     9   ar
    25    10    17    1
    26    17    18    2
    27    17    22    1
    28    18    19    1
    29    22    21    2
    30    19    20    2
    31    21    20    1
