@<TRIPOS>MOLECULE
81314_out_ligand_01.pdbqt
 30 35 0 0 0
SMALL
GASTEIGER

@<TRIPOS>ATOM
      1  C         19.4970  -22.7240   -8.7010 C.ar    1  UNL1        0.0750
      2  N         20.8030  -23.0790   -8.7060 N.ar    1  UNL1       -0.2390
      3  C         21.4870  -22.7870   -9.8340 C.ar    1  UNL1        0.1120
      4  S         23.1330  -23.1900   -9.9630 S.2     1  UNL1       -0.0640
      5  C         23.2490  -22.5190  -11.5420 C.ar    1  UNL1        0.0770
      6  C         24.3600  -22.4420  -12.3940 C.2     1  UNL1        0.1240
      7  N         24.1820  -21.8540  -13.5980 N.2     1  UNL1       -0.2290
      8  C         22.9700  -21.3810  -13.9170 C.2     1  UNL1        0.2350
      9  N         21.8650  -21.4080  -13.1700 N.2     1  UNL1       -0.2400
     10  C         22.0270  -21.9970  -11.9570 C.ar    1  UNL1        0.0920
     11  C         20.9970  -22.1580  -10.9710 C.ar    1  UNL1        0.0370
     12  C         19.6410  -21.8010  -10.9270 C.ar    1  UNL1       -0.0340
     13  C         18.8930  -22.0960   -9.7790 C.ar    1  UNL1       -0.0210
     14  C         17.5000  -21.5620   -9.9140 C.3     1  UNL1        0.0420
     15  C         17.3910  -21.3710  -11.4320 C.3     1  UNL1        0.0090
     16  C         18.8050  -21.0610  -11.9350 C.3     1  UNL1        0.0400
     17  N         25.6030  -22.9620  -12.0420 N.pl3   1  UNL1       -0.2700
     18  H         25.7020  -23.0820  -11.0380 H       1  UNL1        0.1290
     19  C         26.7510  -22.3150  -12.6610 C.3     1  UNL1        0.1590
     20  C         26.8490  -20.8670  -12.3120 C.2     1  UNL1        0.0650
     21  C         26.7350  -20.1650  -11.1300 C.2     1  UNL1        0.0360
     22  C         26.9150  -18.8000  -11.4570 C.2     1  UNL1        0.0270
     23  C         27.1210  -18.7550  -12.8160 C.2     1  UNL1        0.1420
     24  O         27.0800  -20.0050  -13.3460 O.2     1  UNL1       -0.3260
     25  C         18.7860  -23.0360   -7.4530 C.2     1  UNL1       -0.0070
     26  C         18.1010  -24.2510   -7.2800 C.2     1  UNL1        0.0140
     27  C         17.4280  -24.5350   -6.0890 C.2     1  UNL1        0.0010
     28  C         17.4340  -23.6110   -5.0470 C.2     1  UNL1        0.0000
     29  C         18.1200  -22.4070   -5.1920 C.2     1  UNL1        0.0010
     30  C         18.7930  -22.1250   -6.3830 C.2     1  UNL1        0.0140
@<TRIPOS>BOND
     1     8     7    2
     2     8     9    1
     3     7     6    1
     4    24    23    1
     5    24    20    1
     6     9    10    2
     7    23    22    2
     8    19    20    1
     9    19    17    1
    10     6    17    1
    11     6     5    2
    12    20    21    2
    13    17    18    1
    14    10     5   ar
    15    10    11   ar
    16    16    15    1
    17    16    12    1
    18     5     4   ar
    19    22    21    1
    20    15    14    1
    21    11    12   ar
    22    11     3   ar
    23    12    13   ar
    24     4     3   ar
    25    14    13    1
    26     3     2   ar
    27    13     1   ar
    28     2     1   ar
    29     1    25    1
    30    25    26    2
    31    25    30    1
    32    26    27    1
    33    30    29    2
    34    27    28    2
    35    29    28    1
