@<TRIPOS>MOLECULE
81319_out_ligand_01.pdbqt
 31 34 0 0 0
SMALL
GASTEIGER

@<TRIPOS>ATOM
      1  C         23.1250  -22.4900  -10.5210 C.2     1  UNL1        0.0320
      2  C         21.9120  -22.5060  -11.2190 C.2     1  UNL1        0.0190
      3  C         20.6960  -22.5000  -10.5220 C.2     1  UNL1        0.0300
      4  C         20.6770  -22.4900   -9.1260 C.2     1  UNL1        0.0340
      5  C         21.8940  -22.4900   -8.4330 C.2     1  UNL1        0.0300
      6  C         23.1090  -22.4950   -9.1240 C.2     1  UNL1        0.0190
      7  N         19.5000  -22.4760   -8.3520 N.am    1  UNL1       -0.3260
      8  C         18.8390  -23.5580   -7.7830 C.2     1  UNL1        0.2350
      9  O         19.2100  -24.7270   -7.8480 O.2     1  UNL1       -0.2720
     10  H         19.1360  -21.5590   -8.1200 H       1  UNL1        0.1690
     11  C         17.5210  -23.1570   -7.0490 C.3     1  UNL1        0.0680
     12  C         16.6910  -22.2290   -7.9650 C.3     1  UNL1        0.0240
     13  C         16.0870  -23.1620   -9.0080 C.3     1  UNL1        0.0020
     14  C         15.8330  -24.4730   -8.2740 C.3     1  UNL1        0.0020
     15  C         16.5610  -24.3650   -6.9310 C.3     1  UNL1        0.0240
     16  C         17.8540  -22.5920   -5.6630 C.2     1  UNL1       -0.0400
     17  C         17.4300  -23.2050   -4.4720 C.2     1  UNL1        0.0080
     18  C         17.7280  -22.6400   -3.2290 C.2     1  UNL1        0.0010
     19  C         18.4480  -21.4500   -3.1530 C.2     1  UNL1        0.0000
     20  C         18.8690  -20.8220   -4.3220 C.2     1  UNL1        0.0010
     21  C         18.5730  -21.3860   -5.5640 C.2     1  UNL1        0.0080
     22  C         24.4410  -22.4950  -11.2170 C.2     1  UNL1        0.2510
     23  O         25.3480  -21.7790  -10.8080 O.2     1  UNL1       -0.2680
     24  N         24.5450  -23.3210  -12.3200 N.am    1  UNL1       -0.3540
     25  H         23.6950  -23.7010  -12.7120 H       1  UNL1        0.1620
     26  C         25.7020  -23.2490  -13.1970 C.3     1  UNL1        0.1550
     27  C         25.3720  -22.5800  -14.5460 C.3     1  UNL1        0.1390
     28  C         26.2100  -21.3360  -14.7940 C.3     1  UNL1        0.0350
     29  C         25.3930  -20.2540  -14.1300 C.3     1  UNL1        0.0290
     30  C         23.9720  -20.7120  -14.3880 C.3     1  UNL1        0.1680
     31  O         24.0040  -22.1340  -14.5730 O.3     1  UNL1       -0.3840
@<TRIPOS>BOND
     1    28    27    1
     2    28    29    1
     3    31    27    1
     4    31    30    1
     5    27    26    1
     6    30    29    1
     7    26    24    1
     8    25    24    1
     9    24    22   am
    10     2     3    1
    11     2     1    2
    12    22    23    2
    13    22     1    1
    14     3     4    2
    15     1     6    1
    16     4     5    1
    17     4     7    1
    18     6     5    2
    19    13    14    1
    20    13    12    1
    21     7    10    1
    22     7     8   am
    23    14    15    1
    24    12    11    1
    25     9     8    2
    26     8    11    1
    27    11    15    1
    28    11    16    1
    29    16    21    2
    30    16    17    1
    31    21    20    1
    32    17    18    2
    33    20    19    2
    34    18    19    1
