@<TRIPOS>MOLECULE
81325_out_ligand_01.pdbqt
 35 39 0 0 0
SMALL
GASTEIGER

@<TRIPOS>ATOM
      1  C         19.6640  -22.0500  -11.0740 C.2     1  UNL1        0.0320
      2  C         20.5630  -22.8220  -10.3300 C.2     1  UNL1        0.0190
      3  C         21.9110  -22.8760  -10.6930 C.2     1  UNL1        0.0300
      4  C         22.3840  -22.1540  -11.7970 C.2     1  UNL1        0.0340
      5  C         21.4870  -21.3700  -12.5240 C.2     1  UNL1        0.0300
      6  C         20.1340  -21.3130  -12.1640 C.2     1  UNL1        0.0190
      7  C         18.2360  -22.0260  -10.6530 C.2     1  UNL1        0.2510
      8  O         17.5310  -21.0670  -10.9460 O.2     1  UNL1       -0.2680
      9  N         17.7950  -23.1090   -9.9200 N.am    1  UNL1       -0.3540
     10  H         18.4780  -23.7670   -9.5690 H       1  UNL1        0.1620
     11  C         16.4710  -23.1240   -9.3130 C.3     1  UNL1        0.1570
     12  C         16.5290  -23.2260   -7.7820 C.3     1  UNL1        0.1710
     13  C         15.1690  -22.8880   -7.1750 C.3     1  UNL1        0.2090
     14  O         15.1820  -23.0980   -5.7570 O.2     1  UNL1       -0.3460
     15  C         16.3010  -22.5490   -5.1840 C.2     1  UNL1        0.1020
     16  C         16.2870  -22.3930   -3.8000 C.2     1  UNL1        0.0390
     17  C         17.4250  -22.1600   -5.9210 C.2     1  UNL1        0.1020
     18  C         17.3840  -21.8200   -3.1540 C.2     1  UNL1        0.0030
     19  C         18.4930  -21.4050   -3.8940 C.2     1  UNL1        0.0030
     20  C         18.5130  -21.5740   -5.2790 C.2     1  UNL1        0.0390
     21  O         17.5230  -22.3160   -7.2790 O.2     1  UNL1       -0.3390
     22  N         23.7550  -22.2630  -12.0950 N.am    1  UNL1       -0.3250
     23  C         24.8260  -21.7020  -11.4170 C.2     1  UNL1        0.2540
     24  O         24.7600  -21.0220  -10.3970 O.2     1  UNL1       -0.2700
     25  H         23.9980  -22.7590  -12.9470 H       1  UNL1        0.1690
     26  C         26.1800  -22.1000  -12.0360 C.3     1  UNL1        0.2450
     27  C         26.9750  -20.8800  -12.4860 C.3     1  UNL1        0.2180
     28  O         26.3900  -20.2540  -13.6330 O.2     1  UNL1       -0.3450
     29  C         26.0170  -21.1710  -14.5780 C.2     1  UNL1        0.1020
     30  C         25.7520  -20.6810  -15.8560 C.2     1  UNL1        0.0390
     31  C         25.8840  -22.5340  -14.3110 C.2     1  UNL1        0.1030
     32  C         25.3840  -21.5600  -16.8750 C.2     1  UNL1        0.0030
     33  C         25.2790  -22.9270  -16.6160 C.2     1  UNL1        0.0030
     34  C         25.5290  -23.4150  -15.3320 C.2     1  UNL1        0.0400
     35  O         26.0760  -23.0840  -13.0700 O.2     1  UNL1       -0.3310
@<TRIPOS>BOND
     1    32    33    2
     2    32    30    1
     3    33    34    1
     4    30    29    2
     5    34    31    2
     6    29    31    1
     7    29    28    1
     8    31    35    1
     9    28    27    1
    10    35    26    1
    11    25    22    1
    12     5     6    1
    13     5     4    2
    14    27    26    1
    15     6     1    2
    16    22     4    1
    17    22    23   am
    18    26    23    1
    19     4     3    1
    20    23    24    2
    21     1     7    1
    22     1     2    1
    23     8     7    2
    24     3     2    2
    25     7     9   am
    26     9    10    1
    27     9    11    1
    28    11    12    1
    29    12    21    1
    30    12    13    1
    31    21    17    1
    32    13    14    1
    33    17    20    1
    34    17    15    2
    35    14    15    1
    36    20    19    2
    37    15    16    1
    38    19    18    1
    39    16    18    2
