@<TRIPOS>MOLECULE
81343_out_ligand_01.pdbqt
 31 36 0 0 0
SMALL
GASTEIGER

@<TRIPOS>ATOM
      1  C         23.3250  -23.0350  -10.1690 C.ar    1  UNL1        0.0610
      2  C         22.0310  -22.5480  -10.0940 C.ar    1  UNL1        0.1010
      3  S         21.5690  -21.8200  -11.5780 S.2     1  UNL1       -0.0620
      4  C         23.0680  -22.1610  -12.3010 C.ar    1  UNL1        0.1110
      5  N         23.3070  -21.7960  -13.5760 N.2     1  UNL1       -0.2390
      6  C         24.5340  -22.1170  -14.0390 C.2     1  UNL1        0.0750
      7  C         25.5030  -22.7700  -13.2830 C.2     1  UNL1        0.0340
      8  C         25.2150  -23.1310  -11.9660 C.2     1  UNL1        0.0190
      9  C         23.9410  -22.8190  -11.4450 C.ar    1  UNL1        0.0280
     10  C         21.1130  -22.6150   -8.9580 C.2     1  UNL1        0.2610
     11  O         21.4800  -22.4200   -7.8010 O.2     1  UNL1       -0.2670
     12  N         19.8010  -22.9160   -9.2690 N.am    1  UNL1       -0.3470
     13  H         19.5940  -23.0610  -10.2500 H       1  UNL1        0.1630
     14  C         18.7000  -23.0390   -8.3100 C.3     1  UNL1        0.0340
     15  C         18.7900  -24.4370   -7.6390 C.3     1  UNL1        0.0350
     16  C         17.6590  -24.6340   -6.6180 C.3     1  UNL1       -0.0120
     17  C         16.3060  -24.5090   -7.3350 C.3     1  UNL1        0.0090
     18  C         17.7640  -23.5490   -5.5350 C.3     1  UNL1        0.0090
     19  C         16.1830  -23.1230   -7.9850 C.3     1  UNL1       -0.0120
     20  C         16.2980  -22.0400   -6.8980 C.3     1  UNL1        0.0090
     21  C         17.3200  -22.9370   -9.0070 C.3     1  UNL1        0.0350
     22  C         17.6500  -22.1560   -6.1750 C.3     1  UNL1       -0.0120
     23  C         18.7880  -21.9700   -7.1940 C.3     1  UNL1        0.0350
     24  N         23.9500  -23.6500   -9.1360 N.pl3   1  UNL1       -0.3970
     25  H         24.3090  -24.5960   -9.2020 H       1  UNL1        0.1560
     26  H         23.7250  -23.3710   -8.1760 H       1  UNL1        0.1560
     27  C         24.8110  -21.7090  -15.4260 C.2     1  UNL1        0.0330
     28  C         25.2400  -20.4820  -15.9080 C.2     1  UNL1        0.0210
     29  C         25.4150  -20.4690  -17.3230 C.2     1  UNL1        0.0080
     30  C         25.1190  -21.6880  -17.8860 C.2     1  UNL1        0.0500
     31  S         24.6340  -22.8340  -16.7180 S.3     1  UNL1       -0.1000
@<TRIPOS>BOND
     1    30    29    2
     2    30    31    1
     3    29    28    1
     4    31    27    1
     5    28    27    2
     6    27     6    1
     7     6     5    1
     8     6     7    2
     9     5     4    2
    10     7     8    1
    11     4     3   ar
    12     4     9   ar
    13     8     9    2
    14     3     2   ar
    15     9     1   ar
    16    13    12    1
    17     1     2   ar
    18     1    24    1
    19     2    10    1
    20    12    10   am
    21    12    14    1
    22    25    24    1
    23    24    26    1
    24    21    14    1
    25    21    19    1
    26    10    11    2
    27    14    15    1
    28    14    23    1
    29    19    17    1
    30    19    20    1
    31    15    16    1
    32    17    16    1
    33    23    22    1
    34    20    22    1
    35    16    18    1
    36    22    18    1
