@<TRIPOS>MOLECULE
81371_out_ligand_01.pdbqt
 34 37 0 0 0
SMALL
GASTEIGER

@<TRIPOS>ATOM
      1  S         22.6750  -21.9350   -9.1750 S.3     1  UNL1       -0.1000
      2  C         23.8180  -21.8370  -10.5190 C.2     1  UNL1        0.1090
      3  N         25.1230  -21.9600  -10.2140 N.2     1  UNL1       -0.2340
      4  C         26.0130  -21.8230  -11.2060 C.2     1  UNL1        0.2350
      5  N         25.7610  -21.6030  -12.4950 N.2     1  UNL1       -0.2340
      6  C         24.4470  -21.5100  -12.7550 C.2     1  UNL1        0.1120
      7  S         23.9230  -21.2280  -14.3470 S.3     1  UNL1       -0.0800
      8  C         23.4050  -21.6160  -11.8410 C.2     1  UNL1        0.0470
      9  C         22.2860  -21.2380  -13.8690 C.2     1  UNL1        0.0650
     10  C         22.1360  -21.4490  -12.5130 C.2     1  UNL1       -0.0030
     11  C         20.7980  -21.4920  -11.9490 C.2     1  UNL1       -0.0240
     12  C         20.2680  -22.7020  -11.4830 C.2     1  UNL1        0.0130
     13  C         18.9770  -22.7410  -10.9520 C.2     1  UNL1        0.0070
     14  C         18.2030  -21.5760  -10.8810 C.2     1  UNL1       -0.0620
     15  C         16.8250  -21.6270  -10.3020 C.3     1  UNL1        0.0480
     16  C         18.7460  -20.3670  -11.3340 C.2     1  UNL1        0.0070
     17  C         20.0370  -20.3230  -11.8690 C.2     1  UNL1        0.0130
     18  C         22.5100  -23.7460   -9.1130 C.3     1  UNL1        0.1840
     19  C         21.1480  -24.1560   -8.5760 C.2     1  UNL1        0.2310
     20  O         20.7440  -25.3100   -8.6990 O.2     1  UNL1       -0.2720
     21  N         20.4960  -23.1170   -7.9250 N.am    1  UNL1       -0.3270
     22  H         20.9330  -22.2040   -8.0050 H       1  UNL1        0.1690
     23  C         19.2620  -23.1640   -7.2530 C.2     1  UNL1        0.0340
     24  C         18.2920  -24.1490   -7.4610 C.2     1  UNL1        0.0310
     25  C         17.0910  -24.1270   -6.7450 C.2     1  UNL1        0.0270
     26  C         16.8570  -23.1110   -5.8180 C.2     1  UNL1        0.0740
     27  C         17.8200  -22.1290   -5.5860 C.2     1  UNL1        0.0270
     28  C         19.0160  -22.1560   -6.3070 C.2     1  UNL1        0.0310
     29  S         15.3400  -23.0840   -4.9000 S.O2    1  UNL1        0.2390
     30  O         15.0980  -24.4110   -4.3790 O.2     1  UNL1       -0.2060
     31  O         14.3530  -22.3560   -5.6600 O.2     1  UNL1       -0.2060
     32  N         15.7690  -22.1420   -3.5710 N.3     1  UNL1       -0.2250
     33  H         16.3650  -22.6280   -2.9020 H       1  UNL1        0.1360
     34  H         14.9240  -21.7670   -3.1420 H       1  UNL1        0.1360
@<TRIPOS>BOND
     1     7     9    1
     2     7     6    1
     3     9    10    2
     4     6     5    2
     5     6     8    1
     6    10    11    1
     7    10     8    1
     8     5     4    1
     9    11    17    2
    10    11    12    1
    11    17    16    1
    12     8     2    2
    13    12    13    2
    14    16    14    2
    15     4     3    2
    16    13    14    1
    17    14    15    1
    18     2     3    1
    19     2     1    1
    20     1    18    1
    21    18    19    1
    22    20    19    2
    23    19    21   am
    24    22    21    1
    25    21    23    1
    26    24    23    2
    27    24    25    1
    28    23    28    1
    29    25    26    2
    30    28    27    2
    31    26    27    1
    32    26    29    1
    33    31    29    2
    34    29    30    2
    35    29    32    1
    36    32    34    1
    37    32    33    1
