@<TRIPOS>MOLECULE
813_out_ligand_01.pdbqt
 40 43 0 0 0
SMALL
GASTEIGER

@<TRIPOS>ATOM
      1  N         21.6410  -22.6060   -8.7050 N.am    1  UNL1       -0.3230
      2  C         21.6260  -21.7540   -7.6160 C.2     1  UNL1        0.2560
      3  O         22.5300  -21.0190   -7.2400 O.2     1  UNL1       -0.2670
      4  H         20.7750  -23.0810   -8.9260 H       1  UNL1        0.1690
      5  C         22.7050  -22.8290   -9.6010 C.2     1  UNL1        0.0350
      6  C         22.4530  -22.5830  -10.9590 C.2     1  UNL1        0.0310
      7  C         23.4480  -22.7880  -11.9180 C.2     1  UNL1        0.0270
      8  C         24.7070  -23.2330  -11.5170 C.2     1  UNL1        0.0750
      9  C         24.9770  -23.4700  -10.1670 C.2     1  UNL1        0.0270
     10  C         23.9720  -23.2740   -9.2150 C.2     1  UNL1        0.0310
     11  S         25.9740  -23.5210  -12.7310 S.O2    1  UNL1        0.2470
     12  O         26.6070  -22.2510  -13.0080 O.2     1  UNL1       -0.2050
     13  O         26.7280  -24.6740  -12.2930 O.2     1  UNL1       -0.2050
     14  N         25.0440  -24.0260  -14.0590 N.pl3   1  UNL1       -0.1580
     15  H         25.2090  -25.0260  -14.1680 H       1  UNL1        0.1480
     16  C         25.3760  -23.3290  -15.2920 C.ar    1  UNL1        0.1700
     17  O         26.1810  -23.8470  -16.2520 O.2     1  UNL1       -0.2000
     18  N         26.2540  -22.9720  -17.3180 N.ar    1  UNL1       -0.1310
     19  C         25.4780  -21.9350  -16.9850 C.ar    1  UNL1        0.0680
     20  C         25.3190  -20.8000  -17.9210 C.3     1  UNL1        0.0730
     21  C         24.8730  -22.1190  -15.7090 C.ar    1  UNL1        0.0130
     22  C         23.9290  -21.2240  -15.0020 C.3     1  UNL1        0.0540
     23  C         20.3390  -21.7310   -6.8690 C.2     1  UNL1        0.0330
     24  C         20.1400  -20.8690   -5.7800 C.2     1  UNL1        0.0170
     25  C         18.9330  -20.8900   -5.0800 C.2     1  UNL1        0.0030
     26  C         17.9230  -21.7740   -5.4620 C.2     1  UNL1        0.0250
     27  C         18.1230  -22.6260   -6.5540 C.2     1  UNL1        0.0800
     28  C         19.3150  -22.5900   -7.2810 C.2     1  UNL1        0.0420
     29  S         16.8250  -23.7260   -7.0490 S.O2    1  UNL1        0.2630
     30  O         15.5810  -22.9880   -7.1140 O.2     1  UNL1       -0.2000
     31  O         16.9430  -24.9180   -6.2360 O.2     1  UNL1       -0.2000
     32  N         17.2920  -24.1910   -8.6090 N.pl3   1  UNL1       -0.2780
     33  H         16.8080  -25.0460   -8.8810 H       1  UNL1        0.1790
     34  C         17.4090  -23.1600   -9.5900 C.2     1  UNL1        0.0810
     35  C         16.3910  -22.2160   -9.7050 C.2     1  UNL1        0.0330
     36  C         16.5150  -21.1630  -10.6130 C.2     1  UNL1        0.0020
     37  C         17.6620  -21.0450  -11.4030 C.2     1  UNL1        0.0030
     38  C         18.6860  -21.9810  -11.2870 C.2     1  UNL1        0.0440
     39  C         18.5560  -23.0310  -10.3800 C.2     1  UNL1        0.1430
     40  F         19.5370  -23.9400  -10.3110 F       1  UNL1       -0.2040
@<TRIPOS>BOND
     1    20    19    1
     2    18    19   ar
     3    18    17   ar
     4    19    21   ar
     5    17    16   ar
     6    21    16   ar
     7    21    22    1
     8    16    14    1
     9    15    14    1
    10    14    11    1
    11    12    11    2
    12    11    13    2
    13    11     8    1
    14     7     8    2
    15     7     6    1
    16     8     9    1
    17    37    38    2
    18    37    36    1
    19    38    39    1
    20     6     5    2
    21    36    35    2
    22    39    40    1
    23    39    34    2
    24     9    10    2
    25    35    34    1
    26     5    10    1
    27     5     1    1
    28    34    32    1
    29     4     1    1
    30    33    32    1
    31     1     2   am
    32    32    29    1
    33     2     3    2
    34     2    23    1
    35    28    23    2
    36    28    27    1
    37    30    29    2
    38    29    27    1
    39    29    31    2
    40    23    24    1
    41    27    26    2
    42    24    25    2
    43    26    25    1
