@<TRIPOS>MOLECULE
81431_out_ligand_01.pdbqt
 37 41 0 0 0
SMALL
GASTEIGER

@<TRIPOS>ATOM
      1  C         21.5980  -22.1550   -9.6320 C.2     1  UNL1        0.1490
      2  C         21.3820  -22.5740   -8.2960 C.2     1  UNL1        0.0910
      3  C         20.0200  -22.6060   -8.1250 C.2     1  UNL1        0.1540
      4  N         19.2630  -22.9320   -7.0390 N.2     1  UNL1       -0.2290
      5  C         17.9680  -22.8560   -7.1790 C.2     1  UNL1        0.0710
      6  C         17.2830  -22.4690   -8.4550 C.2     1  UNL1        0.0690
      7  C         18.0810  -22.1610   -9.4960 C.2     1  UNL1        0.1460
      8  N         19.4600  -22.2190   -9.3440 N.pl3   1  UNL1       -0.2100
      9  N         20.4230  -21.9470  -10.2530 N.2     1  UNL1       -0.1600
     10  C         22.8850  -21.9540  -10.3400 C.2     1  UNL1        0.2760
     11  O         23.7370  -21.1750   -9.9220 O.2     1  UNL1       -0.2660
     12  N         23.0180  -22.7270  -11.4860 N.am    1  UNL1       -0.3190
     13  H         22.2920  -23.3920  -11.7150 H       1  UNL1        0.1690
     14  C         24.1140  -22.7220  -12.3300 C.2     1  UNL1        0.0710
     15  C         25.3580  -23.3550  -12.1100 C.2     1  UNL1        0.1690
     16  N         26.2130  -23.1780  -13.1200 N.2     1  UNL1       -0.1830
     17  N         25.5310  -22.3880  -13.9770 N.pl3   1  UNL1       -0.2750
     18  C         24.2560  -22.1240  -13.5580 C.2     1  UNL1        0.1430
     19  C         26.1380  -21.9810  -15.2380 C.3     1  UNL1        0.1900
     20  C         26.3550  -20.4860  -15.3100 C.2     1  UNL1       -0.0170
     21  C         26.8230  -19.8090  -14.1660 C.2     1  UNL1        0.0120
     22  C         27.0600  -18.4340  -14.1970 C.2     1  UNL1        0.0240
     23  C         26.8310  -17.7180  -15.3680 C.2     1  UNL1        0.0350
     24 CL         27.1210  -16.0230  -15.4030 Cl      1  UNL1       -0.0840
     25  C         26.3690  -18.3640  -16.5100 C.2     1  UNL1        0.0480
     26  C         26.1330  -19.7420  -16.4820 C.2     1  UNL1        0.0430
     27 CL         25.5480  -20.4740  -17.9330 Cl      1  UNL1       -0.0840
     28  C         17.5750  -21.7670  -10.8310 C.3     1  UNL1        0.4340
     29  F         17.9380  -22.6290  -11.8120 F       1  UNL1       -0.1650
     30  F         17.9690  -20.5220  -11.1970 F       1  UNL1       -0.1650
     31  F         16.2110  -21.7410  -10.8490 F       1  UNL1       -0.1650
     32  C         17.0910  -23.1920   -6.0210 C.2     1  UNL1       -0.0070
     33  C         15.7030  -23.3270   -6.1570 C.2     1  UNL1        0.0140
     34  C         14.9180  -23.6370   -5.0440 C.2     1  UNL1        0.0010
     35  C         15.5130  -23.8070   -3.7930 C.2     1  UNL1        0.0000
     36  C         16.8910  -23.6570   -3.6490 C.2     1  UNL1        0.0010
     37  C         17.6790  -23.3450   -4.7580 C.2     1  UNL1        0.0140
@<TRIPOS>BOND
     1    27    26    1
     2    25    26    1
     3    25    23    2
     4    26    20    2
     5    24    23    1
     6    23    22    1
     7    20    19    1
     8    20    21    1
     9    19    17    1
    10    22    21    2
    11    17    18    1
    12    17    16    1
    13    18    14    2
    14    16    15    2
    15    14    15    1
    16    14    12    1
    17    29    28    1
    18    13    12    1
    19    12    10   am
    20    30    28    1
    21    31    28    1
    22    28     7    1
    23    10    11    2
    24    10     1    1
    25     9     1    2
    26     9     8    1
    27     1     2    1
    28     7     8    1
    29     7     6    2
    30     8     3    1
    31     6     5    1
    32     2     3    2
    33     3     4    1
    34     5     4    2
    35     5    32    1
    36    33    32    2
    37    33    34    1
    38    32    37    1
    39    34    35    2
    40    37    36    2
    41    35    36    1
