@<TRIPOS>MOLECULE
81485_out_ligand_01.pdbqt
 32 35 0 0 0
SMALL
GASTEIGER

@<TRIPOS>ATOM
      1  N         21.1140  -22.4130  -10.3270 N.pl3   1  UNL1       -0.1670
      2  S         21.7900  -22.8110   -8.8050 S.O2    1  UNL1        0.2480
      3  O         22.3440  -24.1480   -8.9090 O.2     1  UNL1       -0.2050
      4  O         22.5850  -21.7040   -8.3180 O.2     1  UNL1       -0.2050
      5  C         20.3470  -22.8930   -7.7700 C.2     1  UNL1        0.0750
      6  C         19.9800  -21.7990   -6.9820 C.2     1  UNL1        0.0250
      7  C         18.8700  -21.9040   -6.1420 C.2     1  UNL1        0.0100
      8  C         18.1190  -23.0890   -6.0970 C.2     1  UNL1       -0.0400
      9  C         18.4940  -24.1700   -6.9090 C.2     1  UNL1        0.0100
     10  C         19.6020  -24.0740   -7.7500 C.2     1  UNL1        0.0250
     11  C         16.9560  -23.2290   -5.1470 C.3     1  UNL1        0.1610
     12  N         15.7470  -22.7110   -5.7500 N.am    1  UNL1       -0.3570
     13  C         14.7550  -22.1360   -4.9900 C.2     1  UNL1        0.2130
     14  C         13.6610  -21.4990   -5.8040 C.3     1  UNL1        0.1170
     15  O         14.7510  -22.1170   -3.7640 O.2     1  UNL1       -0.2740
     16  H         15.7740  -22.5080   -6.7400 H       1  UNL1        0.1620
     17  C         19.9090  -23.2100  -10.6890 C.3     1  UNL1        0.1600
     18  C         18.7210  -22.2960  -10.7880 C.2     1  UNL1       -0.0030
     19  C         18.6300  -21.0740  -11.4270 C.2     1  UNL1        0.0160
     20  C         17.3350  -20.4920  -11.3030 C.2     1  UNL1        0.0080
     21  C         16.4780  -21.2900  -10.5810 C.2     1  UNL1        0.0500
     22  S         17.2280  -22.7350  -10.0630 S.3     1  UNL1       -0.1050
     23  C         22.0910  -22.2650  -11.3750 C.2     1  UNL1        0.0280
     24  C         21.7680  -21.4320  -12.4490 C.2     1  UNL1        0.0270
     25  C         22.6620  -21.2790  -13.5110 C.2     1  UNL1        0.0410
     26  C         23.8720  -21.9680  -13.5010 C.2     1  UNL1        0.1020
     27  C         24.2020  -22.7900  -12.4180 C.2     1  UNL1        0.1030
     28  O         24.6930  -21.7830  -14.5840 O.2     1  UNL1       -0.3460
     29  C         23.3070  -22.9550  -11.3620 C.2     1  UNL1        0.0640
     30  O         25.3880  -23.4750  -12.3310 O.2     1  UNL1       -0.3460
     31  C         26.3570  -22.9430  -13.2430 C.3     1  UNL1        0.2020
     32  C         25.7450  -22.7550  -14.6210 C.3     1  UNL1        0.2020
@<TRIPOS>BOND
     1    32    28    1
     2    32    31    1
     3    28    26    1
     4    25    26    2
     5    25    24    1
     6    26    27    1
     7    31    30    1
     8    24    23    2
     9    27    30    1
    10    27    29    2
    11    19    20    1
    12    19    18    2
    13    23    29    1
    14    23     1    1
    15    20    21    2
    16    18    17    1
    17    18    22    1
    18    17     1    1
    19    21    22    1
    20     1     2    1
    21     3     2    2
    22     2     4    2
    23     2     5    1
    24     5    10    2
    25     5     6    1
    26    10     9    1
    27     6     7    2
    28     9     8    2
    29    16    12    1
    30     7     8    1
    31     8    11    1
    32    14    13    1
    33    12    11    1
    34    12    13   am
    35    13    15    2
