@<TRIPOS>MOLECULE
81488_out_ligand_01.pdbqt
 33 35 0 0 0
SMALL
GASTEIGER

@<TRIPOS>ATOM
      1  S         22.9330  -22.6190   -9.2010 S.O2    1  UNL1        0.2610
      2  O         23.7790  -23.7700   -8.9660 O.2     1  UNL1       -0.2000
      3  O         23.3620  -21.2960   -8.8020 O.2     1  UNL1       -0.2000
      4  C         21.3700  -22.9650   -8.4350 C.2     1  UNL1        0.0790
      5  C         20.7310  -21.9890   -7.6660 C.2     1  UNL1        0.0260
      6  C         19.5020  -22.2810   -7.0720 C.2     1  UNL1        0.0180
      7  C         18.9210  -23.5480   -7.2330 C.2     1  UNL1        0.0320
      8  C         19.5660  -24.5200   -8.0130 C.2     1  UNL1        0.0180
      9  C         20.7960  -24.2310   -8.6110 C.2     1  UNL1        0.0260
     10  C         17.6070  -23.8100   -6.5840 C.2     1  UNL1        0.2510
     11  O         17.3660  -24.9060   -6.0940 O.2     1  UNL1       -0.2680
     12  N         16.6940  -22.7780   -6.6060 N.am    1  UNL1       -0.3480
     13  H         16.8370  -22.0260   -7.2700 H       1  UNL1        0.1630
     14  C         15.3290  -22.9970   -6.1200 C.3     1  UNL1        0.2400
     15  C         15.0770  -22.5130   -4.6940 C.3     1  UNL1        0.4030
     16  F         14.0330  -21.6590   -4.6420 F       1  UNL1       -0.1690
     17  F         16.1640  -21.8630   -4.2140 F       1  UNL1       -0.1690
     18  F         14.8170  -23.5420   -3.8590 F       1  UNL1       -0.1690
     19  N         22.5530  -22.5670  -10.8490 N.3     1  UNL1       -0.3020
     20  C         21.8670  -21.3690  -11.4100 C.3     1  UNL1        0.1400
     21  C         20.7320  -21.6850  -12.3870 C.3     1  UNL1        0.0590
     22  C         19.3930  -21.6650  -11.6900 C.2     1  UNL1       -0.0570
     23  C         18.8790  -22.8310  -11.1070 C.2     1  UNL1        0.0070
     24  C         17.6300  -22.8180  -10.4850 C.2     1  UNL1        0.0010
     25  C         16.8820  -21.6430  -10.4450 C.2     1  UNL1        0.0000
     26  C         17.3820  -20.4790  -11.0270 C.2     1  UNL1        0.0010
     27  C         18.6310  -20.4900  -11.6490 C.2     1  UNL1        0.0070
     28  C         23.6120  -23.1130  -11.7320 C.3     1  UNL1        0.1810
     29  C         24.5370  -21.9950  -12.1050 C.2     1  UNL1        0.0010
     30  C         25.4870  -21.3750  -11.3150 C.2     1  UNL1        0.0170
     31  C         26.1690  -20.3300  -12.0000 C.2     1  UNL1        0.0080
     32  C         25.7220  -20.1860  -13.2950 C.2     1  UNL1        0.0500
     33  S         24.4850  -21.3060  -13.6750 S.3     1  UNL1       -0.1050
@<TRIPOS>BOND
     1    33    32    1
     2    33    29    1
     3    32    31    2
     4    21    22    1
     5    21    20    1
     6    29    28    1
     7    29    30    2
     8    31    30    1
     9    28    19    1
    10    22    27    2
    11    22    23    1
    12    27    26    1
    13    20    19    1
    14    23    24    2
    15    26    25    2
    16    19     1    1
    17    24    25    1
    18     1     2    2
    19     1     3    2
    20     1     4    1
    21     9     4    2
    22     9     8    1
    23     4     5    1
    24     8     7    2
    25     5     6    2
    26    13    12    1
    27     7     6    1
    28     7    10    1
    29    12    10   am
    30    12    14    1
    31    10    11    2
    32    14    15    1
    33    15    16    1
    34    15    17    1
    35    15    18    1
