@<TRIPOS>MOLECULE
81492_out_ligand_01.pdbqt
 35 38 0 0 0
SMALL
GASTEIGER

@<TRIPOS>ATOM
      1  O         19.8150  -21.1930   -5.9390 O.2     1  UNL1       -0.2590
      2  C         19.8500  -22.0850   -6.7710 C.2     1  UNL1        0.2940
      3  O         18.8680  -22.9900   -7.0000 O.3     1  UNL1       -0.2990
      4  C         17.6080  -22.4100   -7.3700 C.3     1  UNL1        0.2400
      5  C         17.1930  -22.8670   -8.7820 C.2     1  UNL1        0.1930
      6  O         16.3790  -23.7800   -8.9530 O.2     1  UNL1       -0.2890
      7  C         17.7770  -22.1890   -9.9840 C.2     1  UNL1        0.0130
      8  C         17.0930  -21.2140  -10.7220 C.2     1  UNL1        0.0150
      9  C         17.6970  -20.6230  -11.8360 C.2     1  UNL1        0.0010
     10  C         18.9820  -20.9970  -12.2220 C.2     1  UNL1        0.0000
     11  C         19.6700  -21.9650  -11.4950 C.2     1  UNL1        0.0010
     12  C         19.0710  -22.5580  -10.3830 C.2     1  UNL1        0.0150
     13  C         16.6200  -22.8540   -6.3040 C.2     1  UNL1       -0.0210
     14  C         17.0170  -23.6890   -5.2460 C.2     1  UNL1        0.0100
     15  C         16.1010  -24.0810   -4.2680 C.2     1  UNL1        0.0010
     16  C         14.7840  -23.6320   -4.3250 C.2     1  UNL1        0.0000
     17  C         14.3810  -22.7860   -5.3570 C.2     1  UNL1        0.0010
     18  C         15.2950  -22.3930   -6.3370 C.2     1  UNL1        0.0100
     19  C         21.0160  -22.3450   -7.6590 C.2     1  UNL1        0.0390
     20  C         21.9700  -21.3280   -7.8110 C.2     1  UNL1        0.0190
     21  C         23.0850  -21.5230   -8.6300 C.2     1  UNL1        0.0260
     22  C         23.2500  -22.7440   -9.2900 C.2     1  UNL1        0.0790
     23  C         22.2960  -23.7570   -9.1650 C.2     1  UNL1        0.0260
     24  C         21.1800  -23.5580   -8.3460 C.2     1  UNL1        0.0190
     25  S         24.6650  -22.9980  -10.3430 S.O2    1  UNL1        0.2630
     26  O         25.4540  -24.0740   -9.7850 O.2     1  UNL1       -0.2000
     27  O         25.2480  -21.6980  -10.6030 O.2     1  UNL1       -0.2000
     28  N         23.9700  -23.4970  -11.7970 N.pl3   1  UNL1       -0.2810
     29  H         24.0610  -24.5020  -11.9410 H       1  UNL1        0.1790
     30  C         24.0370  -22.6500  -12.9360 C.2     1  UNL1        0.0420
     31  C         23.0830  -21.6560  -13.1500 C.2     1  UNL1        0.0300
     32  C         23.1880  -20.8150  -14.2590 C.2     1  UNL1        0.0020
     33  C         24.2470  -20.9670  -15.1530 C.2     1  UNL1        0.0000
     34  C         25.2000  -21.9640  -14.9420 C.2     1  UNL1        0.0020
     35  C         25.0940  -22.8080  -13.8340 C.2     1  UNL1        0.0300
@<TRIPOS>BOND
     1    33    34    2
     2    33    32    1
     3    34    35    1
     4    32    31    2
     5    35    30    2
     6    31    30    1
     7    30    28    1
     8    10     9    2
     9    10    11    1
    10    29    28    1
    11     9     8    1
    12    28    25    1
    13    11    12    2
    14     8     7    2
    15    27    25    2
    16    12     7    1
    17    25    26    2
    18    25    22    1
    19     7     5    1
    20    22    23    2
    21    22    21    1
    22    23    24    1
    23     6     5    2
    24     5     4    1
    25    21    20    2
    26    24    19    2
    27    20    19    1
    28    19     2    1
    29     4     3    1
    30     4    13    1
    31     3     2    1
    32     2     1    2
    33    18    13    2
    34    18    17    1
    35    13    14    1
    36    17    16    2
    37    14    15    2
    38    16    15    1
