@<TRIPOS>MOLECULE
81494_out_ligand_01.pdbqt
 33 36 0 0 0
SMALL
GASTEIGER

@<TRIPOS>ATOM
      1  C         21.2340  -22.6550  -10.5440 C.2     1  UNL1        0.0330
      2  C         20.5860  -22.0410  -11.6270 C.2     1  UNL1        0.0170
      3  C         21.3330  -21.4290  -12.6380 C.2     1  UNL1        0.0030
      4  C         22.7270  -21.4210  -12.5710 C.2     1  UNL1        0.0250
      5  C         23.3690  -22.0230  -11.4850 C.2     1  UNL1        0.0800
      6  C         22.6320  -22.6230  -10.4610 C.2     1  UNL1        0.0420
      7  C         20.4770  -23.3250   -9.4450 C.2     1  UNL1        0.2560
      8  O         20.8340  -24.4470   -9.1080 O.2     1  UNL1       -0.2670
      9  N         19.4070  -22.6070   -8.9430 N.am    1  UNL1       -0.3230
     10  H         19.1780  -21.7350   -9.4000 H       1  UNL1        0.1690
     11  C         18.5310  -22.9910   -7.9040 C.2     1  UNL1        0.0370
     12  C         17.3910  -23.7200   -8.2710 C.2     1  UNL1        0.0320
     13  C         16.4740  -24.1460   -7.3050 C.2     1  UNL1        0.0420
     14  C         16.6740  -23.8230   -5.9660 C.2     1  UNL1        0.1020
     15  C         17.8080  -23.1020   -5.5900 C.2     1  UNL1        0.1040
     16  O         15.7730  -24.3310   -5.0720 O.2     1  UNL1       -0.3480
     17  C         18.7370  -22.6970   -6.5540 C.2     1  UNL1        0.0690
     18  O         18.1290  -22.8480   -4.2850 O.2     1  UNL1       -0.3480
     19  C         17.1610  -22.0200   -3.6410 C.3     1  UNL1        0.1780
     20  C         15.9650  -22.8220   -3.1540 C.3     1  UNL1        0.0530
     21  C         15.1200  -23.3070   -4.3210 C.3     1  UNL1        0.1780
     22  S         25.1400  -21.9730  -11.3850 S.O2    1  UNL1        0.2590
     23  O         25.5120  -20.7750  -10.6680 O.2     1  UNL1       -0.2010
     24  O         25.6280  -23.2780  -11.0050 O.2     1  UNL1       -0.2010
     25  N         25.5650  -21.7040  -12.9860 N.3     1  UNL1       -0.3100
     26  H         25.6180  -20.7140  -13.2380 H       1  UNL1        0.1720
     27  C         26.2560  -22.7450  -13.7590 C.3     1  UNL1        0.1080
     28  C         27.1190  -22.1290  -14.8640 C.3     1  UNL1        0.0410
     29  C         26.1790  -21.6560  -15.9630 C.3     1  UNL1        0.1420
     30  S         24.8430  -22.8370  -15.9780 S.O2    1  UNL1        0.1460
     31  O         23.5990  -22.1190  -15.7920 O.2     1  UNL1       -0.2280
     32  O         25.0470  -23.7670  -17.0690 O.2     1  UNL1       -0.2280
     33  C         25.2480  -23.6560  -14.4500 C.3     1  UNL1        0.1660
@<TRIPOS>BOND
     1    32    30    2
     2    30    29    1
     3    30    31    2
     4    30    33    1
     5    29    28    1
     6    28    27    1
     7    33    27    1
     8    27    25    1
     9    26    25    1
    10    25    22    1
    11     3     4    2
    12     3     2    1
    13     4     5    1
    14     2     1    2
    15     5    22    1
    16     5     6    2
    17    22    24    2
    18    22    23    2
    19     1     6    1
    20     1     7    1
    21     7     8    2
    22     7     9   am
    23    10     9    1
    24     9    11    1
    25    12    11    2
    26    12    13    1
    27    11    17    1
    28    13    14    2
    29    17    15    2
    30    14    15    1
    31    14    16    1
    32    15    18    1
    33    16    21    1
    34    21    20    1
    35    18    19    1
    36    19    20    1
