@<TRIPOS>MOLECULE
81500_out_ligand_01.pdbqt
 33 36 0 0 0
SMALL
GASTEIGER

@<TRIPOS>ATOM
      1  C         20.4110  -22.5780   -7.6190 C.2     1  UNL1        0.0330
      2  C         20.6970  -21.4240   -6.8740 C.2     1  UNL1        0.0170
      3  C         19.8110  -20.9920   -5.8840 C.2     1  UNL1        0.0030
      4  C         18.6480  -21.7160   -5.6240 C.2     1  UNL1        0.0250
      5  C         18.3800  -22.8800   -6.3530 C.2     1  UNL1        0.0800
      6  C         19.2490  -23.3110   -7.3570 C.2     1  UNL1        0.0420
      7  C         21.3450  -23.0790   -8.6630 C.2     1  UNL1        0.2560
      8  O         21.4440  -24.2900   -8.8060 O.2     1  UNL1       -0.2670
      9  N         21.9890  -22.0900   -9.3820 N.am    1  UNL1       -0.3230
     10  H         21.6980  -21.1350   -9.2150 H       1  UNL1        0.1690
     11  C         22.9490  -22.2630  -10.4010 C.2     1  UNL1        0.0370
     12  C         24.2130  -22.8160  -10.1970 C.2     1  UNL1        0.0320
     13  C         25.1040  -22.9620  -11.2660 C.2     1  UNL1        0.0420
     14  C         24.7430  -22.5590  -12.5510 C.2     1  UNL1        0.1020
     15  C         23.5000  -21.9500  -12.7550 C.2     1  UNL1        0.1040
     16  O         25.6820  -22.8000  -13.5210 O.2     1  UNL1       -0.3480
     17  C         22.6020  -21.8320  -11.6880 C.2     1  UNL1        0.0690
     18  O         23.0450  -21.4440  -13.9480 O.2     1  UNL1       -0.3480
     19  C         24.0750  -20.8660  -14.7520 C.3     1  UNL1        0.1780
     20  C         24.7710  -21.9200  -15.5950 C.3     1  UNL1        0.0530
     21  C         25.1130  -23.1580  -14.7820 C.3     1  UNL1        0.1780
     22  S         16.8910  -23.7930   -6.0200 S.O2    1  UNL1        0.2580
     23  O         17.1590  -25.1810   -6.3230 O.2     1  UNL1       -0.2010
     24  O         16.3930  -23.3770   -4.7290 O.2     1  UNL1       -0.2010
     25  N         15.8450  -23.2300   -7.1990 N.3     1  UNL1       -0.3150
     26  H         14.9120  -22.9980   -6.8500 H       1  UNL1        0.1720
     27  C         15.9110  -23.7930   -8.5580 C.3     1  UNL1        0.1380
     28  C         15.6340  -22.6990   -9.5940 C.3     1  UNL1        0.0850
     29  C         16.8770  -22.2660  -10.2930 C.2     1  UNL1        0.0540
     30  C         18.0860  -22.8800  -10.5410 C.2     1  UNL1        0.0340
     31  C         18.8680  -21.9430  -11.2580 C.2     1  UNL1        0.0270
     32  C         18.0890  -20.8190  -11.4000 C.2     1  UNL1        0.1420
     33  O         16.8750  -21.0070  -10.8200 O.2     1  UNL1       -0.3270
@<TRIPOS>BOND
     1    20    21    1
     2    20    19    1
     3    21    16    1
     4    19    18    1
     5    18    15    1
     6    16    14    1
     7    15    14    2
     8    15    17    1
     9    14    13    1
    10    17    11    2
    11    32    31    2
    12    32    33    1
    13    13    12    2
    14    31    30    1
    15    33    29    1
    16    30    29    2
    17    11    12    1
    18    11     9    1
    19    29    28    1
    20    28    27    1
    21     9    10    1
    22     9     7   am
    23     8     7    2
    24     7     1    1
    25    27    25    1
    26     1     6    2
    27     1     2    1
    28     6     5    1
    29    25    26    1
    30    25    22    1
    31     2     3    2
    32     5    22    1
    33     5     4    2
    34    23    22    2
    35    22    24    2
    36     3     4    1
