@<TRIPOS>MOLECULE
81543_out_ligand_01.pdbqt
 31 33 0 0 0
SMALL
GASTEIGER

@<TRIPOS>ATOM
      1  C         18.1280  -22.7550   -9.4540 C.2     1  UNL1        0.0750
      2  C         17.7050  -22.2190  -10.6710 C.2     1  UNL1        0.0250
      3  C         18.6470  -21.6970  -11.5600 C.2     1  UNL1        0.0090
      4  C         20.0170  -21.7100  -11.2470 C.2     1  UNL1       -0.0460
      5  C         20.9870  -21.0950  -12.2170 C.3     1  UNL1        0.0490
      6  C         20.4260  -22.3030  -10.0350 C.2     1  UNL1        0.0390
      7  C         19.4830  -22.8110   -9.1310 C.2     1  UNL1        0.0420
      8  S         16.9220  -23.4140   -8.3260 S.O2    1  UNL1        0.2450
      9  O         15.7550  -23.7660   -9.1040 O.2     1  UNL1       -0.2060
     10  O         17.5910  -24.3710   -7.4710 O.2     1  UNL1       -0.2060
     11  N         16.6150  -22.0300   -7.3760 N.pl3   1  UNL1       -0.1810
     12  H         17.3750  -21.3720   -7.5620 H       1  UNL1        0.1460
     13  C         16.5370  -22.3010   -5.9660 C.2     1  UNL1        0.0280
     14  C         15.3350  -22.7730   -5.4290 C.2     1  UNL1        0.0250
     15  C         15.2230  -22.9980   -4.0570 C.2     1  UNL1        0.0020
     16  C         16.3060  -22.7410   -3.2210 C.2     1  UNL1        0.0010
     17  C         17.5020  -22.2560   -3.7540 C.2     1  UNL1        0.0080
     18  C         17.6350  -22.0360   -5.1340 C.2     1  UNL1       -0.0400
     19  C         18.9260  -21.4920   -5.6750 C.3     1  UNL1        0.0500
     20  C         21.8470  -22.4040   -9.6280 C.2     1  UNL1        0.2520
     21  O         22.2360  -21.8320   -8.6190 O.2     1  UNL1       -0.2680
     22  N         22.6320  -23.2010  -10.4250 N.am    1  UNL1       -0.3530
     23  H         22.2380  -23.6390  -11.2460 H       1  UNL1        0.1630
     24  C         24.0530  -23.3110  -10.1940 C.3     1  UNL1        0.1640
     25  C         24.8220  -22.4450  -11.1490 C.2     1  UNL1       -0.0020
     26  C         25.3690  -21.2250  -10.7260 C.2     1  UNL1        0.0120
     27  C         26.1020  -20.4330  -11.6130 C.2     1  UNL1        0.0010
     28  C         26.3010  -20.8530  -12.9290 C.2     1  UNL1        0.0030
     29  C         25.7670  -22.0680  -13.3560 C.2     1  UNL1        0.0430
     30  C         25.0370  -22.8530  -12.4680 C.2     1  UNL1        0.1240
     31  F         24.5470  -24.0240  -12.8960 F       1  UNL1       -0.2050
@<TRIPOS>BOND
     1    29    28    2
     2    29    30    1
     3    28    27    1
     4    31    30    1
     5    30    25    2
     6     5     4    1
     7    27    26    2
     8     3     4    2
     9     3     2    1
    10     4     6    1
    11    23    22    1
    12    25    26    1
    13    25    24    1
    14     2     1    2
    15    22    24    1
    16    22    20   am
    17     6    20    1
    18     6     7    2
    19    20    21    2
    20     1     7    1
    21     1     8    1
    22     9     8    2
    23     8    10    2
    24     8    11    1
    25    12    11    1
    26    11    13    1
    27    13    14    2
    28    13    18    1
    29    19    18    1
    30    14    15    1
    31    18    17    2
    32    15    16    2
    33    17    16    1
