@<TRIPOS>MOLECULE
81548_out_ligand_01.pdbqt
 34 38 0 0 0
SMALL
GASTEIGER

@<TRIPOS>ATOM
      1  C         18.2700  -21.8410  -10.3350 C.2     1  UNL1        0.0330
      2  C         17.0970  -21.3370  -10.9180 C.2     1  UNL1        0.0170
      3  C         15.8410  -21.7490  -10.4680 C.2     1  UNL1        0.0030
      4  C         15.7430  -22.6630   -9.4220 C.2     1  UNL1        0.0250
      5  C         16.9080  -23.1500   -8.8200 C.2     1  UNL1        0.0800
      6  C         18.1720  -22.7710   -9.2920 C.2     1  UNL1        0.0420
      7  C         19.5830  -21.3880  -10.8900 C.2     1  UNL1        0.2560
      8  O         19.5960  -20.3760  -11.5800 O.2     1  UNL1       -0.2670
      9  N         20.6820  -22.1450  -10.5220 N.am    1  UNL1       -0.3230
     10  H         20.5450  -22.8680   -9.8310 H       1  UNL1        0.1690
     11  C         22.0180  -21.9690  -10.9460 C.2     1  UNL1        0.0370
     12  C         22.9810  -21.7600   -9.9470 C.2     1  UNL1        0.0320
     13  C         24.3280  -21.5880  -10.2800 C.2     1  UNL1        0.0420
     14  C         24.7230  -21.6010  -11.6150 C.2     1  UNL1        0.1020
     15  C         23.7740  -21.8220  -12.6140 C.2     1  UNL1        0.1040
     16  O         26.0640  -21.4920  -11.8580 O.2     1  UNL1       -0.3480
     17  C         22.4300  -22.0170  -12.2790 C.2     1  UNL1        0.0690
     18  O         24.1060  -21.9690  -13.9340 O.2     1  UNL1       -0.3480
     19  C         24.6770  -20.7820  -14.4830 C.3     1  UNL1        0.1780
     20  C         26.1580  -20.6640  -14.1610 C.3     1  UNL1        0.0530
     21  C         26.3750  -20.3700  -12.6850 C.3     1  UNL1        0.1780
     22  S         16.7830  -24.3560   -7.5070 S.O2    1  UNL1        0.2610
     23  O         18.1250  -24.8440   -7.2650 O.2     1  UNL1       -0.2000
     24  O         15.7070  -25.2540   -7.8630 O.2     1  UNL1       -0.2000
     25  N         16.3230  -23.4390   -6.1740 N.3     1  UNL1       -0.2970
     26  C         14.9230  -23.4860   -5.7090 C.3     1  UNL1        0.1360
     27  C         15.0260  -23.8610   -4.2390 C.3     1  UNL1        0.0230
     28  C         16.2920  -23.1470   -3.8040 C.3     1  UNL1        0.0330
     29  C         17.2280  -23.3440   -5.0040 C.3     1  UNL1        0.1360
     30  C         18.2190  -22.2260   -5.1640 C.2     1  UNL1        0.0060
     31  C         19.1350  -22.0580   -6.1880 C.2     1  UNL1        0.0170
     32  C         19.9250  -20.8830   -6.0340 C.2     1  UNL1        0.0080
     33  C         19.5900  -20.1830   -4.8990 C.2     1  UNL1        0.0500
     34  S         18.3300  -20.9390   -4.0270 S.3     1  UNL1       -0.1040
@<TRIPOS>BOND
     1    19    20    1
     2    19    18    1
     3    20    21    1
     4    18    15    1
     5    21    16    1
     6    15    17    1
     7    15    14    2
     8    17    11    2
     9    16    14    1
    10    14    13    1
    11     8     7    2
    12    11     9    1
    13    11    12    1
    14     2     3    1
    15     2     1    2
    16     7     9   am
    17     7     1    1
    18     9    10    1
    19     3     4    2
    20     1     6    1
    21    13    12    2
    22     4     5    1
    23     6     5    2
    24     5    22    1
    25    24    22    2
    26    22    23    2
    27    22    25    1
    28    31    32    1
    29    31    30    2
    30    25    26    1
    31    25    29    1
    32    32    33    2
    33    26    27    1
    34    30    29    1
    35    30    34    1
    36    29    28    1
    37    33    34    1
    38    27    28    1
