@<TRIPOS>MOLECULE
81544_out_ligand_01.pdbqt
 30 33 0 0 0
SMALL
GASTEIGER

@<TRIPOS>ATOM
      1  C         15.8330  -22.5800   -9.4730 C.3     1  UNL1        0.0500
      2  C         17.1740  -22.2080  -10.0410 C.2     1  UNL1       -0.0390
      3  C         17.2140  -21.3630  -11.1630 C.2     1  UNL1        0.0110
      4  C         18.4310  -20.9690  -11.7240 C.2     1  UNL1        0.0320
      5  C         19.6360  -21.3920  -11.1660 C.2     1  UNL1        0.0580
      6  C         19.6180  -22.2340  -10.0560 C.2     1  UNL1        0.0570
      7  C         18.3980  -22.6400   -9.4930 C.2     1  UNL1        0.0830
      8  S         18.4690  -23.7070   -8.0640 S.O2    1  UNL1        0.2460
      9  O         17.2170  -24.4310   -7.9810 O.2     1  UNL1       -0.2060
     10  O         19.7400  -24.3960   -8.0780 O.2     1  UNL1       -0.2060
     11  N         18.4340  -22.5550   -6.8030 N.pl3   1  UNL1       -0.1810
     12  H         18.4060  -21.6320   -7.2400 H       1  UNL1        0.1460
     13  C         17.3380  -22.7300   -5.8930 C.2     1  UNL1        0.0240
     14  C         17.5150  -23.4630   -4.7170 C.2     1  UNL1        0.0240
     15  C         16.4590  -23.5940   -3.8140 C.2     1  UNL1        0.0030
     16  C         15.2340  -22.9820   -4.0820 C.2     1  UNL1        0.0240
     17  C         15.0730  -22.2340   -5.2490 C.2     1  UNL1        0.0350
     18 CL         13.5640  -21.4740   -5.5710 Cl      1  UNL1       -0.0840
     19  C         16.1240  -22.0980   -6.1530 C.2     1  UNL1        0.0480
     20  N         20.8530  -21.0090  -11.7430 N.2     1  UNL1       -0.2600
     21  C         21.6380  -21.9760  -12.1030 C.2     1  UNL1        0.1280
     22  C         22.9520  -21.7220  -12.7270 C.2     1  UNL1       -0.0160
     23  C         24.1420  -21.8960  -11.9900 C.2     1  UNL1        0.0160
     24  C         25.3830  -21.6530  -12.5850 C.2     1  UNL1        0.0400
     25  C         25.3920  -21.2430  -13.9000 C.2     1  UNL1        0.1050
     26  C         24.2290  -21.0740  -14.6170 C.2     1  UNL1        0.1050
     27  O         26.5000  -20.9610  -14.6360 O.2     1  UNL1       -0.3230
     28  C         22.9890  -21.3050  -14.0610 C.2     1  UNL1        0.0520
     29  O         24.4620  -20.6650  -15.8930 O.2     1  UNL1       -0.3230
     30  C         25.9030  -20.5910  -15.8970 C.3     1  UNL1        0.3520
@<TRIPOS>BOND
     1    30    29    1
     2    30    27    1
     3    29    26    1
     4    27    25    1
     5    26    28    1
     6    26    25    2
     7    28    22    2
     8    25    24    1
     9    22    21    1
    10    22    23    1
    11    24    23    2
    12    21    20    2
    13    20     5    1
    14     4     5    2
    15     4     3    1
    16     5     6    1
    17     3     2    2
    18     6     7    2
    19     2     7    1
    20     2     1    1
    21     7     8    1
    22    10     8    2
    23     8     9    2
    24     8    11    1
    25    12    11    1
    26    11    13    1
    27    19    13    2
    28    19    17    1
    29    13    14    1
    30    18    17    1
    31    17    16    2
    32    14    15    2
    33    16    15    1
