@<TRIPOS>MOLECULE
81558_out_ligand_01.pdbqt
 35 38 0 0 0
SMALL
GASTEIGER

@<TRIPOS>ATOM
      1  C         17.6350  -22.5220   -9.6370 C.2     1  UNL1        0.0750
      2  C         16.8830  -21.6360  -10.4150 C.2     1  UNL1        0.0250
      3  C         17.4950  -20.9510  -11.4640 C.2     1  UNL1        0.0030
      4  C         18.8500  -21.1580  -11.7390 C.2     1  UNL1        0.0170
      5  C         19.5940  -22.0620  -10.9660 C.2     1  UNL1        0.0330
      6  C         18.9890  -22.7410   -9.9050 C.2     1  UNL1        0.0410
      7  C         21.0420  -22.2870  -11.2220 C.2     1  UNL1        0.2560
      8  O         21.6540  -23.0130  -10.4490 O.2     1  UNL1       -0.2670
      9  N         21.5340  -21.6540  -12.3480 N.am    1  UNL1       -0.3230
     10  H         20.8610  -21.1940  -12.9470 H       1  UNL1        0.1690
     11  C         22.8660  -21.6550  -12.8160 C.2     1  UNL1        0.0370
     12  C         23.9730  -21.9290  -12.0140 C.2     1  UNL1        0.0320
     13  C         25.2620  -21.9180  -12.5600 C.2     1  UNL1        0.0420
     14  C         25.4580  -21.6370  -13.9110 C.2     1  UNL1        0.1020
     15  C         24.3580  -21.3030  -14.7100 C.2     1  UNL1        0.1040
     16  O         26.7600  -21.7060  -14.3370 O.2     1  UNL1       -0.3480
     17  C         23.0690  -21.3420  -14.1660 C.2     1  UNL1        0.0690
     18  O         24.4140  -20.9380  -16.0330 O.2     1  UNL1       -0.3480
     19  C         25.5790  -20.1830  -16.3680 C.3     1  UNL1        0.1780
     20  C         26.7510  -21.0950  -16.6880 C.3     1  UNL1        0.0530
     21  C         26.8950  -22.2100  -15.6670 C.3     1  UNL1        0.1780
     22  S         16.8700  -23.3970   -8.2940 S.O2    1  UNL1        0.2450
     23  O         17.8980  -24.2370   -7.7170 O.2     1  UNL1       -0.2060
     24  O         15.6170  -23.9520   -8.7630 O.2     1  UNL1       -0.2060
     25  N         16.5450  -22.1540   -7.1830 N.pl3   1  UNL1       -0.1800
     26  H         17.1680  -21.3630   -7.4140 H       1  UNL1        0.1460
     27  C         16.5920  -22.5220   -5.7960 C.2     1  UNL1        0.0360
     28  C         15.5430  -23.2850   -5.2760 C.2     1  UNL1        0.0250
     29  C         15.5910  -23.7370   -3.9570 C.2     1  UNL1        0.0020
     30  C         16.6910  -23.4380   -3.1550 C.2     1  UNL1        0.0010
     31  C         17.7470  -22.6800   -3.6660 C.2     1  UNL1        0.0170
     32  C         17.7080  -22.2250   -4.9910 C.2     1  UNL1        0.0310
     33  C         18.8180  -21.3980   -5.5400 C.2     1  UNL1        0.1570
     34  C         19.0810  -20.0420   -4.9410 C.3     1  UNL1        0.0970
     35  O         19.4860  -21.8300   -6.4790 O.2     1  UNL1       -0.2930
@<TRIPOS>BOND
     1    20    19    1
     2    20    21    1
     3    19    18    1
     4    18    15    1
     5    21    16    1
     6    15    17    1
     7    15    14    2
     8    16    14    1
     9    17    11    2
    10    14    13    1
    11    10     9    1
    12    11     9    1
    13    11    12    1
    14    13    12    2
    15     9     7   am
    16     4     3    2
    17     4     5    1
    18     3     2    1
    19     7     5    1
    20     7     8    2
    21     5     6    2
    22     2     1    2
    23     6     1    1
    24     1    22    1
    25    24    22    2
    26    22    23    2
    27    22    25    1
    28    26    25    1
    29    25    27    1
    30    35    33    2
    31    27    28    2
    32    27    32    1
    33    33    32    1
    34    33    34    1
    35    28    29    1
    36    32    31    2
    37    29    30    2
    38    31    30    1
