@<TRIPOS>MOLECULE
81561_out_ligand_01.pdbqt
 31 34 0 0 0
SMALL
GASTEIGER

@<TRIPOS>ATOM
      1  C         21.9870  -22.3690  -10.9890 C.2     1  UNL1       -0.0190
      2  C         21.6580  -21.6130  -12.1240 C.2     1  UNL1        0.0100
      3  C         20.3560  -21.1550  -12.3280 C.2     1  UNL1        0.0030
      4  C         19.3510  -21.4400  -11.4040 C.2     1  UNL1        0.0290
      5  C         19.6440  -22.1740  -10.2590 C.2     1  UNL1        0.0350
      6  C         20.9580  -22.6260  -10.0610 C.2     1  UNL1        0.0390
      7  N         18.6960  -22.5120   -9.2730 N.am    1  UNL1       -0.3260
      8  C         18.7650  -23.5230   -8.3250 C.2     1  UNL1        0.2350
      9  O         19.6850  -24.3320   -8.2310 O.2     1  UNL1       -0.2720
     10  H         17.8420  -21.9720   -9.2800 H       1  UNL1        0.1690
     11  C         17.5010  -23.5250   -7.3490 C.3     1  UNL1        0.0680
     12  C         16.8060  -24.9330   -7.1810 C.3     1  UNL1        0.0240
     13  C         15.4460  -24.2230   -7.2320 C.3     1  UNL1        0.0030
     14  C         16.1380  -23.0980   -8.0260 C.3     1  UNL1        0.0240
     15  C         17.9100  -22.6840   -6.0240 C.2     1  UNL1       -0.0390
     16  C         17.5550  -23.0770   -4.7160 C.2     1  UNL1        0.0080
     17  C         17.9300  -22.3380   -3.5860 C.2     1  UNL1        0.0020
     18  C         18.6810  -21.1760   -3.7310 C.2     1  UNL1        0.0240
     19  C         19.0520  -20.7580   -5.0030 C.2     1  UNL1        0.0340
     20 CL         19.9940  -19.3260   -5.1890 Cl      1  UNL1       -0.0840
     21  C         18.6770  -21.4990   -6.1290 C.2     1  UNL1        0.0320
     22  C         23.3970  -22.8950  -10.7370 C.3     1  UNL1        0.1390
     23  C         23.5410  -23.6210   -9.3940 C.3     1  UNL1        0.0540
     24  N         23.8880  -23.7520  -11.8020 N.am    1  UNL1       -0.3210
     25  C         24.9800  -23.2260  -12.4450 C.2     1  UNL1        0.3240
     26  H         23.5010  -24.6540  -12.0510 H       1  UNL1        0.1650
     27  O         25.5810  -23.7660  -13.3540 O.2     1  UNL1       -0.2470
     28  N         25.2810  -22.0300  -11.8860 N.am    1  UNL1       -0.2770
     29  C         24.4520  -21.7650  -10.8360 C.2     1  UNL1        0.2580
     30  H         26.0700  -21.4610  -12.1490 H       1  UNL1        0.1730
     31  O         24.5560  -20.7960  -10.0880 O.2     1  UNL1       -0.2700
@<TRIPOS>BOND
     1    27    25    2
     2    25    28   am
     3    25    24   am
     4     3     2    1
     5     3     4    2
     6    30    28    1
     7     2     1    2
     8    26    24    1
     9    28    29   am
    10    24    22    1
    11     4     5    1
    12     1    22    1
    13     1     6    1
    14    29    22    1
    15    29    31    2
    16    22    23    1
    17     5     6    2
    18     5     7    1
    19    10     7    1
    20     7     8   am
    21     8     9    2
    22     8    11    1
    23    14    11    1
    24    14    13    1
    25    11    12    1
    26    11    15    1
    27    13    12    1
    28    21    15    2
    29    21    19    1
    30    15    16    1
    31    20    19    1
    32    19    18    2
    33    16    17    2
    34    18    17    1
