@<TRIPOS>MOLECULE
81569_out_ligand_01.pdbqt
 33 35 0 0 0
SMALL
GASTEIGER

@<TRIPOS>ATOM
      1  C         19.6730  -22.1340   -6.9110 C.2     1  UNL1        0.2560
      2  O         19.7090  -21.1080   -6.2460 O.2     1  UNL1       -0.2670
      3  N         18.6060  -23.0050   -7.0550 N.am    1  UNL1       -0.3220
      4  H         18.7170  -23.7110   -7.7670 H       1  UNL1        0.1690
      5  C         20.8700  -22.4870   -7.7280 C.2     1  UNL1        0.0320
      6  C         21.9300  -21.5740   -7.7860 C.2     1  UNL1        0.0170
      7  C         23.0540  -21.8530   -8.5660 C.2     1  UNL1        0.0100
      8  C         23.1400  -23.0570   -9.2840 C.2     1  UNL1       -0.0400
      9  C         22.0860  -23.9830   -9.1970 C.2     1  UNL1        0.0100
     10  C         20.9560  -23.7020   -8.4220 C.2     1  UNL1        0.0170
     11  C         24.3420  -23.3530  -10.1480 C.3     1  UNL1        0.1620
     12  N         24.0070  -23.2690  -11.5540 N.am    1  UNL1       -0.3390
     13  C         24.8780  -22.7030  -12.4490 C.2     1  UNL1        0.3160
     14  N         24.4270  -22.8470  -13.7370 N.am    1  UNL1       -0.3390
     15  O         25.9260  -22.1510  -12.1430 O.2     1  UNL1       -0.2470
     16  H         23.4230  -22.9240  -13.8330 H       1  UNL1        0.1640
     17  H         23.4220  -24.0020  -11.9200 H       1  UNL1        0.1640
     18  C         25.1430  -22.2280  -14.8480 C.3     1  UNL1        0.0780
     19  C         25.1090  -23.1480  -16.0670 C.3     1  UNL1        0.0320
     20  C         24.5510  -20.8560  -15.1780 C.3     1  UNL1        0.0320
     21  C         17.3510  -22.9580   -6.3980 C.2     1  UNL1        0.0410
     22  C         17.2460  -22.5410   -5.0630 C.2     1  UNL1        0.0300
     23  C         16.0200  -22.5410   -4.3970 C.2     1  UNL1        0.0020
     24  C         14.8760  -22.9720   -5.0510 C.2     1  UNL1        0.0010
     25  C         14.9580  -23.3940   -6.3770 C.2     1  UNL1        0.0100
     26  C         16.1810  -23.3720   -7.0850 C.2     1  UNL1       -0.0270
     27  C         16.2030  -23.8470   -8.5330 C.3     1  UNL1        0.0790
     28  C         16.8320  -22.9060   -9.5420 C.2     1  UNL1       -0.0540
     29  C         18.0490  -23.2370  -10.1600 C.2     1  UNL1        0.0070
     30  C         18.6230  -22.3800  -11.1010 C.2     1  UNL1        0.0010
     31  C         17.9860  -21.1860  -11.4360 C.2     1  UNL1        0.0000
     32  C         16.7760  -20.8460  -10.8290 C.2     1  UNL1        0.0010
     33  C         16.2010  -21.7010   -9.8880 C.2     1  UNL1        0.0070
@<TRIPOS>BOND
     1    19    18    1
     2    20    18    1
     3    18    14    1
     4    16    14    1
     5    14    13   am
     6    13    15    2
     7    13    12   am
     8    17    12    1
     9    12    11    1
    10    31    30    2
    11    31    32    1
    12    30    29    1
    13    32    33    2
    14    29    28    2
    15    11     8    1
    16    33    28    1
    17    28    27    1
    18     8     9    2
    19     8     7    1
    20     9    10    1
    21     7     6    2
    22    27    26    1
    23    10     5    2
    24     6     5    1
    25     4     3    1
    26     5     1    1
    27    26    21    2
    28    26    25    1
    29     3     1   am
    30     3    21    1
    31     1     2    2
    32    21    22    1
    33    25    24    2
    34    22    23    2
    35    24    23    1
