@<TRIPOS>MOLECULE
81575_out_ligand_01.pdbqt
 35 38 0 0 0
SMALL
GASTEIGER

@<TRIPOS>ATOM
      1  C         23.1680  -23.1100   -9.2850 C.2     1  UNL1        0.0340
      2  C         23.1080  -21.9060   -8.5720 C.2     1  UNL1        0.0300
      3  C         21.9910  -21.5940   -7.7890 C.2     1  UNL1        0.0190
      4  C         20.9160  -22.4840   -7.7110 C.2     1  UNL1        0.0320
      5  C         20.9840  -23.7010   -8.3980 C.2     1  UNL1        0.0190
      6  C         22.1020  -24.0060   -9.1860 C.2     1  UNL1        0.0300
      7  C         19.7360  -22.1050   -6.8760 C.2     1  UNL1        0.2560
      8  O         19.8120  -21.0820   -6.2050 O.2     1  UNL1       -0.2670
      9  N         18.6520  -22.9550   -6.9860 N.am    1  UNL1       -0.3220
     10  H         18.7320  -23.6770   -7.6860 H       1  UNL1        0.1690
     11  C         17.3840  -22.8500   -6.3660 C.2     1  UNL1        0.0410
     12  C         17.2410  -22.4310   -5.0370 C.2     1  UNL1        0.0300
     13  C         15.9790  -22.3110   -4.4490 C.2     1  UNL1        0.0020
     14  C         14.8380  -22.6140   -5.1790 C.2     1  UNL1        0.0010
     15  C         14.9580  -23.0430   -6.4970 C.2     1  UNL1        0.0100
     16  C         16.2220  -23.1710   -7.1100 C.2     1  UNL1       -0.0270
     17  C         16.2570  -23.6970   -8.5360 C.3     1  UNL1        0.0790
     18  C         16.8870  -22.7880   -9.5700 C.2     1  UNL1       -0.0540
     19  C         18.1150  -23.1420  -10.1500 C.2     1  UNL1        0.0070
     20  C         18.7180  -22.3150  -11.0990 C.2     1  UNL1        0.0010
     21  C         18.0920  -21.1350  -11.4940 C.2     1  UNL1        0.0000
     22  C         16.8600  -20.7840  -10.9450 C.2     1  UNL1        0.0010
     23  C         16.2570  -21.6080   -9.9920 C.2     1  UNL1        0.0070
     24  N         24.3220  -23.3430  -10.0550 N.am    1  UNL1       -0.3270
     25  C         24.6370  -22.8340  -11.3010 C.2     1  UNL1        0.2310
     26  O         23.9700  -22.0040  -11.9190 O.2     1  UNL1       -0.2720
     27  H         24.9980  -23.9910   -9.6670 H       1  UNL1        0.1690
     28  C         25.9840  -23.2800  -11.8650 C.3     1  UNL1        0.1850
     29  S         26.6470  -22.2380  -13.2030 S.3     1  UNL1       -0.0810
     30  C         25.8810  -22.9500  -14.5770 C.2     1  UNL1        0.1910
     31  N         26.0560  -24.1710  -15.0220 N.2     1  UNL1       -0.1230
     32  N         25.2660  -24.3250  -16.1390 N.2     1  UNL1       -0.1430
     33  C         24.6350  -23.1900  -16.3410 C.2     1  UNL1        0.2350
     34  N         24.9940  -22.2930  -15.3780 N.pl3   1  UNL1       -0.3220
     35  C         24.5090  -20.9450  -15.2610 C.3     1  UNL1        0.1590
@<TRIPOS>BOND
     1    33    32    2
     2    33    34    1
     3    32    31    1
     4    34    35    1
     5    34    30    1
     6    31    30    2
     7    30    29    1
     8    29    28    1
     9    26    25    2
    10    28    25    1
    11    21    20    2
    12    21    22    1
    13    25    24   am
    14    20    19    1
    15    22    23    2
    16    19    18    2
    17    24    27    1
    18    24     1    1
    19    23    18    1
    20    18    17    1
    21     1     6    2
    22     1     2    1
    23     6     5    1
    24     2     3    2
    25    17    16    1
    26     5     4    2
    27     3     4    1
    28     4     7    1
    29    10     9    1
    30    16    15    1
    31    16    11    2
    32     9     7   am
    33     9    11    1
    34     7     8    2
    35    15    14    2
    36    11    12    1
    37    14    13    1
    38    12    13    2
