@<TRIPOS>MOLECULE
81574_out_ligand_01.pdbqt
 32 35 0 0 0
SMALL
GASTEIGER

@<TRIPOS>ATOM
      1  C         20.6310  -23.0040  -10.1510 C.2     1  UNL1        0.0350
      2  C         21.0970  -23.5620   -8.9570 C.2     1  UNL1        0.0290
      3  C         22.4590  -23.7850   -8.7660 C.2     1  UNL1        0.0030
      4  C         23.3700  -23.4410   -9.7630 C.2     1  UNL1        0.0100
      5  C         22.9400  -22.8560  -10.9680 C.2     1  UNL1       -0.0190
      6  C         21.5560  -22.6560  -11.1430 C.2     1  UNL1        0.0390
      7  N         19.2380  -22.8120  -10.2700 N.am    1  UNL1       -0.3270
      8  C         18.5740  -21.6600  -10.6700 C.2     1  UNL1        0.2260
      9  O         19.0990  -20.6230  -11.0670 O.2     1  UNL1       -0.2730
     10  H         18.6690  -23.6210  -10.0570 H       1  UNL1        0.1690
     11  C         17.0580  -21.7910  -10.5910 C.3     1  UNL1        0.1440
     12  C         16.6420  -22.7030   -9.4890 C.2     1  UNL1       -0.0140
     13  C         15.7800  -23.7780   -9.5900 C.2     1  UNL1        0.1510
     14  O         15.6340  -24.4010   -8.3950 O.2     1  UNL1       -0.3210
     15  C         16.3940  -23.7210   -7.4970 C.2     1  UNL1        0.0860
     16  C         16.5170  -24.0330   -6.1460 C.2     1  UNL1        0.0450
     17  C         17.0400  -22.6600   -8.1160 C.2     1  UNL1        0.0070
     18  C         17.3510  -23.2110   -5.3650 C.2     1  UNL1       -0.0530
     19  C         17.4910  -23.5170   -3.8960 C.3     1  UNL1        0.0490
     20  C         18.0210  -22.1140   -5.9500 C.2     1  UNL1       -0.0550
     21  C         17.8690  -21.8400   -7.3280 C.2     1  UNL1        0.0220
     22  C         18.9040  -21.2120   -5.1270 C.3     1  UNL1        0.0490
     23  C         23.9520  -22.4930  -12.0510 C.3     1  UNL1        0.1390
     24  C         23.4460  -21.6110  -13.2000 C.3     1  UNL1        0.0540
     25  N         24.5540  -23.6970  -12.5970 N.am    1  UNL1       -0.3210
     26  C         25.9150  -23.7310  -12.4320 C.2     1  UNL1        0.3240
     27  H         24.0420  -24.4800  -12.9800 H       1  UNL1        0.1650
     28  O         26.6390  -24.6530  -12.7600 O.2     1  UNL1       -0.2470
     29  N         26.3070  -22.5910  -11.8180 N.am    1  UNL1       -0.2770
     30  C         25.2290  -21.8230  -11.4860 C.2     1  UNL1        0.2580
     31  H         27.2540  -22.3980  -11.5440 H       1  UNL1        0.1730
     32  O         25.2960  -20.7780  -10.8540 O.2     1  UNL1       -0.2700
@<TRIPOS>BOND
     1    24    23    1
     2    27    25    1
     3    28    26    2
     4    25    26   am
     5    25    23    1
     6    26    29   am
     7    23    30    1
     8    23     5    1
     9    29    31    1
    10    29    30   am
    11    30    32    2
    12     6     5    1
    13     6     1    2
    14     9     8    2
    15     5     4    2
    16     8    11    1
    17     8     7   am
    18    11    12    1
    19     7     1    1
    20     7    10    1
    21     1     2    1
    22     4     3    1
    23    13    12    2
    24    13    14    1
    25    12    17    1
    26     2     3    2
    27    14    15    1
    28    17    15    2
    29    17    21    1
    30    15    16    1
    31    21    20    2
    32    16    18    2
    33    20    18    1
    34    20    22    1
    35    18    19    1
