@<TRIPOS>MOLECULE
81576_out_ligand_01.pdbqt
 33 36 0 0 0
SMALL
GASTEIGER

@<TRIPOS>ATOM
      1  C         18.6630  -21.8910  -10.5100 C.2     1  UNL1        0.0330
      2  C         18.7830  -21.2120  -11.7310 C.2     1  UNL1        0.0170
      3  C         20.0470  -20.9040  -12.2430 C.2     1  UNL1        0.0030
      4  C         21.1930  -21.2770  -11.5420 C.2     1  UNL1        0.0250
      5  C         21.0680  -21.9710  -10.3350 C.2     1  UNL1        0.0800
      6  C         19.8100  -22.2780   -9.8110 C.2     1  UNL1        0.0420
      7  S         22.5180  -22.4550   -9.4360 S.O2    1  UNL1        0.2630
      8  O         22.4650  -21.8700   -8.1140 O.2     1  UNL1       -0.2000
      9  O         22.6740  -23.8830   -9.6110 O.2     1  UNL1       -0.2000
     10  N         23.7610  -21.7290  -10.3200 N.pl3   1  UNL1       -0.2810
     11  H         23.4430  -20.8630  -10.7540 H       1  UNL1        0.1790
     12  C         24.6270  -22.5690  -11.0700 C.2     1  UNL1        0.0450
     13  C         25.8170  -23.0380  -10.4850 C.2     1  UNL1        0.0330
     14  C         26.7010  -23.8350  -11.2210 C.2     1  UNL1        0.0420
     15  C         26.3630  -24.1290  -12.5250 C.2     1  UNL1        0.1050
     16  C         25.2020  -23.6610  -13.0960 C.2     1  UNL1        0.1070
     17  O         27.0970  -24.8840  -13.3850 O.2     1  UNL1       -0.3230
     18  C         24.3120  -22.8740  -12.3970 C.2     1  UNL1        0.0690
     19  O         25.0610  -24.0650  -14.3870 O.2     1  UNL1       -0.3230
     20  C         26.2660  -24.8390  -14.5640 C.3     1  UNL1        0.3520
     21  C         17.3360  -22.2440   -9.9410 C.2     1  UNL1        0.2510
     22  O         16.3240  -21.6880  -10.3520 O.2     1  UNL1       -0.2680
     23  N         17.3310  -23.2330   -8.9780 N.am    1  UNL1       -0.3570
     24  H         18.1540  -23.8170   -8.9000 H       1  UNL1        0.1620
     25  C         16.0790  -23.8030   -8.5120 C.3     1  UNL1        0.1270
     26  C         16.2480  -24.6750   -7.2630 C.3     1  UNL1        0.0610
     27  C         16.2350  -23.8690   -5.9850 C.2     1  UNL1       -0.0180
     28  C         15.0250  -23.5640   -5.3460 C.2     1  UNL1        0.0100
     29  C         15.0180  -22.8050   -4.1720 C.2     1  UNL1        0.0010
     30  C         16.2160  -22.3390   -3.6290 C.2     1  UNL1        0.0030
     31  C         17.4230  -22.6330   -4.2610 C.2     1  UNL1        0.0430
     32  C         17.4240  -23.3880   -5.4290 C.2     1  UNL1        0.1220
     33  F         18.5960  -23.6410   -6.0300 F       1  UNL1       -0.2060
@<TRIPOS>BOND
     1    20    19    1
     2    20    17    1
     3    19    16    1
     4    17    15    1
     5    16    15    2
     6    16    18    1
     7    15    14    1
     8    18    12    2
     9     3     2    1
    10     3     4    2
    11     2     1    2
    12     4     5    1
    13    14    13    2
    14    12    13    1
    15    12    10    1
    16    11    10    1
    17     1    21    1
    18     1     6    1
    19    22    21    2
    20     5     6    2
    21     5     7    1
    22    10     7    1
    23    21    23   am
    24     9     7    2
    25     7     8    2
    26    23    24    1
    27    23    25    1
    28    25    26    1
    29    26    27    1
    30    33    32    1
    31    27    32    2
    32    27    28    1
    33    32    31    1
    34    28    29    2
    35    31    30    2
    36    29    30    1
