@<TRIPOS>MOLECULE
81570_out_ligand_01.pdbqt
 28 30 0 0 0
SMALL
GASTEIGER

@<TRIPOS>ATOM
      1  C         17.5650  -23.2240   -8.7890 C.2     1  UNL1        0.0750
      2  C         16.8380  -22.4380   -9.6850 C.2     1  UNL1        0.0250
      3  C         17.4990  -21.7690  -10.7180 C.2     1  UNL1        0.0090
      4  C         18.8910  -21.8760  -10.8640 C.2     1  UNL1       -0.0460
      5  C         19.5780  -21.0990  -11.9530 C.3     1  UNL1        0.0490
      6  C         19.6020  -22.6930   -9.9630 C.2     1  UNL1        0.0390
      7  C         18.9490  -23.3510   -8.9140 C.2     1  UNL1        0.0420
      8  S         16.7080  -24.0480   -7.4680 S.O2    1  UNL1        0.2450
      9  O         17.7030  -24.7460   -6.6890 O.2     1  UNL1       -0.2060
     10  O         15.5500  -24.7100   -8.0330 O.2     1  UNL1       -0.2060
     11  N         16.1020  -22.6990   -6.6020 N.pl3   1  UNL1       -0.1810
     12  H         15.1920  -22.9880   -6.2340 H       1  UNL1        0.1460
     13  C         16.9490  -22.2940   -5.5120 C.2     1  UNL1        0.0280
     14  C         18.0630  -21.4880   -5.7780 C.2     1  UNL1        0.0250
     15  C         18.8710  -21.0450   -4.7320 C.2     1  UNL1        0.0020
     16  C         18.5600  -21.3970   -3.4190 C.2     1  UNL1        0.0010
     17  C         17.4450  -22.1890   -3.1530 C.2     1  UNL1        0.0080
     18  C         16.6240  -22.6500   -4.1950 C.2     1  UNL1       -0.0400
     19  C         15.4260  -23.4960   -3.8760 C.3     1  UNL1        0.0500
     20  C         21.0660  -22.8820  -10.0670 C.2     1  UNL1        0.2580
     21  O         21.5510  -23.9240   -9.6520 O.2     1  UNL1       -0.2670
     22  N         21.7080  -21.8370  -10.7050 N.am    1  UNL1       -0.3020
     23  H         21.1500  -21.0780  -11.0640 H       1  UNL1        0.1710
     24  C         23.0440  -21.7000  -10.9070 C.3     1  UNL1        0.1640
     25  N         23.9450  -21.3540  -10.0560 N.3     1  UNL1       -0.2660
     26  C         25.2530  -21.2970  -10.7380 C.3     1  UNL1        0.1620
     27  C         25.2390  -22.2070  -11.9650 C.3     1  UNL1        0.1040
     28  S         23.5270  -22.0870  -12.5340 S.3     1  UNL1       -0.0910
@<TRIPOS>BOND
     1    28    27    1
     2    28    24    1
     3    27    26    1
     4     5     4    1
     5    23    22    1
     6    24    22    1
     7    24    25    1
     8     4     3    2
     9     4     6    1
    10    26    25    1
    11     3     2    1
    12    22    20   am
    13    20     6    1
    14    20    21    2
    15     6     7    2
    16     2     1    2
    17     7     1    1
    18     1     8    1
    19    10     8    2
    20     8     9    2
    21     8    11    1
    22    11    12    1
    23    11    13    1
    24    14    13    2
    25    14    15    1
    26    13    18    1
    27    15    16    2
    28    18    19    1
    29    18    17    2
    30    16    17    1
