@<TRIPOS>MOLECULE
81583_out_ligand_01.pdbqt
 26 28 0 0 0
SMALL
GASTEIGER

@<TRIPOS>ATOM
      1  N         16.3090  -22.7450   -6.6270 N.pl3   1  UNL1       -0.1810
      2  H         16.2470  -22.0170   -7.3590 H       1  UNL1        0.1460
      3  C         17.1340  -22.2970   -5.5310 C.2     1  UNL1        0.0380
      4  C         18.2280  -21.4760   -5.8210 C.2     1  UNL1        0.0250
      5  C         18.9990  -20.9420   -4.7870 C.2     1  UNL1        0.0020
      6  C         18.6790  -21.2210   -3.4590 C.2     1  UNL1        0.0010
      7  C         17.5880  -22.0400   -3.1590 C.2     1  UNL1        0.0190
      8  C         16.8050  -22.5730   -4.1920 C.2     1  UNL1        0.0530
      9  C         15.6670  -23.4740   -3.8820 C.2     1  UNL1        0.2510
     10  N         14.4640  -23.1960   -4.4670 N.am    1  UNL1       -0.3660
     11  H         13.7710  -23.9310   -4.3800 H       1  UNL1        0.1590
     12  H         14.4320  -22.6610   -5.3250 H       1  UNL1        0.1590
     13  O         15.8150  -24.4500   -3.1540 O.2     1  UNL1       -0.2680
     14  S         16.8740  -24.1530   -7.4250 S.O2    1  UNL1        0.2420
     15  O         17.4110  -24.9980   -6.3780 O.2     1  UNL1       -0.2060
     16  O         15.7920  -24.6420   -8.2570 O.2     1  UNL1       -0.2060
     17  C         18.1870  -23.6230   -8.4400 C.2     1  UNL1        0.0530
     18  C         17.9050  -22.7960   -9.4620 C.2     1  UNL1        0.0320
     19  C         18.9820  -22.3100  -10.3290 C.2     1  UNL1       -0.0290
     20  C         18.7500  -21.2570  -11.2200 C.2     1  UNL1        0.0120
     21  C         20.2530  -22.9110  -10.2770 C.2     1  UNL1       -0.0480
     22  C         19.7740  -20.8010  -12.0520 C.2     1  UNL1        0.0010
     23  C         21.0320  -21.4000  -12.0050 C.2     1  UNL1        0.0010
     24  C         21.2710  -22.4560  -11.1250 C.2     1  UNL1        0.0080
     25  C         20.4870  -24.0940   -9.3700 C.3     1  UNL1        0.0440
     26  C         19.5760  -24.0990   -8.1360 C.3     1  UNL1        0.0570
@<TRIPOS>BOND
     1    22    23    2
     2    22    20    1
     3    23    24    1
     4    20    19    2
     5    24    21    2
     6    19    21    1
     7    19    18    1
     8    21    25    1
     9    18    17    2
    10    25    26    1
    11    17    26    1
    12    17    14    1
    13    16    14    2
    14    14     1    1
    15    14    15    2
    16     2     1    1
    17     1     3    1
    18     4     3    2
    19     4     5    1
    20     3     8    1
    21    12    10    1
    22     5     6    2
    23    10    11    1
    24    10     9   am
    25     8     9    1
    26     8     7    2
    27     9    13    2
    28     6     7    1
