@<TRIPOS>MOLECULE
815_out_ligand_01.pdbqt
 38 40 0 0 0
SMALL
GASTEIGER

@<TRIPOS>ATOM
      1  C         20.8400  -22.1350  -11.1500 C.2     1  UNL1        0.0330
      2  C         20.5530  -21.0890  -12.0400 C.2     1  UNL1        0.0170
      3  C         19.2520  -20.5870  -12.1390 C.2     1  UNL1        0.0030
      4  C         18.2330  -21.1250  -11.3530 C.2     1  UNL1        0.0250
      5  C         18.5230  -22.1700  -10.4690 C.2     1  UNL1        0.0800
      6  C         19.8150  -22.6940  -10.3800 C.2     1  UNL1        0.0420
      7  C         22.2140  -22.6990  -11.0200 C.2     1  UNL1        0.2560
      8  N         23.1340  -22.2170  -11.9340 N.am    1  UNL1       -0.3230
      9  H         22.8360  -21.4520  -12.5260 H       1  UNL1        0.1690
     10  O         22.4300  -23.4880  -10.1100 O.2     1  UNL1       -0.2670
     11  C         24.4800  -22.6150  -12.0760 C.2     1  UNL1        0.0360
     12  C         25.4990  -22.2540  -11.1910 C.2     1  UNL1        0.0290
     13  C         26.8110  -22.7060  -11.3840 C.2     1  UNL1        0.0040
     14  C         27.1190  -23.5210  -12.4710 C.2     1  UNL1        0.0250
     15  C         26.1060  -23.8700  -13.3630 C.2     1  UNL1        0.0760
     16  C         24.7900  -23.4340  -13.1670 C.2     1  UNL1        0.0540
     17  S         26.4750  -24.9040  -14.7520 S.O2    1  UNL1        0.2390
     18  O         27.0370  -24.0840  -15.8000 O.2     1  UNL1       -0.2060
     19  O         27.1200  -26.1020  -14.2710 O.2     1  UNL1       -0.2060
     20  N         24.9310  -25.3250  -15.2770 N.3     1  UNL1       -0.2250
     21  H         25.0140  -25.8810  -16.1310 H       1  UNL1        0.1360
     22  H         24.3150  -24.5240  -15.4080 H       1  UNL1        0.1360
     23  S         17.2280  -22.8710   -9.4700 S.O2    1  UNL1        0.2630
     24  O         16.4420  -21.7810   -8.9340 O.2     1  UNL1       -0.2000
     25  O         16.6190  -23.9370  -10.2330 O.2     1  UNL1       -0.2000
     26  N         18.0810  -23.6100   -8.2080 N.pl3   1  UNL1       -0.2790
     27  H         19.0490  -23.7930   -8.4790 H       1  UNL1        0.1790
     28  C         17.8760  -23.1440   -6.8700 C.2     1  UNL1        0.0650
     29  C         16.7090  -23.4970   -6.1860 C.2     1  UNL1        0.0480
     30  C         16.4740  -23.0320   -4.8810 C.2     1  UNL1        0.0500
     31  C         17.4240  -22.1920   -4.2770 C.2     1  UNL1        0.0180
     32  C         18.5940  -21.8410   -4.9540 C.2     1  UNL1        0.0270
     33  C         18.8210  -22.3160   -6.2450 C.2     1  UNL1        0.0610
     34 CL         20.2800  -21.8600   -7.0500 Cl      1  UNL1       -0.0820
     35  C         15.2000  -23.3990   -4.1580 C.3     1  UNL1        0.4170
     36  F         15.3900  -24.3450   -3.1980 F       1  UNL1       -0.1660
     37  F         14.6450  -22.3290   -3.5250 F       1  UNL1       -0.1660
     38  F         14.2380  -23.8920   -4.9840 F       1  UNL1       -0.1660
@<TRIPOS>BOND
     1    21    20    1
     2    18    17    2
     3    22    20    1
     4    20    17    1
     5    17    19    2
     6    17    15    1
     7    15    16    1
     8    15    14    2
     9    16    11    2
    10     9     8    1
    11    14    13    1
    12     3     2    1
    13     3     4    2
    14    11     8    1
    15    11    12    1
    16     2     1    2
    17     8     7   am
    18    13    12    2
    19     4     5    1
    20     1     7    1
    21     1     6    1
    22     7    10    2
    23     5     6    2
    24     5    23    1
    25    25    23    2
    26    23    24    2
    27    23    26    1
    28    27    26    1
    29    26    28    1
    30    34    33    1
    31    28    33    2
    32    28    29    1
    33    33    32    1
    34    29    30    2
    35    38    35    1
    36    32    31    2
    37    30    31    1
    38    30    35    1
    39    35    37    1
    40    35    36    1
