@<TRIPOS>MOLECULE
81633_out_ligand_01.pdbqt
 28 30 0 0 0
SMALL
GASTEIGER

@<TRIPOS>ATOM
      1  C         22.0790  -22.4150  -10.7770 C.2     1  UNL1       -0.0190
      2  C         21.5790  -21.8360  -11.9560 C.2     1  UNL1        0.0100
      3  C         20.2510  -21.4220  -12.0470 C.2     1  UNL1        0.0030
      4  C         19.3910  -21.5920  -10.9640 C.2     1  UNL1        0.0290
      5  C         19.8470  -22.1820   -9.7820 C.2     1  UNL1        0.0350
      6  C         21.1830  -22.5900   -9.7020 C.2     1  UNL1        0.0390
      7  N         18.9090  -22.3240   -8.7360 N.am    1  UNL1       -0.3230
      8  C         18.6920  -23.4330   -7.9310 C.2     1  UNL1        0.2620
      9  O         19.2830  -24.5010   -8.0320 O.2     1  UNL1       -0.2670
     10  H         18.3170  -21.5160   -8.5790 H       1  UNL1        0.1690
     11  C         17.6490  -23.2860   -6.8740 C.2     1  UNL1        0.1090
     12  C         16.4150  -23.9410   -6.9400 C.2     1  UNL1        0.1350
     13  F         16.1070  -24.7290   -7.9820 F       1  UNL1       -0.2050
     14  C         15.4580  -23.8030   -5.9330 C.2     1  UNL1        0.0430
     15  C         15.7200  -22.9960   -4.8290 C.2     1  UNL1        0.0060
     16  C         16.9410  -22.3320   -4.7450 C.2     1  UNL1        0.0430
     17  C         17.8930  -22.4790   -5.7580 C.2     1  UNL1        0.1350
     18  F         19.0380  -21.7950   -5.6230 F       1  UNL1       -0.2050
     19  C         23.5290  -22.8870  -10.6960 C.3     1  UNL1        0.1390
     20  C         23.9400  -23.6180   -9.4120 C.3     1  UNL1        0.0540
     21  N         23.8410  -23.7120  -11.8490 N.am    1  UNL1       -0.3210
     22  C         24.8570  -23.1960  -12.6100 C.2     1  UNL1        0.3240
     23  H         23.3010  -24.5100  -12.1540 H       1  UNL1        0.1650
     24  O         25.2560  -23.6650  -13.6600 O.2     1  UNL1       -0.2470
     25  N         25.3150  -22.0700  -12.0180 N.am    1  UNL1       -0.2770
     26  C         24.5610  -21.7550  -10.9270 C.2     1  UNL1        0.2580
     27  H         26.0300  -21.4800  -12.4080 H       1  UNL1        0.1730
     28  O         24.7060  -20.7400  -10.2600 O.2     1  UNL1       -0.2700
@<TRIPOS>BOND
     1    24    22    2
     2    22    25   am
     3    22    21   am
     4    27    25    1
     5    23    21    1
     6     3     2    1
     7     3     4    2
     8    25    26   am
     9     2     1    2
    10    21    19    1
    11     4     5    1
    12    26    19    1
    13    26    28    2
    14     1    19    1
    15     1     6    1
    16    19    20    1
    17     5     6    2
    18     5     7    1
    19     7    10    1
    20     7     8   am
    21     9     8    2
    22    13    12    1
    23     8    11    1
    24    12    11    2
    25    12    14    1
    26    11    17    1
    27    14    15    2
    28    17    18    1
    29    17    16    2
    30    15    16    1
