@<TRIPOS>MOLECULE
81643_out_ligand_01.pdbqt
 27 30 0 0 0
SMALL
GASTEIGER

@<TRIPOS>ATOM
      1  C         22.4970  -23.3200   -8.8900 C.2     1  UNL1       -0.0400
      2  C         22.2570  -22.1720   -8.1230 C.2     1  UNL1        0.0100
      3  C         21.0150  -21.9710   -7.5100 C.2     1  UNL1        0.0160
      4  C         19.9880  -22.9150   -7.6440 C.2     1  UNL1        0.0100
      5  C         20.2400  -24.0670   -8.4040 C.2     1  UNL1        0.0160
      6  C         21.4790  -24.2700   -9.0190 C.2     1  UNL1        0.0100
      7  C         23.8490  -23.5520   -9.5100 C.3     1  UNL1        0.1610
      8  N         23.8390  -23.1580  -10.8960 N.am    1  UNL1       -0.3530
      9  C         24.2650  -21.9080  -11.2780 C.2     1  UNL1        0.2540
     10  O         24.7570  -21.1060  -10.4930 O.2     1  UNL1       -0.2680
     11  H         23.3150  -23.7230  -11.5480 H       1  UNL1        0.1630
     12  C         24.0760  -21.5930  -12.6830 C.2     1  UNL1        0.0680
     13  C         25.0090  -21.4630  -13.6970 C.2     1  UNL1        0.1300
     14  N         24.3090  -21.1630  -14.8310 N.pl3   1  UNL1       -0.2850
     15  C         24.8480  -20.9460  -16.1510 C.3     1  UNL1        0.1790
     16  N         22.9830  -21.0840  -14.6360 N.2     1  UNL1       -0.1850
     17  C         22.8430  -21.3400  -13.3320 C.2     1  UNL1        0.1570
     18  C         18.6740  -22.7500   -7.0120 C.ar    1  UNL1        0.1390
     19  N         17.5140  -22.6880   -7.6450 N.ar    1  UNL1       -0.2280
     20  C         16.5530  -22.5290   -6.6780 C.ar    1  UNL1        0.0860
     21  C         15.1620  -22.4150   -6.8010 C.2     1  UNL1        0.0340
     22  C         17.1290  -22.4810   -5.4170 C.ar    1  UNL1        0.0620
     23  C         14.3960  -22.2570   -5.6390 C.2     1  UNL1        0.0020
     24  C         15.0040  -22.2120   -4.3820 C.2     1  UNL1        0.0020
     25  C         16.3920  -22.3210   -4.2410 C.2     1  UNL1        0.0320
     26  N         18.4710  -22.6190   -5.6560 N.ar    1  UNL1       -0.3380
     27  H         19.1930  -22.6090   -4.9530 H       1  UNL1        0.1670
@<TRIPOS>BOND
     1    15    14    1
     2    14    16    1
     3    14    13    1
     4    16    17    2
     5    13    12    2
     6    17    12    1
     7    12     9    1
     8    11     8    1
     9     9     8   am
    10     9    10    2
    11     8     7    1
    12     7     1    1
    13     6     1    2
    14     6     5    1
    15     1     2    1
    16     5     4    2
    17     2     3    2
    18    19    18   ar
    19    19    20   ar
    20     4     3    1
    21     4    18    1
    22    18    26   ar
    23    21    20    2
    24    21    23    1
    25    20    22   ar
    26    26    22   ar
    27    26    27    1
    28    23    24    2
    29    22    25    2
    30    24    25    1
