@<TRIPOS>MOLECULE
81641_out_ligand_01.pdbqt
 27 29 0 0 0
SMALL
GASTEIGER

@<TRIPOS>ATOM
      1  C         19.8000  -21.6970  -11.3860 C.2     1  UNL1        0.0120
      2  C         18.8740  -20.7890  -11.9110 C.2     1  UNL1        0.0150
      3  C         17.5640  -20.7790  -11.4310 C.2     1  UNL1        0.0030
      4  C         17.1760  -21.6620  -10.4190 C.2     1  UNL1        0.0290
      5  C         18.0910  -22.5630   -9.8740 C.2     1  UNL1        0.0350
      6  C         19.4020  -22.5770  -10.3670 C.2     1  UNL1        0.0440
      7  N         17.7810  -23.4700   -8.8380 N.am    1  UNL1       -0.3240
      8  C         16.6200  -23.5200   -8.0940 C.2     1  UNL1        0.2450
      9  O         15.6320  -22.8020   -8.1690 O.2     1  UNL1       -0.2680
     10  H         18.4930  -24.1540   -8.6160 H       1  UNL1        0.1690
     11  C         16.6740  -24.5960   -7.0820 C.2     1  UNL1        0.0770
     12  C         17.1020  -24.4640   -5.8180 C.2     1  UNL1        0.0420
     13  C         17.5870  -23.2830   -5.1880 C.2     1  UNL1        0.0750
     14  C         17.2850  -22.6490   -3.9860 C.2     1  UNL1        0.0390
     15  C         18.0570  -21.4610   -3.9020 C.2     1  UNL1        0.0350
     16  C         18.8130  -21.4200   -5.0460 C.2     1  UNL1        0.0500
     17  C         19.7880  -20.4530   -5.5920 C.3     1  UNL1        0.0760
     18  O         18.5550  -22.5140   -5.8090 O.2     1  UNL1       -0.3160
     19  C         21.2180  -21.7360  -11.8460 C.2     1  UNL1        0.1410
     20  N         21.5020  -21.1590  -13.0610 N.am    1  UNL1       -0.3070
     21  C         22.7590  -21.1510  -13.5910 C.2     1  UNL1        0.2480
     22  H         20.7860  -20.7810  -13.6600 H       1  UNL1        0.1700
     23  C         23.7980  -21.7610  -12.7530 C.2     1  UNL1        0.1010
     24  O         23.0140  -20.6770  -14.6920 O.2     1  UNL1       -0.2680
     25  C         23.4270  -22.2990  -11.5840 C.2     1  UNL1        0.0380
     26  C         24.4340  -22.9490  -10.6760 C.3     1  UNL1        0.0700
     27  N         22.1290  -22.3070  -11.1190 N.2     1  UNL1       -0.2350
@<TRIPOS>BOND
     1    24    21    2
     2    22    20    1
     3    21    20   am
     4    21    23    1
     5    20    19    1
     6    23    25    2
     7     2     3    1
     8     2     1    2
     9    19     1    1
    10    19    27    2
    11    25    27    1
    12    25    26    1
    13     3     4    2
    14     1     6    1
    15     4     5    1
    16     6     5    2
    17     5     7    1
    18     7    10    1
    19     7     8   am
    20     9     8    2
    21     8    11    1
    22    11    12    2
    23    12    13    1
    24    18    13    1
    25    18    16    1
    26    17    16    1
    27    13    14    2
    28    16    15    2
    29    14    15    1
