@<TRIPOS>MOLECULE
81704_out_ligand_01.pdbqt
 29 32 0 0 0
SMALL
GASTEIGER

@<TRIPOS>ATOM
      1  C         19.3190  -21.8880   -5.8870 C.2     1  UNL1        0.1430
      2  C         19.0590  -20.7610   -5.1250 C.2     1  UNL1        0.0450
      3  C         18.1510  -21.1470   -4.1090 C.2     1  UNL1        0.0360
      4  C         17.8820  -22.4830   -4.3120 C.2     1  UNL1        0.0680
      5  O         18.6030  -22.9390   -5.3750 O.2     1  UNL1       -0.3080
      6  C         20.1560  -22.1400   -7.0470 C.2     1  UNL1        0.2760
      7  O         21.1630  -21.4900   -7.3160 O.2     1  UNL1       -0.2650
      8  N         19.7350  -23.1760   -7.8570 N.am    1  UNL1       -0.3460
      9  H         18.8410  -23.6110   -7.6910 H       1  UNL1        0.1630
     10  C         20.4110  -23.4910   -9.1070 C.3     1  UNL1        0.1230
     11  C         21.9240  -23.5160   -8.8890 C.3     1  UNL1        0.0570
     12  C         22.6140  -23.5140  -10.2380 C.3     1  UNL1        0.1780
     13  O         22.3530  -22.3010  -10.9490 O.2     1  UNL1       -0.3500
     14  C         21.0260  -21.9780  -11.0360 C.2     1  UNL1        0.0770
     15  C         20.6910  -21.0490  -12.0230 C.2     1  UNL1        0.0370
     16  C         20.0420  -22.5050  -10.1910 C.2     1  UNL1       -0.0020
     17  C         19.3620  -20.6680  -12.2050 C.2     1  UNL1        0.0030
     18  C         18.3670  -21.2180  -11.4020 C.2     1  UNL1        0.0010
     19  C         18.7030  -22.1350  -10.4040 C.2     1  UNL1        0.0120
     20  C         17.0450  -23.4950   -3.6260 C.3     1  UNL1        0.2100
     21  S         15.3720  -23.4150   -4.2500 S.O2    1  UNL1        0.1810
     22  O         14.7830  -22.1290   -3.9260 O.2     1  UNL1       -0.2220
     23  O         14.6820  -24.6500   -3.9150 O.2     1  UNL1       -0.2220
     24  C         15.6290  -23.4330   -6.0130 C.2     1  UNL1        0.0590
     25  C         15.9110  -24.6380   -6.6610 C.2     1  UNL1        0.0230
     26  C         16.1080  -24.6430   -8.0410 C.2     1  UNL1        0.0020
     27  C         16.0140  -23.4520   -8.7650 C.2     1  UNL1        0.0000
     28  C         15.7150  -22.2540   -8.1140 C.2     1  UNL1        0.0020
     29  C         15.5160  -22.2400   -6.7340 C.2     1  UNL1        0.0230
@<TRIPOS>BOND
     1    17    15    1
     2    17    18    2
     3    15    14    2
     4    18    19    1
     5    14    13    1
     6    14    16    1
     7    13    12    1
     8    19    16    2
     9    12    11    1
    10    16    10    1
    11    10    11    1
    12    10     8    1
    13    27    28    2
    14    27    26    1
    15    28    29    1
    16    26    25    2
    17     8     9    1
    18     8     6   am
    19     7     6    2
    20     6     1    1
    21    29    24    2
    22    25    24    1
    23    24    21    1
    24     1     5    1
    25     1     2    2
    26     5     4    1
    27     2     3    1
    28     4     3    2
    29     4    20    1
    30    21    22    2
    31    21    23    2
    32    21    20    1
