@<TRIPOS>MOLECULE
81712_out_ligand_01.pdbqt
 40 43 0 0 0
SMALL
GASTEIGER

@<TRIPOS>ATOM
      1  C         22.3540  -21.7990  -10.3710 C.2     1  UNL1        0.2560
      2  O         22.8920  -21.0550   -9.5630 O.2     1  UNL1       -0.2670
      3  N         22.9610  -22.6010  -11.3210 N.am    1  UNL1       -0.3220
      4  H         22.3410  -23.2360  -11.8030 H       1  UNL1        0.1690
      5  C         20.8690  -21.9060  -10.3500 C.2     1  UNL1        0.0340
      6  C         20.1210  -21.6440  -11.4990 C.2     1  UNL1        0.0180
      7  C         18.7330  -21.7490  -11.4520 C.2     1  UNL1        0.0100
      8  C         18.0780  -22.1120  -10.2610 C.2     1  UNL1       -0.0350
      9  C         16.5740  -22.2080  -10.2820 C.3     1  UNL1        0.0500
     10  C         18.8360  -22.3650   -9.0930 C.2     1  UNL1        0.0420
     11  C         20.2300  -22.2490   -9.1520 C.2     1  UNL1        0.0470
     12  N         18.1490  -22.7180   -7.9050 N.am    1  UNL1       -0.3220
     13  C         18.3550  -22.2410   -6.6230 C.2     1  UNL1        0.2590
     14  O         19.2210  -21.4420   -6.2850 O.2     1  UNL1       -0.2670
     15  H         17.4240  -23.4160   -8.0090 H       1  UNL1        0.1690
     16  C         17.4360  -22.7610   -5.5620 C.2     1  UNL1        0.0700
     17  C         17.9970  -23.2180   -4.3580 C.2     1  UNL1        0.0200
     18  C         17.1840  -23.7110   -3.3330 C.2     1  UNL1        0.0010
     19  C         15.8020  -23.7580   -3.5010 C.2     1  UNL1        0.0030
     20  C         15.2330  -23.3100   -4.6910 C.2     1  UNL1        0.0430
     21  C         16.0490  -22.8180   -5.7090 C.2     1  UNL1        0.1320
     22  F         15.4550  -22.3970   -6.8390 F       1  UNL1       -0.2050
     23  C         24.3430  -22.7040  -11.6290 C.2     1  UNL1        0.0430
     24  C         25.2550  -23.2340  -10.7050 C.2     1  UNL1        0.0300
     25  C         26.6090  -23.3620  -11.0140 C.2     1  UNL1        0.0020
     26  C         27.0740  -22.9640  -12.2580 C.2     1  UNL1        0.0010
     27  C         26.1850  -22.4260  -13.1870 C.2     1  UNL1        0.0110
     28  C         24.8150  -22.2630  -12.8970 C.2     1  UNL1       -0.0140
     29  C         23.8470  -21.6810  -13.9220 C.3     1  UNL1        0.1580
     30  N         24.1990  -21.6480  -15.3400 N.3     1  UNL1       -0.4070
     31  C         24.3840  -22.9390  -15.9880 C.3     1  UNL1        0.1170
     32  C         25.3070  -22.8720  -17.2090 C.3     1  UNL1        0.0200
     33  C         24.9730  -21.6730  -18.0920 C.3     1  UNL1        0.0170
     34  C         24.9410  -20.3550  -17.2970 C.3     1  UNL1        0.0950
     35  C         25.0570  -20.5560  -15.7770 C.3     1  UNL1        0.1310
     36  C         26.0080  -19.3790  -17.7650 C.2     1  UNL1        0.2210
     37  N         25.6700  -18.0590  -17.7860 N.am    1  UNL1       -0.3700
     38  H         26.4050  -17.4080  -18.0340 H       1  UNL1        0.1590
     39  H         24.8570  -17.6940  -17.3100 H       1  UNL1        0.1590
     40  O         27.1210  -19.7380  -18.1390 O.2     1  UNL1       -0.2730
@<TRIPOS>BOND
     1    40    36    2
     2    33    34    1
     3    33    32    1
     4    38    37    1
     5    37    36   am
     6    37    39    1
     7    36    34    1
     8    34    35    1
     9    32    31    1
    10    31    30    1
    11    35    30    1
    12    30    29    1
    13    29    28    1
    14    27    28    1
    15    27    26    2
    16    28    23    2
    17    26    25    1
    18     4     3    1
    19    23     3    1
    20    23    24    1
    21     6     7    1
    22     6     5    2
    23     7     8    2
    24     3     1   am
    25    25    24    2
    26     1     5    1
    27     1     2    2
    28     5    11    1
    29     9     8    1
    30     8    10    1
    31    11    10    2
    32    10    12    1
    33    15    12    1
    34    12    13   am
    35    22    21    1
    36    13    14    2
    37    13    16    1
    38    21    16    2
    39    21    20    1
    40    16    17    1
    41    20    19    2
    42    17    18    2
    43    19    18    1
