@<TRIPOS>MOLECULE
81717_out_ligand_01.pdbqt
 29 31 0 0 0
SMALL
GASTEIGER

@<TRIPOS>ATOM
      1  C         16.9820  -22.7800   -9.4630 C.2     1  UNL1        0.2520
      2  O         15.9620  -22.2700   -9.9110 O.2     1  UNL1       -0.2680
      3  N         16.9990  -23.5880   -8.3520 N.am    1  UNL1       -0.3500
      4  H         17.8630  -24.0050   -8.0290 H       1  UNL1        0.1630
      5  C         18.2930  -22.5350  -10.1190 C.2     1  UNL1        0.0320
      6  C         19.4130  -23.2170   -9.6390 C.2     1  UNL1        0.0170
      7  C         20.6630  -23.0130  -10.2280 C.2     1  UNL1        0.0100
      8  C         20.8110  -22.1100  -11.2900 C.2     1  UNL1       -0.0400
      9  C         19.6850  -21.4190  -11.7600 C.2     1  UNL1        0.0100
     10  C         18.4310  -21.6240  -11.1750 C.2     1  UNL1        0.0170
     11  C         22.1650  -21.9110  -11.9230 C.3     1  UNL1        0.1620
     12  N         23.1360  -22.7900  -11.3140 N.am    1  UNL1       -0.3440
     13  C         24.1170  -22.3330  -10.4920 C.2     1  UNL1        0.2920
     14  N         24.9350  -23.3300  -10.0700 N.am    1  UNL1       -0.2540
     15  O         24.2820  -21.1750  -10.1390 O.2     1  UNL1       -0.2540
     16  H         24.4940  -24.2220   -9.8850 H       1  UNL1        0.1280
     17  H         25.5860  -23.0290   -9.3530 H       1  UNL1        0.1280
     18  H         23.2430  -23.7160  -11.6950 H       1  UNL1        0.1640
     19  C         15.7910  -24.0210   -7.6900 C.3     1  UNL1        0.2030
     20  C         15.7620  -23.4040   -6.3390 C.ar    1  UNL1        0.1480
     21  N         14.6720  -23.0900   -5.6690 N.ar    1  UNL1       -0.1330
     22  N         15.0460  -22.5160   -4.4860 N.ar    1  UNL1       -0.1350
     23  C         16.3620  -22.4670   -4.4420 C.ar    1  UNL1        0.1300
     24  N         16.8550  -23.0210   -5.6010 N.ar    1  UNL1       -0.3190
     25  C         17.1480  -21.8710   -3.3220 C.3     1  UNL1        0.0800
     26  C         18.2510  -23.1520   -5.9440 C.3     1  UNL1        0.1320
     27  C         18.9600  -21.8100   -6.1230 C.3     1  UNL1        0.0200
     28  C         18.8260  -20.8250   -4.9530 C.3     1  UNL1        0.0020
     29  C         18.6040  -21.4940   -3.5990 C.3     1  UNL1        0.0080
@<TRIPOS>BOND
     1    11    12    1
     2    11     8    1
     3     9     8    2
     4     9    10    1
     5    18    12    1
     6    12    13   am
     7     8     7    1
     8    10     5    2
     9    13    15    2
    10    13    14   am
    11     7     6    2
    12     5     6    1
    13     5     1    1
    14    14    16    1
    15    14    17    1
    16     2     1    2
    17     1     3   am
    18     3     4    1
    19     3    19    1
    20    19    20    1
    21    20    21   ar
    22    20    24   ar
    23    27    26    1
    24    27    28    1
    25    26    24    1
    26    21    22   ar
    27    24    23   ar
    28    28    29    1
    29    22    23   ar
    30    23    25    1
    31    29    25    1
