@<TRIPOS>MOLECULE
81728_out_ligand_01.pdbqt
 26 28 0 0 0
SMALL
GASTEIGER

@<TRIPOS>ATOM
      1  C         17.0180  -23.6580   -8.3680 C.2     1  UNL1        0.2280
      2  O         15.8090  -23.6390   -8.6280 O.2     1  UNL1       -0.2730
      3  N         17.9570  -23.1360   -9.2710 N.am    1  UNL1       -0.3170
      4  C         17.4110  -22.1510  -10.2060 C.3     1  UNL1        0.1320
      5  C         18.4080  -21.5510  -11.1800 C.3     1  UNL1        0.0250
      6  C         19.6960  -21.2140  -10.4500 C.3     1  UNL1        0.0430
      7  C         20.2550  -22.4880   -9.8690 C.2     1  UNL1       -0.0150
      8  C         21.6400  -22.7530   -9.8280 C.2     1  UNL1        0.0400
      9  C         22.1210  -23.9610   -9.3090 C.2     1  UNL1        0.0180
     10  C         21.2310  -24.9180   -8.8390 C.2     1  UNL1        0.0030
     11  C         19.8610  -24.6510   -8.8490 C.2     1  UNL1        0.0300
     12  C         19.3570  -23.4250   -9.3080 C.2     1  UNL1        0.0440
     13  C         17.5040  -24.1580   -7.0080 C.3     1  UNL1        0.1420
     14  C         17.8040  -23.0300   -6.0350 C.2     1  UNL1       -0.0430
     15  C         17.0310  -22.8140   -4.8750 C.2     1  UNL1       -0.0550
     16  C         17.3690  -21.7550   -4.0190 C.2     1  UNL1        0.0080
     17  C         15.8550  -23.6850   -4.5270 C.3     1  UNL1        0.0490
     18  C         18.4570  -20.9260   -4.2940 C.2     1  UNL1        0.0070
     19  C         19.2300  -21.1320   -5.4400 C.2     1  UNL1       -0.0610
     20  C         20.4300  -20.2770   -5.7130 C.3     1  UNL1        0.0480
     21  C         18.9050  -22.1920   -6.2940 C.2     1  UNL1        0.0140
     22  C         22.6460  -21.7940  -10.3450 C.2     1  UNL1        0.2490
     23  N         22.8870  -21.8610  -11.6880 N.am    1  UNL1       -0.3660
     24  H         22.5250  -22.6030  -12.2710 H       1  UNL1        0.1590
     25  H         23.6220  -21.2710  -12.0570 H       1  UNL1        0.1590
     26  O         23.2210  -20.9930   -9.6250 O.2     1  UNL1       -0.2680
@<TRIPOS>BOND
     1    24    23    1
     2    25    23    1
     3    23    22   am
     4     5     6    1
     5     5     4    1
     6     6     7    1
     7    22     8    1
     8    22    26    2
     9     4     3    1
    10     7     8    2
    11     7    12    1
    12     8     9    1
    13     9    10    2
    14    12     3    1
    15    12    11    2
    16     3     1   am
    17    11    10    1
    18     2     1    2
    19     1    13    1
    20    13    14    1
    21    21    14    2
    22    21    19    1
    23    14    15    1
    24    20    19    1
    25    19    18    2
    26    15    17    1
    27    15    16    2
    28    18    16    1
