@<TRIPOS>MOLECULE
81724_out_ligand_01.pdbqt
 34 37 0 0 0
SMALL
GASTEIGER

@<TRIPOS>ATOM
      1  N         19.7970  -19.1390   -5.0750 N.1     1  UNL1       -0.1910
      2  C         19.2470  -20.1480   -4.9140 C.1     1  UNL1        0.0990
      3  C         18.5580  -21.3890   -4.7100 C.2     1  UNL1        0.0460
      4  C         18.2050  -21.7900   -3.4170 C.2     1  UNL1        0.0230
      5  C         17.5390  -23.0010   -3.2160 C.2     1  UNL1        0.0040
      6  C         17.2230  -23.8100   -4.3070 C.2     1  UNL1        0.0300
      7  C         17.5660  -23.4050   -5.5960 C.2     1  UNL1        0.0440
      8  C         18.2380  -22.2000   -5.8040 C.2     1  UNL1        0.0520
      9  N         17.2720  -24.2520   -6.6970 N.pl3   1  UNL1       -0.2810
     10  H         17.2660  -25.2600   -6.5400 H       1  UNL1        0.1790
     11  S         16.0310  -23.7910   -7.7460 S.O2    1  UNL1        0.2630
     12  O         15.1600  -22.8550   -7.0670 O.2     1  UNL1       -0.2000
     13  O         15.5140  -25.0100   -8.3290 O.2     1  UNL1       -0.2000
     14  C         16.9040  -22.9320   -9.0290 C.2     1  UNL1        0.0800
     15  C         16.2110  -22.0850   -9.9010 C.2     1  UNL1        0.0250
     16  C         16.9080  -21.4120  -10.9050 C.2     1  UNL1        0.0030
     17  C         18.2880  -21.5940  -11.0420 C.2     1  UNL1        0.0170
     18  C         18.9720  -22.4600  -10.1770 C.2     1  UNL1        0.0330
     19  C         18.2810  -23.1270   -9.1620 C.2     1  UNL1        0.0420
     20  C         20.4420  -22.6600  -10.2850 C.2     1  UNL1        0.2560
     21  O         20.9670  -23.4570   -9.5170 O.2     1  UNL1       -0.2670
     22  N         21.0530  -21.9310  -11.2870 N.am    1  UNL1       -0.3230
     23  H         20.4480  -21.4210  -11.9170 H       1  UNL1        0.1690
     24  C         22.4290  -21.8910  -11.5970 C.2     1  UNL1        0.0370
     25  C         23.3270  -21.9940  -10.5270 C.2     1  UNL1        0.0320
     26  C         24.7060  -21.9820  -10.7500 C.2     1  UNL1        0.0420
     27  C         25.2090  -21.8760  -12.0460 C.2     1  UNL1        0.1020
     28  C         24.3200  -21.7240  -13.1180 C.2     1  UNL1        0.1040
     29  O         26.5770  -21.9220  -12.1400 O.2     1  UNL1       -0.3480
     30  C         22.9370  -21.7610  -12.8920 C.2     1  UNL1        0.0690
     31  O         24.6870  -21.5470  -14.4300 O.2     1  UNL1       -0.3480
     32  C         25.8560  -20.7430  -14.5870 C.3     1  UNL1        0.1780
     33  C         27.1140  -21.5880  -14.4880 C.3     1  UNL1        0.0530
     34  C         27.0460  -22.5640  -13.3260 C.3     1  UNL1        0.1780
@<TRIPOS>BOND
     1    32    33    1
     2    32    31    1
     3    33    34    1
     4    31    28    1
     5    34    29    1
     6    28    30    1
     7    28    27    2
     8    30    24    2
     9    29    27    1
    10    27    26    1
    11    23    22    1
    12    24    22    1
    13    24    25    1
    14    22    20   am
    15    17    16    2
    16    17    18    1
    17    16    15    1
    18    26    25    2
    19    20    18    1
    20    20    21    2
    21    18    19    2
    22    15    14    2
    23    19    14    1
    24    14    11    1
    25    13    11    2
    26    11    12    2
    27    11     9    1
    28     9    10    1
    29     9     7    1
    30     8     7    1
    31     8     3    2
    32     7     6    2
    33     1     2    3
    34     2     3    1
    35     3     4    1
    36     6     5    1
    37     4     5    2
