@<TRIPOS>MOLECULE
81730_out_ligand_01.pdbqt
 35 38 0 0 0
SMALL
GASTEIGER

@<TRIPOS>ATOM
      1  C         18.7600  -23.0380   -9.0880 C.2     1  UNL1        0.0790
      2  C         19.8370  -23.6360   -8.4270 C.2     1  UNL1        0.0260
      3  C         21.1410  -23.2960   -8.7910 C.2     1  UNL1        0.0180
      4  C         21.3680  -22.3660   -9.8140 C.2     1  UNL1        0.0320
      5  C         20.2830  -21.8040  -10.5000 C.2     1  UNL1        0.0180
      6  C         18.9760  -22.1430  -10.1410 C.2     1  UNL1        0.0260
      7  C         22.7750  -22.0230  -10.1580 C.2     1  UNL1        0.2520
      8  O         23.3710  -21.1590   -9.5270 O.2     1  UNL1       -0.2680
      9  N         23.3180  -22.7000  -11.2270 N.am    1  UNL1       -0.3490
     10  H         22.7310  -23.2930  -11.7970 H       1  UNL1        0.1630
     11  C         24.6680  -22.4370  -11.6980 C.3     1  UNL1        0.1140
     12  C         25.7030  -23.1860  -10.8530 C.3     1  UNL1        0.0370
     13  C         24.7590  -22.7810  -13.1750 C.2     1  UNL1       -0.0330
     14  C         25.2140  -24.0520  -13.5680 C.2     1  UNL1        0.0120
     15  C         25.3330  -24.3820  -14.9200 C.2     1  UNL1        0.0400
     16  C         25.0080  -23.4440  -15.8960 C.2     1  UNL1        0.1020
     17  C         24.5890  -22.1650  -15.5210 C.2     1  UNL1        0.1020
     18  O         25.1310  -23.8430  -17.2020 O.2     1  UNL1       -0.3460
     19  C         24.4520  -21.8390  -14.1720 C.2     1  UNL1        0.0490
     20  O         24.2970  -21.1750  -16.4250 O.2     1  UNL1       -0.3460
     21  C         24.7850  -21.5000  -17.7320 C.3     1  UNL1        0.2020
     22  C         24.4580  -22.9410  -18.0870 C.3     1  UNL1        0.2020
     23  S         17.0930  -23.4700   -8.6310 S.O2    1  UNL1        0.2630
     24  O         16.3020  -23.4820   -9.8450 O.2     1  UNL1       -0.2000
     25  O         17.1520  -24.6300   -7.7690 O.2     1  UNL1       -0.2000
     26  N         16.5680  -22.1300   -7.7520 N.pl3   1  UNL1       -0.2800
     27  H         16.8390  -21.2460   -8.1760 H       1  UNL1        0.1790
     28  C         16.4590  -22.2040   -6.3320 C.2     1  UNL1        0.0490
     29  C         15.2450  -22.6150   -5.7730 C.2     1  UNL1        0.0310
     30  C         15.1080  -22.7270   -4.3940 C.2     1  UNL1        0.0030
     31  C         16.1820  -22.4130   -3.5650 C.2     1  UNL1        0.0070
     32  C         17.4060  -21.9790   -4.1030 C.2     1  UNL1       -0.0540
     33  C         18.5240  -21.6400   -3.1530 C.3     1  UNL1        0.0490
     34  C         17.5620  -21.8930   -5.5070 C.2     1  UNL1       -0.0290
     35  C         18.8630  -21.4100   -6.1010 C.3     1  UNL1        0.0510
@<TRIPOS>BOND
     1    22    21    1
     2    22    18    1
     3    21    20    1
     4    18    16    1
     5    20    17    1
     6    16    17    2
     7    16    15    1
     8    17    19    1
     9    15    14    2
    10    19    13    2
    11    14    13    1
    12    13    11    1
    13    10     9    1
    14    11     9    1
    15    11    12    1
    16     9     7   am
    17     5     6    1
    18     5     4    2
    19     7     4    1
    20     7     8    2
    21     6     1    2
    22    24    23    2
    23     4     3    1
    24     1    23    1
    25     1     2    1
    26     3     2    2
    27    23    25    2
    28    23    26    1
    29    27    26    1
    30    26    28    1
    31    28    29    2
    32    28    34    1
    33    35    34    1
    34    29    30    1
    35    34    32    2
    36    30    31    2
    37    32    31    1
    38    32    33    1
