@<TRIPOS>MOLECULE
81731_out_ligand_01.pdbqt
 33 36 0 0 0
SMALL
GASTEIGER

@<TRIPOS>ATOM
      1  C         17.1330  -22.8350   -9.0360 C.2     1  UNL1        0.0800
      2  C         16.4520  -22.0210   -9.9460 C.2     1  UNL1        0.0250
      3  C         17.1470  -21.4490  -11.0120 C.2     1  UNL1        0.0030
      4  C         18.5170  -21.6790  -11.1580 C.2     1  UNL1        0.0170
      5  C         19.2000  -22.4760  -10.2290 C.2     1  UNL1        0.0330
      6  C         18.5050  -23.0640   -9.1670 C.2     1  UNL1        0.0420
      7  C         20.6560  -22.7520  -10.3620 C.2     1  UNL1        0.2560
      8  O         21.0980  -23.7680   -9.8410 O.2     1  UNL1       -0.2670
      9  N         21.3670  -21.7880  -11.0530 N.am    1  UNL1       -0.3230
     10  H         20.8690  -20.9450  -11.3100 H       1  UNL1        0.1690
     11  C         22.7420  -21.8000  -11.3680 C.2     1  UNL1        0.0370
     12  C         23.7610  -21.6740  -10.4230 C.2     1  UNL1        0.0320
     13  C         25.1020  -21.7160  -10.8180 C.2     1  UNL1        0.0420
     14  C         25.4430  -21.8920  -12.1590 C.2     1  UNL1        0.1020
     15  C         24.4280  -21.9690  -13.1200 C.2     1  UNL1        0.1040
     16  O         26.7900  -21.9670  -12.4110 O.2     1  UNL1       -0.3480
     17  C         23.0880  -21.9520  -12.7170 C.2     1  UNL1        0.0690
     18  O         24.6210  -22.0740  -14.4750 O.2     1  UNL1       -0.3480
     19  C         25.7590  -21.3460  -14.9440 C.3     1  UNL1        0.1780
     20  C         27.0270  -22.1730  -14.8210 C.3     1  UNL1        0.0530
     21  C         27.1200  -22.8630  -13.4710 C.3     1  UNL1        0.1780
     22  S         16.2610  -23.5670   -7.6740 S.O2    1  UNL1        0.2630
     23  O         15.6750  -24.8130   -8.1170 O.2     1  UNL1       -0.2000
     24  O         15.4410  -22.5240   -7.0940 O.2     1  UNL1       -0.2000
     25  N         17.4930  -23.8730   -6.5640 N.pl3   1  UNL1       -0.2800
     26  H         18.2420  -24.4240   -6.9790 H       1  UNL1        0.1790
     27  C         17.8560  -22.8420   -5.6510 C.2     1  UNL1        0.0480
     28  C         18.7420  -21.8520   -6.0840 C.2     1  UNL1        0.0300
     29  C         19.1560  -20.8490   -5.2090 C.2     1  UNL1        0.0020
     30  C         18.6900  -20.8370   -3.8980 C.2     1  UNL1        0.0010
     31  C         17.8060  -21.8260   -3.4620 C.2     1  UNL1        0.0090
     32  C         17.3740  -22.8390   -4.3330 C.2     1  UNL1       -0.0350
     33  C         16.4410  -23.9010   -3.8220 C.3     1  UNL1        0.0500
@<TRIPOS>BOND
     1    19    20    1
     2    19    18    1
     3    20    21    1
     4    18    15    1
     5    21    16    1
     6    15    17    1
     7    15    14    2
     8    17    11    2
     9    16    14    1
    10    14    13    1
    11    11     9    1
    12    11    12    1
    13    10     9    1
    14     4     3    2
    15     4     5    1
    16     9     7   am
    17     3     2    1
    18    13    12    2
    19     7     5    1
    20     7     8    2
    21     5     6    2
    22     2     1    2
    23     6     1    1
    24     1    22    1
    25    23    22    2
    26    22    24    2
    27    22    25    1
    28    26    25    1
    29    25    27    1
    30    28    27    2
    31    28    29    1
    32    27    32    1
    33    29    30    2
    34    32    33    1
    35    32    31    2
    36    30    31    1
