@<TRIPOS>MOLECULE
81736_out_ligand_01.pdbqt
 32 35 0 0 0
SMALL
GASTEIGER

@<TRIPOS>ATOM
      1  C         17.8850  -22.8240   -9.6400 C.2     1  UNL1        0.0790
      2  C         19.0370  -23.6000   -9.4600 C.2     1  UNL1        0.0260
      3  C         20.1960  -23.2800  -10.1690 C.2     1  UNL1        0.0180
      4  C         20.2020  -22.1760  -11.0310 C.2     1  UNL1        0.0320
      5  C         19.0430  -21.4130  -11.2190 C.2     1  UNL1        0.0180
      6  C         17.8840  -21.7260  -10.5090 C.2     1  UNL1        0.0260
      7  S         16.4090  -23.2130   -8.7290 S.O2    1  UNL1        0.2630
      8  O         15.2950  -23.1280   -9.6520 O.2     1  UNL1       -0.2000
      9  O         16.6460  -24.4210   -7.9680 O.2     1  UNL1       -0.2000
     10  N         16.2500  -21.8940   -7.6870 N.pl3   1  UNL1       -0.2800
     11  H         15.6140  -21.1900   -8.0570 H       1  UNL1        0.1790
     12  C         16.2290  -22.1370   -6.2830 C.2     1  UNL1        0.0490
     13  C         14.9840  -22.4170   -5.7080 C.2     1  UNL1        0.0310
     14  C         14.8720  -22.6070   -4.3350 C.2     1  UNL1        0.0030
     15  C         16.0050  -22.5160   -3.5330 C.2     1  UNL1        0.0070
     16  C         17.2680  -22.2550   -4.0930 C.2     1  UNL1       -0.0540
     17  C         18.4460  -22.1160   -3.1610 C.3     1  UNL1        0.0490
     18  C         17.3900  -22.0620   -5.4910 C.2     1  UNL1       -0.0290
     19  C         18.7430  -21.7650   -6.0880 C.3     1  UNL1        0.0510
     20  C         21.4340  -21.8690  -11.7930 C.2     1  UNL1        0.2540
     21  O         21.3010  -21.2860  -12.8680 O.2     1  UNL1       -0.2670
     22  N         22.6660  -22.2490  -11.2500 N.am    1  UNL1       -0.3390
     23  C         23.8740  -21.6640  -11.8320 C.3     1  UNL1        0.1650
     24  C         24.3370  -22.4260  -13.0550 C.2     1  UNL1       -0.0400
     25  C         24.2050  -21.8550  -14.3390 C.2     1  UNL1        0.0090
     26  C         24.6370  -22.5470  -15.4700 C.2     1  UNL1        0.0010
     27  C         25.2140  -23.8160  -15.3320 C.2     1  UNL1        0.0000
     28  C         25.3680  -24.3850  -14.0630 C.2     1  UNL1        0.0010
     29  C         24.9320  -23.6960  -12.9300 C.2     1  UNL1        0.0090
     30  C         22.8230  -23.0610  -10.0650 C.3     1  UNL1        0.0880
     31  C         24.1630  -23.2320   -9.3920 C.3     1  UNL1        0.0270
     32  C         23.0880  -22.4430   -8.7110 C.3     1  UNL1        0.0270
@<TRIPOS>BOND
     1    26    27    2
     2    26    25    1
     3    27    28    1
     4    25    24    2
     5    28    29    2
     6    24    29    1
     7    24    23    1
     8    21    20    2
     9    23    22    1
    10    20    22   am
    11    20     4    1
    12    22    30    1
    13     5     4    2
    14     5     6    1
    15     4     3    1
    16     6     1    2
    17     3     2    2
    18    30    31    1
    19    30    32    1
    20     8     7    2
    21     1     2    1
    22     1     7    1
    23    31    32    1
    24     7     9    2
    25     7    10    1
    26    11    10    1
    27    10    12    1
    28    12    13    2
    29    12    18    1
    30    19    18    1
    31    13    14    1
    32    18    16    2
    33    14    15    2
    34    16    15    1
    35    16    17    1
