@<TRIPOS>MOLECULE
81739_out_ligand_01.pdbqt
 37 40 0 0 0
SMALL
GASTEIGER

@<TRIPOS>ATOM
      1  C         20.8770  -22.6050   -7.7690 C.2     1  UNL1        0.0320
      2  C         21.9560  -21.7190   -7.8720 C.2     1  UNL1        0.0190
      3  C         23.0240  -22.0110   -8.7260 C.2     1  UNL1        0.0250
      4  C         22.9970  -23.1700   -9.5060 C.2     1  UNL1        0.0220
      5  C         21.9530  -24.0840   -9.3560 C.2     1  UNL1        0.0250
      6  C         20.8900  -23.8010   -8.4940 C.2     1  UNL1        0.0190
      7  N         24.0940  -23.5590  -10.3390 N.pl3   1  UNL1       -0.1810
      8  H         24.7180  -24.1890   -9.8280 H       1  UNL1        0.1460
      9  S         25.0490  -22.3050  -10.9750 S.O2    1  UNL1        0.2450
     10  O         26.3890  -22.5320  -10.4770 O.2     1  UNL1       -0.2060
     11  O         24.3820  -21.0300  -10.8180 O.2     1  UNL1       -0.2060
     12  C         25.0190  -22.7040  -12.7020 C.2     1  UNL1        0.0770
     13  C         25.4660  -23.9500  -13.1480 C.2     1  UNL1        0.0280
     14  C         25.4290  -24.2400  -14.5120 C.2     1  UNL1        0.0410
     15  C         24.9790  -23.2790  -15.4210 C.2     1  UNL1        0.1020
     16  C         24.5400  -22.0320  -14.9660 C.2     1  UNL1        0.1030
     17  O         24.9040  -23.6670  -16.7310 O.2     1  UNL1       -0.3480
     18  C         24.5480  -21.7440  -13.6030 C.2     1  UNL1        0.0640
     19  O         23.9910  -21.0850  -15.7850 O.2     1  UNL1       -0.3480
     20  C         24.9140  -20.6150  -16.7680 C.3     1  UNL1        0.1780
     21  C         25.0030  -21.5550  -17.9600 C.3     1  UNL1        0.0530
     22  C         25.7060  -22.8490  -17.5850 C.3     1  UNL1        0.1780
     23  C         19.7180  -22.3210   -6.8810 C.2     1  UNL1        0.2510
     24  N         18.7660  -23.3150   -6.8080 N.am    1  UNL1       -0.3570
     25  H         18.9790  -24.2220   -7.2020 H       1  UNL1        0.1620
     26  O         19.6750  -21.2750   -6.2470 O.2     1  UNL1       -0.2680
     27  C         17.6190  -23.2200   -5.9220 C.3     1  UNL1        0.1240
     28  C         16.3190  -23.6120   -6.6220 C.3     1  UNL1        0.0390
     29  C         15.9660  -22.6890   -7.7920 C.3     1  UNL1        0.1240
     30  N         16.2870  -23.2860   -9.0980 N.pl3   1  UNL1       -0.3850
     31  C         15.2840  -24.2000   -9.6410 C.3     1  UNL1        0.1490
     32  C         17.1010  -22.5690   -9.9850 C.2     1  UNL1        0.0290
     33  C         18.3770  -23.0200  -10.3740 C.2     1  UNL1        0.0290
     34  C         19.1890  -22.2980  -11.2590 C.2     1  UNL1        0.0020
     35  C         18.7520  -21.0870  -11.7760 C.2     1  UNL1        0.0000
     36  C         17.5090  -20.5960  -11.3960 C.2     1  UNL1        0.0020
     37  C         16.7050  -21.3270  -10.5120 C.2     1  UNL1        0.0290
@<TRIPOS>BOND
     1    21    22    1
     2    21    20    1
     3    22    17    1
     4    20    19    1
     5    17    15    1
     6    19    16    1
     7    15    16    2
     8    15    14    1
     9    16    18    1
    10    14    13    2
    11    18    12    2
    12    13    12    1
    13    12     9    1
    14    35    36    2
    15    35    34    1
    16    36    37    1
    17    34    33    2
    18     9    11    2
    19     9    10    2
    20     9     7    1
    21    37    32    2
    22    33    32    1
    23     7     8    1
    24     7     4    1
    25    32    30    1
    26    31    30    1
    27     4     5    2
    28     4     3    1
    29     5     6    1
    30    30    29    1
    31     3     2    2
    32     6     1    2
    33     2     1    1
    34    29    28    1
    35     1    23    1
    36    25    24    1
    37    23    24   am
    38    23    26    2
    39    24    27    1
    40    28    27    1
