@<TRIPOS>MOLECULE
81746_out_ligand_01.pdbqt
 34 37 0 0 0
SMALL
GASTEIGER

@<TRIPOS>ATOM
      1  C         18.2310  -22.1790  -10.3540 C.2     1  UNL1        0.0800
      2  C         17.9000  -21.2050  -11.3010 C.2     1  UNL1        0.0250
      3  C         18.9000  -20.6650  -12.1090 C.2     1  UNL1        0.0030
      4  C         20.2200  -21.1050  -11.9790 C.2     1  UNL1        0.0170
      5  C         20.5470  -22.0800  -11.0250 C.2     1  UNL1        0.0330
      6  C         19.5550  -22.5930  -10.1850 C.2     1  UNL1        0.0420
      7  C         21.9290  -22.6090  -10.8860 C.2     1  UNL1        0.2520
      8  O         22.1270  -23.6880  -10.3420 O.2     1  UNL1       -0.2680
      9  N         22.9200  -21.8420  -11.4560 N.am    1  UNL1       -0.3490
     10  H         22.6570  -21.0740  -12.0590 H       1  UNL1        0.1630
     11  C         24.2920  -22.3160  -11.5460 C.3     1  UNL1        0.1140
     12  C         25.2830  -21.2810  -11.0050 C.3     1  UNL1        0.0370
     13  C         24.5850  -22.7140  -12.9830 C.2     1  UNL1       -0.0330
     14  C         25.2250  -23.9250  -13.3020 C.2     1  UNL1        0.0120
     15  C         25.5140  -24.2520  -14.6290 C.2     1  UNL1        0.0400
     16  C         25.1750  -23.3700  -15.6520 C.2     1  UNL1        0.1020
     17  C         24.5730  -22.1450  -15.3490 C.2     1  UNL1        0.1020
     18  O         25.4720  -23.7650  -16.9310 O.2     1  UNL1       -0.3460
     19  C         24.2690  -21.8240  -14.0250 C.2     1  UNL1        0.0490
     20  O         24.2480  -21.2090  -16.2980 O.2     1  UNL1       -0.3460
     21  C         24.8810  -21.4940  -17.5520 C.3     1  UNL1        0.2020
     22  C         24.7660  -22.9710  -17.8930 C.3     1  UNL1        0.2020
     23  S         16.9510  -22.9020   -9.3470 S.O2    1  UNL1        0.2630
     24  O         16.2060  -21.8310   -8.7270 O.2     1  UNL1       -0.2000
     25  O         16.2890  -23.9120  -10.1480 O.2     1  UNL1       -0.2000
     26  N         17.8240  -23.7480   -8.1690 N.pl3   1  UNL1       -0.2810
     27  H         18.5880  -24.2840   -8.5770 H       1  UNL1        0.1790
     28  C         18.0330  -23.1490   -6.8960 C.2     1  UNL1        0.0420
     29  C         17.2840  -23.5400   -5.7890 C.2     1  UNL1        0.0300
     30  C         17.4390  -22.8760   -4.5700 C.2     1  UNL1        0.0090
     31  C         18.3550  -21.8240   -4.4470 C.2     1  UNL1       -0.0620
     32  C         18.4870  -21.0730   -3.1530 C.3     1  UNL1        0.0480
     33  C         19.1080  -21.4400   -5.5630 C.2     1  UNL1        0.0090
     34  C         18.9510  -22.1040   -6.7830 C.2     1  UNL1        0.0300
@<TRIPOS>BOND
     1    22    21    1
     2    22    18    1
     3    21    20    1
     4    18    16    1
     5    20    17    1
     6    16    17    2
     7    16    15    1
     8    17    19    1
     9    15    14    2
    10    19    13    2
    11    14    13    1
    12    13    11    1
    13     3     4    2
    14     3     2    1
    15    10     9    1
    16     4     5    1
    17    11     9    1
    18    11    12    1
    19     9     7   am
    20     2     1    2
    21     5     7    1
    22     5     6    2
    23     7     8    2
    24     1     6    1
    25     1    23    1
    26    25    23    2
    27    23    24    2
    28    23    26    1
    29    27    26    1
    30    26    28    1
    31    28    34    2
    32    28    29    1
    33    34    33    1
    34    29    30    2
    35    33    31    2
    36    30    31    1
    37    31    32    1
