@<TRIPOS>MOLECULE
81741_out_ligand_01.pdbqt
 29 32 0 0 0
SMALL
GASTEIGER

@<TRIPOS>ATOM
      1  C         20.4680  -23.1790   -9.5070 C.3     1  UNL1        0.1430
      2  N         21.7740  -23.1810   -9.8220 N.2     1  UNL1       -0.2100
      3  C         22.1630  -22.4680  -10.8890 C.2     1  UNL1        0.1640
      4  N         21.3340  -21.7510  -11.6650 N.pl3   1  UNL1       -0.2280
      5  C         20.0380  -21.7410  -11.3420 C.2     1  UNL1        0.0730
      6  C         19.1650  -20.9990  -12.1280 C.2     1  UNL1        0.0320
      7  C         17.7970  -20.9290  -11.8520 C.2     1  UNL1        0.0020
      8  C         17.2800  -21.6120  -10.7610 C.2     1  UNL1        0.0010
      9  C         18.1360  -22.3650   -9.9600 C.2     1  UNL1        0.0180
     10  C         19.5240  -22.4450  -10.2480 C.2     1  UNL1        0.0390
     11  N         20.0190  -23.9570   -8.4030 N.pl3   1  UNL1       -0.3400
     12  H         20.7890  -24.5330   -8.0810 H       1  UNL1        0.1670
     13  C         19.1820  -23.5600   -7.3370 C.2     1  UNL1        0.0330
     14  C         19.3400  -22.3440   -6.6620 C.2     1  UNL1        0.0300
     15  C         18.4470  -21.9540   -5.6560 C.2     1  UNL1        0.0190
     16  C         17.3540  -22.7600   -5.3310 C.2     1  UNL1        0.0320
     17  C         17.1690  -23.9670   -6.0110 C.2     1  UNL1        0.0190
     18  C         18.0670  -24.3510   -7.0140 C.2     1  UNL1        0.0300
     19  C         16.4280  -22.3020   -4.2610 C.2     1  UNL1        0.2490
     20  N         16.9820  -21.7190   -3.1530 N.am    1  UNL1       -0.3660
     21  H         17.9550  -21.8430   -2.9170 H       1  UNL1        0.1590
     22  H         16.3400  -21.5460   -2.3900 H       1  UNL1        0.1590
     23  O         15.2180  -22.4680   -4.3370 O.2     1  UNL1       -0.2680
     24  C         23.5910  -22.4750  -11.2340 C.2     1  UNL1        0.0290
     25  C         24.1310  -23.3330  -12.2060 C.2     1  UNL1        0.0180
     26  C         25.4920  -23.3080  -12.5070 C.2     1  UNL1        0.0200
     27  C         26.2970  -22.4170  -11.8210 C.2     1  UNL1        0.1160
     28  N         25.8360  -21.5720  -10.8780 N.2     1  UNL1       -0.2720
     29  C         24.5050  -21.6220  -10.6120 C.2     1  UNL1        0.1310
@<TRIPOS>BOND
     1    26    25    1
     2    26    27    2
     3    25    24    2
     4     6     7    1
     5     6     5    2
     6     7     8    2
     7    27    28    1
     8     4     5    1
     9     4     3    1
    10     5    10    1
    11    24     3    1
    12    24    29    1
    13     3     2    2
    14    28    29    2
    15     8     9    1
    16    10     9    2
    17    10     1    1
    18     2     1    1
    19     1    11    1
    20    11    12    1
    21    11    13    1
    22    13    18    2
    23    13    14    1
    24    18    17    1
    25    14    15    2
    26    17    16    2
    27    15    16    1
    28    16    19    1
    29    23    19    2
    30    19    20   am
    31    20    21    1
    32    20    22    1
