@<TRIPOS>MOLECULE
81757_out_ligand_01.pdbqt
 31 34 0 0 0
SMALL
GASTEIGER

@<TRIPOS>ATOM
      1  C         17.0110  -22.9860   -8.9110 C.2     1  UNL1        0.0580
      2  C         16.0840  -22.2290   -9.5250 C.2     1  UNL1        0.1090
      3  N         16.3920  -21.4380  -10.6010 N.am    1  UNL1       -0.3320
      4  C         17.6430  -21.3470  -11.1650 C.2     1  UNL1        0.2560
      5  O         17.8610  -20.6550  -12.1530 O.2     1  UNL1       -0.2670
      6  C         18.7180  -22.1320  -10.5030 C.2     1  UNL1        0.0450
      7  C         20.0280  -22.0430  -10.9960 C.2     1  UNL1        0.0470
      8  C         21.0660  -22.7300  -10.3640 C.2     1  UNL1        0.0360
      9  C         20.7780  -23.4880   -9.2290 C.2     1  UNL1        0.0300
     10  C         19.4660  -23.5750   -8.7370 C.2     1  UNL1        0.0160
     11  C         18.4090  -22.9200   -9.3810 C.2     1  UNL1       -0.0030
     12  H         15.6650  -20.8890  -11.0500 H       1  UNL1        0.1680
     13  N         22.3530  -22.5950  -10.9180 N.am    1  UNL1       -0.3230
     14  C         23.3870  -21.7840  -10.4930 C.2     1  UNL1        0.2610
     15  O         23.3610  -21.0300   -9.5280 O.2     1  UNL1       -0.2670
     16  H         22.5580  -23.1670  -11.7360 H       1  UNL1        0.1690
     17  C         24.5880  -21.8870  -11.3090 C.2     1  UNL1        0.0990
     18  C         25.9160  -22.0290  -10.8560 C.2     1  UNL1        0.1600
     19  N         26.8070  -22.0980  -11.8460 N.2     1  UNL1       -0.1780
     20  N         26.0660  -22.0010  -12.9730 N.pl3   1  UNL1       -0.2250
     21  C         26.5190  -22.0170  -14.2850 C.2     1  UNL1        0.1410
     22  C         24.7010  -21.8720  -12.6870 C.2     1  UNL1        0.1670
     23  C         25.6510  -21.9090  -15.2990 C.2     1  UNL1        0.0460
     24 BR         26.1020  -21.9150  -17.0900 Br      1  UNL1       -0.0480
     25  C         24.2170  -21.7780  -14.8970 C.2     1  UNL1        0.1390
     26  N         23.7560  -21.7590  -13.6780 N.2     1  UNL1       -0.2390
     27  C         16.4900  -23.8510   -7.8190 C.2     1  UNL1        0.2510
     28  N         16.8110  -23.4580   -6.5570 N.am    1  UNL1       -0.3660
     29  H         17.4650  -22.7090   -6.3660 H       1  UNL1        0.1590
     30  H         16.5550  -24.0780   -5.8000 H       1  UNL1        0.1590
     31  O         15.8710  -24.8860   -8.0270 O.2     1  UNL1       -0.2680
@<TRIPOS>BOND
     1    24    23    1
     2    23    25    1
     3    23    21    2
     4    25    26    2
     5    21    20    1
     6    26    22    1
     7    20    22    1
     8    20    19    1
     9    22    17    2
    10     5     4    2
    11    19    18    2
    12    16    13    1
    13    17    18    1
    14    17    14    1
    15     4     3   am
    16     4     6    1
    17    12     3    1
    18     7     6    2
    19     7     8    1
    20    13    14   am
    21    13     8    1
    22     3     2    1
    23     6    11    1
    24    14    15    2
    25     8     9    2
    26     2     1    2
    27    11     1    1
    28    11    10    2
    29     9    10    1
    30     1    27    1
    31    31    27    2
    32    27    28   am
    33    28    29    1
    34    28    30    1
