@<TRIPOS>MOLECULE
81767_out_ligand_01.pdbqt
 33 37 0 0 0
SMALL
GASTEIGER

@<TRIPOS>ATOM
      1  C         19.7840  -21.8650   -9.9090 C.2     1  UNL1        0.0350
      2  C         19.0120  -21.3090  -10.9400 C.2     1  UNL1        0.0290
      3  C         19.5390  -21.1430  -12.2220 C.2     1  UNL1        0.0030
      4  C         20.8470  -21.5400  -12.4930 C.2     1  UNL1        0.0170
      5  C         21.6230  -22.1060  -11.4740 C.2     1  UNL1        0.0340
      6  C         21.0960  -22.2560  -10.1840 C.2     1  UNL1        0.0460
      7  N         19.1630  -21.9960   -8.6480 N.am    1  UNL1       -0.3230
      8  C         19.7780  -22.1200   -7.4160 C.2     1  UNL1        0.2560
      9  O         20.9810  -22.0980   -7.1900 O.2     1  UNL1       -0.2670
     10  H         18.1520  -21.9440   -8.6530 H       1  UNL1        0.1690
     11  C         18.8500  -22.2630   -6.2570 C.2     1  UNL1        0.0340
     12  C         18.9510  -21.3320   -5.2110 C.2     1  UNL1        0.0190
     13  C         18.1150  -21.3960   -4.0890 C.2     1  UNL1        0.0330
     14  C         17.1850  -22.4350   -4.0680 C.2     1  UNL1        0.0620
     15  N         16.2310  -22.8040   -3.1530 N.pl3   1  UNL1       -0.3490
     16  C         17.0700  -23.3820   -5.0800 C.2     1  UNL1        0.0850
     17  C         15.5970  -23.9160   -3.6320 C.2     1  UNL1        0.2080
     18  H         16.0350  -22.3390   -2.2780 H       1  UNL1        0.1670
     19  N         16.0810  -24.2880   -4.7940 N.2     1  UNL1       -0.2420
     20  C         17.9160  -23.3110   -6.1950 C.2     1  UNL1        0.0510
     21  C         23.0250  -22.5320  -11.7270 C.2     1  UNL1        0.2520
     22  O         23.5500  -23.3930  -11.0320 O.2     1  UNL1       -0.2680
     23  N         23.6570  -21.9190  -12.7840 N.am    1  UNL1       -0.3480
     24  H         23.1340  -21.3170  -13.4050 H       1  UNL1        0.1630
     25  C         25.0150  -22.2680  -13.1600 C.3     1  UNL1        0.1190
     26  C         26.0520  -21.4610  -12.3450 C.3     1  UNL1        0.0300
     27  C         26.1310  -19.9930  -12.8020 C.3     1  UNL1        0.0070
     28  C         26.5480  -19.8720  -14.2760 C.3     1  UNL1        0.0470
     29  C         25.8200  -20.8770  -15.1170 C.2     1  UNL1       -0.0090
     30  S         25.7930  -20.7780  -16.8150 S.3     1  UNL1       -0.1060
     31  C         25.1460  -21.9830  -14.6330 C.2     1  UNL1       -0.0220
     32  C         24.8810  -22.2210  -16.9370 C.2     1  UNL1        0.0510
     33  C         24.6030  -22.7640  -15.7030 C.2     1  UNL1        0.0170
@<TRIPOS>BOND
     1    32    30    1
     2    32    33    2
     3    30    29    1
     4    33    31    1
     5    29    31    2
     6    29    28    1
     7    31    25    1
     8    28    27    1
     9    24    23    1
    10    25    23    1
    11    25    26    1
    12    27    26    1
    13    23    21   am
    14     4     3    2
    15     4     5    1
    16     3     2    1
    17    21     5    1
    18    21    22    2
    19     5     6    2
    20     2     1    2
    21     6     1    1
    22     1     7    1
    23    10     7    1
    24     7     8   am
    25     8     9    2
    26     8    11    1
    27    11    20    2
    28    11    12    1
    29    20    16    1
    30    12    13    2
    31    16    19    1
    32    16    14    2
    33    19    17    2
    34    13    14    1
    35    14    15    1
    36    17    15    1
    37    15    18    1
