@<TRIPOS>MOLECULE
81781_out_ligand_01.pdbqt
 36 41 0 0 0
SMALL
GASTEIGER

@<TRIPOS>ATOM
      1  C         19.3510  -23.0190   -9.6570 C.2     1  UNL1       -0.0400
      2  C         19.8970  -24.0130   -8.8140 C.2     1  UNL1        0.0090
      3  C         21.2710  -24.2630   -8.7830 C.2     1  UNL1        0.0100
      4  C         22.0900  -23.5100   -9.6060 C.2     1  UNL1       -0.0320
      5  C         21.5620  -22.5230  -10.4460 C.2     1  UNL1       -0.0320
      6  C         20.2020  -22.2700  -10.4860 C.2     1  UNL1        0.0180
      7  C         22.6600  -21.8560  -11.2130 C.2     1  UNL1        0.1650
      8  N         23.8550  -22.6080  -10.8170 N.am    1  UNL1       -0.3390
      9  C         25.0990  -22.5550  -11.4090 C.2     1  UNL1        0.2560
     10  O         26.0040  -23.3430  -11.1360 O.2     1  UNL1       -0.2670
     11  C         23.5740  -23.5910   -9.7780 C.2     1  UNL1        0.1650
     12  C         17.8620  -22.7860   -9.6910 C.3     1  UNL1        0.1610
     13  N         17.3430  -22.5490   -8.3660 N.am    1  UNL1       -0.3530
     14  C         16.5860  -23.4740   -7.6830 C.2     1  UNL1        0.2540
     15  O         16.1740  -24.5160   -8.1840 O.2     1  UNL1       -0.2680
     16  H         17.7230  -21.7640   -7.8340 H       1  UNL1        0.1630
     17  C         16.2680  -23.1530   -6.2670 C.2     1  UNL1        0.0630
     18  C         15.0770  -23.6360   -5.6920 C.2     1  UNL1        0.0200
     19  C         14.7420  -23.3450   -4.3660 C.2     1  UNL1        0.0030
     20  C         15.5790  -22.5650   -3.5610 C.2     1  UNL1        0.0320
     21  C         16.7600  -22.1000   -4.1450 C.2     1  UNL1        0.0630
     22  N         17.7850  -21.3290   -3.6550 N.pl3   1  UNL1       -0.3490
     23  C         17.1250  -22.3710   -5.4640 C.2     1  UNL1        0.1000
     24  C         18.7100  -21.1670   -4.6490 C.2     1  UNL1        0.2080
     25  H         17.8490  -20.9540   -2.7180 H       1  UNL1        0.1670
     26  N         18.3450  -21.7760   -5.7530 N.2     1  UNL1       -0.2410
     27  C         25.3480  -21.5760  -12.4790 C.2     1  UNL1        0.0630
     28  C         24.9730  -21.8990  -13.7950 C.2     1  UNL1        0.0200
     29  C         25.2210  -21.0110  -14.8450 C.2     1  UNL1        0.0030
     30  C         25.8650  -19.7880  -14.6210 C.2     1  UNL1        0.0320
     31  C         26.2470  -19.5020  -13.3060 C.2     1  UNL1        0.0630
     32  N         26.9000  -18.4280  -12.7550 N.pl3   1  UNL1       -0.3490
     33  C         26.0100  -20.3580  -12.2310 C.2     1  UNL1        0.1000
     34  C         27.0330  -18.6560  -11.4150 C.2     1  UNL1        0.2080
     35  H         27.2310  -17.6140  -13.2540 H       1  UNL1        0.1670
     36  N         26.5050  -19.8070  -11.0670 N.2     1  UNL1       -0.2410
@<TRIPOS>BOND
     1    29    30    2
     2    29    28    1
     3    30    31    1
     4    28    27    2
     5    31    32    1
     6    31    33    2
     7    35    32    1
     8    32    34    1
     9    27    33    1
    10    27     9    1
    11    33    36    1
    12    34    36    2
    13     9    10    2
    14     9     8   am
    15     7     8    1
    16     7     5    2
    17     8    11    1
    18     6     5    1
    19     6     1    2
    20     5     4    1
    21    11     4    2
    22    12     1    1
    23    12    13    1
    24     1     2    1
    25     4     3    1
    26     2     3    2
    27    13    16    1
    28    13    14   am
    29    15    14    2
    30    14    17    1
    31    17    18    2
    32    17    23    1
    33    26    23    1
    34    26    24    2
    35    18    19    1
    36    23    21    2
    37    24    22    1
    38    19    20    2
    39    21    22    1
    40    21    20    1
    41    22    25    1
