@<TRIPOS>MOLECULE
81801_out_ligand_01.pdbqt
 32 35 0 0 0
SMALL
GASTEIGER

@<TRIPOS>ATOM
      1  C         21.6460  -22.9750   -8.7310 C.2     1  UNL1        0.0320
      2  C         21.4530  -22.0110   -7.7390 C.2     1  UNL1        0.0170
      3  C         20.2480  -21.9590   -7.0320 C.2     1  UNL1        0.0110
      4  C         19.2010  -22.8590   -7.3040 C.2     1  UNL1       -0.0210
      5  C         19.4040  -23.8090   -8.3240 C.2     1  UNL1        0.0110
      6  C         20.6110  -23.8650   -9.0330 C.2     1  UNL1        0.0170
      7  C         22.9440  -22.9970   -9.4630 C.2     1  UNL1        0.2560
      8  N         23.0360  -22.0960  -10.5080 N.am    1  UNL1       -0.3230
      9  H         22.1930  -21.5950  -10.7540 H       1  UNL1        0.1690
     10  O         23.7890  -23.8150   -9.1190 O.2     1  UNL1       -0.2670
     11  C         24.1490  -21.8610  -11.3440 C.2     1  UNL1        0.0350
     12  C         25.2820  -21.2940  -10.7460 C.2     1  UNL1        0.0290
     13  C         26.4280  -21.0330  -11.4960 C.2     1  UNL1        0.0030
     14  C         26.4530  -21.3400  -12.8560 C.2     1  UNL1        0.0160
     15  C         25.3360  -21.9150  -13.4790 C.2     1  UNL1        0.0190
     16  C         24.1880  -22.1700  -12.7070 C.2     1  UNL1        0.0450
     17  C         25.3410  -22.2530  -14.9020 C.2     1  UNL1        0.1790
     18  O         26.5340  -22.1070  -15.5690 O.2     1  UNL1       -0.3010
     19  C         26.2510  -22.4830  -16.8460 C.2     1  UNL1        0.1710
     20  C         24.9250  -22.8380  -16.9070 C.2     1  UNL1        0.0560
     21  C         24.1300  -23.3160  -18.0540 C.3     1  UNL1        0.0720
     22  N         24.3560  -22.6880  -15.6640 N.2     1  UNL1       -0.2270
     23  C         17.8990  -22.7770   -6.5100 C.3     1  UNL1        0.1390
     24  C         16.6840  -22.5060   -7.3990 C.3     1  UNL1        0.0540
     25  N         17.9460  -21.8010   -5.4360 N.am    1  UNL1       -0.3210
     26  C         17.7760  -22.3620   -4.1980 C.2     1  UNL1        0.3240
     27  H         17.9980  -20.7990   -5.5530 H       1  UNL1        0.1650
     28  O         17.7230  -21.7380   -3.1540 O.2     1  UNL1       -0.2470
     29  N         17.6530  -23.6990   -4.3390 N.am    1  UNL1       -0.2770
     30  C         17.6530  -24.0470   -5.6550 C.2     1  UNL1        0.2580
     31  H         17.4770  -24.3330   -3.5790 H       1  UNL1        0.1730
     32  O         17.4600  -25.1820   -6.0690 O.2     1  UNL1       -0.2700
@<TRIPOS>BOND
     1    21    20    1
     2    20    19    2
     3    20    22    1
     4    19    18    1
     5    22    17    2
     6    18    17    1
     7    17    15    1
     8    15    14    2
     9    15    16    1
    10    14    13    1
    11    16    11    2
    12    13    12    2
    13    11    12    1
    14    11     8    1
    15     9     8    1
    16     8     7   am
    17     7    10    2
    18     7     1    1
    19     6     1    2
    20     6     5    1
    21     1     2    1
    22     5     4    2
    23     2     3    2
    24    24    23    1
    25     4     3    1
    26     4    23    1
    27    23    30    1
    28    23    25    1
    29    32    30    2
    30    30    29   am
    31    27    25    1
    32    25    26   am
    33    29    26   am
    34    29    31    1
    35    26    28    2
