@<TRIPOS>MOLECULE
81842_out_ligand_01.pdbqt
 35 39 0 0 0
SMALL
GASTEIGER

@<TRIPOS>ATOM
      1  C         21.6370  -23.0070   -9.5840 C.2     1  UNL1        0.0350
      2  C         22.8330  -23.4150   -8.9760 C.2     1  UNL1        0.0290
      3  C         24.0540  -23.3050   -9.6460 C.2     1  UNL1        0.0030
      4  C         24.0920  -22.7840  -10.9360 C.2     1  UNL1        0.0170
      5  C         22.9030  -22.3730  -11.5500 C.2     1  UNL1        0.0340
      6  C         21.6800  -22.4710  -10.8720 C.2     1  UNL1        0.0460
      7  C         22.9240  -21.7980  -12.9190 C.2     1  UNL1        0.2570
      8  O         21.9800  -21.1030  -13.2640 O.2     1  UNL1       -0.2670
      9  N         24.0370  -22.1630  -13.6470 N.am    1  UNL1       -0.3050
     10  H         24.6670  -22.8460  -13.2590 H       1  UNL1        0.1700
     11  C         24.3310  -21.7320  -14.9270 C.ar    1  UNL1        0.1630
     12  N         23.9380  -22.3340  -16.0480 N.ar    1  UNL1       -0.1550
     13  N         24.4420  -21.5860  -17.0350 N.ar    1  UNL1       -0.2750
     14  C         25.1400  -20.4900  -16.6050 C.ar    1  UNL1        0.0670
     15  H         24.2690  -21.8790  -17.9890 H       1  UNL1        0.1890
     16  C         25.7990  -19.4740  -17.3030 C.2     1  UNL1        0.0740
     17  C         25.0880  -20.5540  -15.2150 C.ar    1  UNL1        0.0400
     18  C         26.4230  -18.4930  -16.5350 C.2     1  UNL1        0.1180
     19  F         27.0680  -17.4960  -17.1560 F       1  UNL1       -0.2060
     20  C         26.3970  -18.5170  -15.1450 C.2     1  UNL1        0.0430
     21  C         25.7310  -19.5460  -14.4660 C.2     1  UNL1        0.0210
     22  N         20.4530  -23.1520   -8.8290 N.am    1  UNL1       -0.3230
     23  C         20.1710  -22.5800   -7.6010 C.2     1  UNL1        0.2560
     24  O         20.8570  -21.7580   -7.0070 O.2     1  UNL1       -0.2670
     25  H         19.7070  -23.6670   -9.2780 H       1  UNL1        0.1690
     26  C         18.8640  -22.9790   -7.0010 C.2     1  UNL1        0.0340
     27  C         18.1850  -24.0740   -7.5600 C.2     1  UNL1        0.0190
     28  C         16.9550  -24.5110   -7.0540 C.2     1  UNL1        0.0330
     29  C         16.4400  -23.7960   -5.9720 C.2     1  UNL1        0.0620
     30  N         15.2870  -23.9290   -5.2400 N.pl3   1  UNL1       -0.3490
     31  C         17.0800  -22.7000   -5.4050 C.2     1  UNL1        0.0850
     32  C         15.2770  -22.9460   -4.2900 C.2     1  UNL1        0.2080
     33  H         14.5700  -24.6260   -5.3800 H       1  UNL1        0.1670
     34  N         16.3470  -22.1890   -4.3620 N.2     1  UNL1       -0.2420
     35  C         18.3080  -22.2670   -5.9250 C.2     1  UNL1        0.0510
@<TRIPOS>BOND
     1    15    13    1
     2    16    14    2
     3    16    18    1
     4    19    18    1
     5    13    14   ar
     6    13    12   ar
     7    14    17   ar
     8    18    20    2
     9    12    11   ar
    10    17    11   ar
    11    17    21    2
    12    20    21    1
    13    11     9    1
    14     9    10    1
    15     9     7   am
    16     8     7    2
    17     7     5    1
    18     5     4    2
    19     5     6    1
    20     4     3    1
    21     6     1    2
    22     3     2    2
    23     1     2    1
    24     1    22    1
    25    25    22    1
    26    22    23   am
    27    23    24    2
    28    23    26    1
    29    27    28    1
    30    27    26    2
    31    28    29    2
    32    26    35    1
    33    29    31    1
    34    29    30    1
    35    35    31    2
    36    31    34    1
    37    33    30    1
    38    30    32    1
    39    34    32    2
