@<TRIPOS>MOLECULE
81851_out_ligand_01.pdbqt
 33 36 0 0 0
SMALL
GASTEIGER

@<TRIPOS>ATOM
      1  C         23.3690  -22.3420   -8.6530 C.3     1  UNL1        0.1060
      2  C         23.8840  -22.8360   -9.9920 C.2     1  UNL1        0.2190
      3  N         23.2450  -22.3890  -11.1450 N.am    1  UNL1       -0.3520
      4  C         23.8050  -22.7560  -12.4440 C.3     1  UNL1        0.1250
      5  C         22.0240  -21.5790  -11.1530 C.3     1  UNL1        0.1300
      6  C         23.7400  -21.5840  -13.4140 C.3     1  UNL1        0.0200
      7  C         22.3180  -21.0520  -13.6080 C.3     1  UNL1        0.0080
      8  C         21.3360  -21.5310  -12.5240 C.3     1  UNL1        0.0080
      9  O         24.8710  -23.5740  -10.0290 O.2     1  UNL1       -0.2730
     10  C         20.0740  -20.6490  -12.4470 C.3     1  UNL1        0.0440
     11  C         18.9460  -21.2660  -11.6570 C.2     1  UNL1       -0.0580
     12  C         19.0330  -22.5870  -11.2010 C.2     1  UNL1        0.0070
     13  C         17.9840  -23.1610  -10.4780 C.2     1  UNL1        0.0070
     14  C         16.8320  -22.4220  -10.1940 C.2     1  UNL1       -0.0620
     15  C         15.6970  -23.0230   -9.4190 C.3     1  UNL1        0.0480
     16  C         16.7450  -21.0990  -10.6430 C.2     1  UNL1        0.0070
     17  C         17.7930  -20.5270  -11.3670 C.2     1  UNL1        0.0070
     18  C         21.9660  -22.8870   -8.3780 C.3     1  UNL1        0.0460
     19  C         20.9990  -21.8620   -7.7730 C.3     1  UNL1        0.1510
     20  O         21.6710  -21.0830   -6.7900 O.3     1  UNL1       -0.3910
     21  H         21.3410  -20.1710   -6.8830 H       1  UNL1        0.2100
     22  C         19.7440  -22.5000   -7.2050 C.2     1  UNL1       -0.0290
     23  C         19.3370  -23.7620   -7.6700 C.2     1  UNL1        0.0120
     24  C         18.2150  -24.3960   -7.1300 C.2     1  UNL1        0.0310
     25  C         17.4830  -23.7680   -6.1250 C.2     1  UNL1        0.0410
     26  C         17.8660  -22.5130   -5.6440 C.2     1  UNL1       -0.0300
     27  N         16.3770  -24.4130   -5.5680 N.am    1  UNL1       -0.3270
     28  C         18.9970  -21.8870   -6.1850 C.2     1  UNL1        0.0190
     29  C         17.1330  -21.9190   -4.4740 C.3     1  UNL1        0.0500
     30  C         15.6750  -22.3450   -4.4550 C.3     1  UNL1        0.1080
     31  C         15.5070  -23.8290   -4.6880 C.2     1  UNL1        0.2220
     32  O         14.5820  -24.4690   -4.1950 O.2     1  UNL1       -0.2730
     33  H         16.1700  -25.3740   -5.8110 H       1  UNL1        0.1690
@<TRIPOS>BOND
     1     7     6    1
     2     7     8    1
     3     6     4    1
     4     8    10    1
     5     8     5    1
     6    10    11    1
     7     4     3    1
     8    11    17    2
     9    11    12    1
    10    17    16    1
    11    12    13    2
    12     5     3    1
    13     3     2   am
    14    16    14    2
    15    13    14    1
    16    14    15    1
    17     9     2    2
    18     2     1    1
    19     1    18    1
    20    18    19    1
    21    19    22    1
    22    19    20    1
    23    23    22    2
    24    23    24    1
    25    22    28    1
    26    24    25    2
    27    21    20    1
    28    28    26    2
    29    25    26    1
    30    25    27    1
    31    33    27    1
    32    26    29    1
    33    27    31   am
    34    31    30    1
    35    31    32    2
    36    29    30    1
