@<TRIPOS>MOLECULE
81860_out_ligand_01.pdbqt
 29 32 0 0 0
SMALL
GASTEIGER

@<TRIPOS>ATOM
      1  C         19.6740  -21.7550  -11.1430 C.2     1  UNL1        0.0120
      2  C         18.7090  -21.0380  -11.8580 C.2     1  UNL1        0.0150
      3  C         17.3940  -21.0060  -11.3980 C.2     1  UNL1        0.0030
      4  C         17.0470  -21.6910  -10.2300 C.2     1  UNL1        0.0290
      5  C         18.0050  -22.4180   -9.5080 C.2     1  UNL1        0.0350
      6  C         19.3190  -22.4510   -9.9780 C.2     1  UNL1        0.0440
      7  N         17.5560  -23.0750   -8.3430 N.am    1  UNL1       -0.3270
      8  C         16.3930  -23.8150   -8.1670 C.2     1  UNL1        0.2310
      9  O         15.5580  -24.0110   -9.0560 O.2     1  UNL1       -0.2720
     10  H         18.1680  -23.0010   -7.5390 H       1  UNL1        0.1690
     11  C         16.1790  -24.3980   -6.7390 C.3     1  UNL1        0.1160
     12  C         14.7750  -24.1630   -6.0740 C.3     1  UNL1        0.0580
     13  C         15.5060  -23.3790   -5.0230 C.2     1  UNL1       -0.0500
     14  C         15.3480  -22.6470   -3.8670 C.2     1  UNL1        0.0110
     15  C         16.7390  -23.5860   -5.5960 C.2     1  UNL1       -0.0350
     16  C         16.5030  -22.1170   -3.2850 C.2     1  UNL1        0.0430
     17  C         17.7580  -22.3400   -3.8730 C.2     1  UNL1        0.1170
     18  F         18.8500  -21.8190   -3.2970 F       1  UNL1       -0.2060
     19  C         17.8950  -23.0840   -5.0430 C.2     1  UNL1        0.0500
     20  C         21.0830  -21.8150  -11.6120 C.2     1  UNL1        0.1410
     21  N         21.3310  -21.3270  -12.8720 N.am    1  UNL1       -0.3070
     22  C         22.5850  -21.2930  -13.4040 C.2     1  UNL1        0.2480
     23  H         20.6110  -20.8940  -13.4280 H       1  UNL1        0.1700
     24  C         23.6410  -21.8580  -12.5560 C.2     1  UNL1        0.1010
     25  O         22.8270  -20.8230  -14.5090 O.2     1  UNL1       -0.2680
     26  C         23.3000  -22.3250  -11.3470 C.2     1  UNL1        0.0420
     27  N         22.0160  -22.2960  -10.8540 N.2     1  UNL1       -0.2350
     28  C         24.3410  -22.8980  -10.4140 C.3     1  UNL1        0.0550
     29  C         23.7190  -23.4890   -9.1560 C.3     1  UNL1        0.0110
@<TRIPOS>BOND
     1    25    22    2
     2    23    21    1
     3    22    21   am
     4    22    24    1
     5    21    20    1
     6    24    26    2
     7     2     3    1
     8     2     1    2
     9    20     1    1
    10    20    27    2
    11     3     4    2
    12    26    27    1
    13    26    28    1
    14     1     6    1
    15    28    29    1
    16     4     5    1
    17     6     5    2
    18     5     7    1
    19     9     8    2
    20     7     8   am
    21     7    10    1
    22     8    11    1
    23    11    12    1
    24    11    15    1
    25    12    13    1
    26    15    19    1
    27    15    13    2
    28    19    17    2
    29    13    14    1
    30    17    18    1
    31    17    16    1
    32    14    16    2
