@<TRIPOS>MOLECULE
81861_out_ligand_01.pdbqt
 34 37 0 0 0
SMALL
GASTEIGER

@<TRIPOS>ATOM
      1  C         21.0740  -22.2620  -11.2690 C.2     1  UNL1        0.0340
      2  C         20.5610  -23.1400  -10.3150 C.2     1  UNL1        0.0300
      3  C         19.2280  -23.0390   -9.9010 C.2     1  UNL1        0.0100
      4  C         18.3830  -22.0520  -10.4270 C.2     1  UNL1       -0.0510
      5  C         18.8940  -21.1860  -11.4010 C.2     1  UNL1        0.0100
      6  C         20.2270  -21.2870  -11.8120 C.2     1  UNL1        0.0300
      7  N         22.4020  -22.2890  -11.7390 N.am    1  UNL1       -0.3260
      8  C         23.5370  -21.7950  -11.1150 C.2     1  UNL1        0.2410
      9  O         23.5750  -21.2580  -10.0090 O.2     1  UNL1       -0.2710
     10  H         22.5310  -22.6790  -12.6730 H       1  UNL1        0.1690
     11  C         24.8250  -22.0320  -11.8750 C.3     1  UNL1        0.2480
     12  N         24.6140  -22.1030  -13.3030 N.pl3   1  UNL1       -0.2740
     13  C         25.0340  -23.0540  -14.1810 C.2     1  UNL1        0.1390
     14  C         24.5530  -22.6200  -15.3980 C.2     1  UNL1        0.0970
     15  N         23.8760  -21.4360  -15.2140 N.2     1  UNL1       -0.1600
     16  N         23.9200  -21.1290  -13.9260 N.2     1  UNL1        0.0050
     17  C         24.6500  -23.2450  -16.7490 C.3     1  UNL1        0.1680
     18  C         25.5880  -22.4780  -17.6750 C.3     1  UNL1        0.0460
     19  O         23.3650  -23.3270  -17.3690 O.3     1  UNL1       -0.3900
     20  H         23.4870  -22.9970  -18.2790 H       1  UNL1        0.2100
     21  C         16.9430  -21.9440   -9.9780 C.3     1  UNL1        0.1190
     22  C         16.5840  -22.8790   -8.8720 C.ar    1  UNL1        0.1380
     23  N         15.8220  -23.9520   -8.9810 N.ar    1  UNL1       -0.1340
     24  N         15.7350  -24.5500   -7.7460 N.ar    1  UNL1       -0.1300
     25  C         16.4440  -23.8350   -6.9040 C.ar    1  UNL1        0.1570
     26  C         16.7170  -23.9750   -5.5160 C.2     1  UNL1        0.0540
     27  N         17.0030  -22.7520   -7.5650 N.ar    1  UNL1       -0.2910
     28  C         17.5000  -23.0700   -4.8990 C.2     1  UNL1        0.0210
     29  C         18.0780  -21.9250   -5.6150 C.2     1  UNL1        0.0640
     30  C         17.8050  -21.8030   -6.9320 C.2     1  UNL1        0.1160
     31  C         18.9360  -20.9640   -4.8400 C.3     1  UNL1        0.4180
     32  F         20.1360  -20.7470   -5.4350 F       1  UNL1       -0.1660
     33  F         19.1930  -21.4150   -3.5850 F       1  UNL1       -0.1660
     34  F         18.3370  -19.7510   -4.7130 F       1  UNL1       -0.1660
@<TRIPOS>BOND
     1    20    19    1
     2    18    17    1
     3    19    17    1
     4    17    14    1
     5    14    15    1
     6    14    13    2
     7    15    16    2
     8    13    12    1
     9    16    12    1
    10    12    11    1
    11    10     7    1
    12    11     8    1
    13     6     5    1
    14     6     1    2
    15     7     1    1
    16     7     8   am
    17     5     4    2
    18     1     2    1
    19     8     9    2
    20     4    21    1
    21     4     3    1
    22     2     3    2
    23    21    22    1
    24    23    22   ar
    25    23    24   ar
    26    22    27   ar
    27    24    25   ar
    28    27    30    1
    29    27    25   ar
    30    30    29    2
    31    25    26    1
    32    29    28    1
    33    29    31    1
    34    26    28    2
    35    32    31    1
    36    31    34    1
    37    31    33    1
