@<TRIPOS>MOLECULE
81871_out_ligand_01.pdbqt
 36 41 0 0 0
SMALL
GASTEIGER

@<TRIPOS>ATOM
      1  C         21.0100  -22.1500  -11.2420 C.2     1  UNL1        0.0350
      2  C         20.6670  -21.3410  -12.3350 C.2     1  UNL1        0.0320
      3  C         19.3700  -20.8380  -12.5080 C.2     1  UNL1        0.0340
      4  C         18.4270  -21.1790  -11.5380 C.ar    1  UNL1        0.0640
      5  N         17.1020  -20.8690  -11.4020 N.ar    1  UNL1       -0.2750
      6  N         16.5250  -21.3950  -10.3160 N.ar    1  UNL1       -0.1550
      7  C         17.4970  -22.0770   -9.7120 C.ar    1  UNL1        0.1620
      8  C         18.7220  -21.9760  -10.4400 C.ar    1  UNL1        0.0420
      9  C         20.0350  -22.4710  -10.2900 C.2     1  UNL1        0.0470
     10  H         16.5310  -20.3010  -12.0170 H       1  UNL1        0.1890
     11  N         22.3470  -22.5980  -11.1760 N.am    1  UNL1       -0.3270
     12  C         23.3970  -22.0690  -10.4330 C.2     1  UNL1        0.2310
     13  O         23.2930  -21.0710   -9.7120 O.2     1  UNL1       -0.2720
     14  H         22.5620  -23.4060  -11.7510 H       1  UNL1        0.1690
     15  C         24.7610  -22.8080  -10.5760 C.3     1  UNL1        0.1160
     16  C         26.0530  -21.9150  -10.6010 C.3     1  UNL1        0.0580
     17  C         26.2790  -22.4400  -11.9900 C.2     1  UNL1       -0.0500
     18  C         27.1180  -22.3830  -13.0780 C.2     1  UNL1        0.0110
     19  C         25.1530  -23.2290  -11.9720 C.2     1  UNL1       -0.0350
     20  C         26.7840  -23.1710  -14.1830 C.2     1  UNL1        0.0430
     21  C         25.6360  -23.9780  -14.1540 C.2     1  UNL1        0.1170
     22  F         25.3360  -24.7230  -15.2260 F       1  UNL1       -0.2060
     23  C         24.8010  -24.0210  -13.0400 C.2     1  UNL1        0.0500
     24  N         17.3650  -22.7980   -8.5400 N.am    1  UNL1       -0.3090
     25  C         16.3920  -23.7500   -8.2780 C.2     1  UNL1        0.2320
     26  O         15.4770  -24.0570   -9.0430 O.2     1  UNL1       -0.2720
     27  H         18.0440  -22.5840   -7.8260 H       1  UNL1        0.1700
     28  C         16.5490  -24.3750   -6.8560 C.3     1  UNL1        0.1160
     29  C         15.2870  -24.4710   -5.9170 C.3     1  UNL1        0.0580
     30  C         16.0010  -23.5220   -5.0030 C.2     1  UNL1       -0.0500
     31  C         15.9080  -22.8420   -3.8100 C.2     1  UNL1        0.0110
     32  C         17.0890  -23.4010   -5.8340 C.2     1  UNL1       -0.0350
     33  C         16.9760  -22.0100   -3.4650 C.2     1  UNL1        0.0430
     34  C         18.0830  -21.8900   -4.3200 C.2     1  UNL1        0.1170
     35  F         19.0940  -21.0860   -3.9660 F       1  UNL1       -0.2060
     36  C         18.1550  -22.5890   -5.5230 C.2     1  UNL1        0.0500
@<TRIPOS>BOND
     1    22    21    1
     2    20    21    2
     3    20    18    1
     4    21    23    1
     5    18    17    2
     6    23    19    2
     7     3     2    1
     8     3     4    2
     9     2     1    2
    10    10     5    1
    11    17    19    1
    12    17    16    1
    13    19    15    1
    14    14    11    1
    15     4     5   ar
    16     4     8   ar
    17     5     6   ar
    18     1    11    1
    19     1     9    1
    20    11    12   am
    21    16    15    1
    22    15    12    1
    23     8     9    2
    24     8     7   ar
    25    12    13    2
    26     6     7   ar
    27     7    24    1
    28    26    25    2
    29    24    25   am
    30    24    27    1
    31    25    28    1
    32    28    29    1
    33    28    32    1
    34    29    30    1
    35    32    36    1
    36    32    30    2
    37    36    34    2
    38    30    31    1
    39    34    35    1
    40    34    33    1
    41    31    33    2
