@<TRIPOS>MOLECULE
81882_out_ligand_01.pdbqt
 32 35 0 0 0
SMALL
GASTEIGER

@<TRIPOS>ATOM
      1  C         21.1240  -21.7860  -11.6510 C.2     1  UNL1        0.0320
      2  C         22.0470  -22.5050  -10.8890 C.2     1  UNL1        0.0170
      3  C         23.3480  -22.6990  -11.3600 C.2     1  UNL1        0.0110
      4  C         23.7650  -22.1680  -12.5960 C.2     1  UNL1       -0.0210
      5  C         22.8250  -21.4310  -13.3420 C.2     1  UNL1        0.0110
      6  C         21.5200  -21.2380  -12.8750 C.2     1  UNL1        0.0170
      7  C         19.7470  -21.5980  -11.1150 C.2     1  UNL1        0.2560
      8  N         19.3410  -22.5640  -10.2120 N.am    1  UNL1       -0.3230
      9  H         20.0400  -23.2330   -9.9140 H       1  UNL1        0.1690
     10  O         19.1130  -20.6160  -11.4810 O.2     1  UNL1       -0.2670
     11  C         18.0850  -22.6700   -9.5780 C.2     1  UNL1        0.0350
     12  C         16.8880  -22.9000  -10.2570 C.2     1  UNL1        0.0290
     13  C         15.6850  -23.0000   -9.5540 C.2     1  UNL1        0.0030
     14  C         15.6710  -22.8720   -8.1650 C.2     1  UNL1        0.0160
     15  C         16.8590  -22.6460   -7.4590 C.2     1  UNL1        0.0190
     16  C         18.0610  -22.5470   -8.1810 C.2     1  UNL1        0.0450
     17  C         16.8190  -22.5180   -6.0040 C.2     1  UNL1        0.1790
     18  N         15.8890  -22.9190   -5.1560 N.2     1  UNL1       -0.2340
     19  C         16.3690  -22.5400   -3.9290 C.2     1  UNL1        0.1510
     20  C         17.5850  -21.9160   -4.0740 C.2     1  UNL1        0.0690
     21  C         18.5580  -21.3080   -3.1530 C.3     1  UNL1        0.0780
     22  O         17.8860  -21.8960   -5.4060 O.2     1  UNL1       -0.2950
     23  C         25.1980  -22.3860  -13.0750 C.3     1  UNL1        0.1390
     24  C         26.1990  -22.4700  -11.9200 C.3     1  UNL1        0.0540
     25  N         25.6390  -21.3870  -14.0320 N.am    1  UNL1       -0.3210
     26  C         25.9680  -21.9220  -15.2500 C.2     1  UNL1        0.3240
     27  H         25.8050  -20.4110  -13.8290 H       1  UNL1        0.1650
     28  O         26.4130  -21.2910  -16.1890 O.2     1  UNL1       -0.2470
     29  N         25.7350  -23.2520  -15.2170 N.am    1  UNL1       -0.2770
     30  C         25.3290  -23.6400  -13.9770 C.2     1  UNL1        0.2580
     31  H         25.9310  -23.8780  -15.9780 H       1  UNL1        0.1730
     32  O         25.1300  -24.8030  -13.6510 O.2     1  UNL1       -0.2700
@<TRIPOS>BOND
     1    28    26    2
     2    31    29    1
     3    26    29   am
     4    26    25   am
     5    29    30   am
     6    25    27    1
     7    25    23    1
     8    30    32    2
     9    30    23    1
    10     5     6    1
    11     5     4    2
    12    23     4    1
    13    23    24    1
    14     6     1    2
    15     4     3    1
    16     1     7    1
    17     1     2    1
    18    10     7    2
    19     3     2    2
    20     7     8   am
    21    12    11    2
    22    12    13    1
    23     8     9    1
    24     8    11    1
    25    11    16    1
    26    13    14    2
    27    16    15    2
    28    14    15    1
    29    15    17    1
    30    17    22    1
    31    17    18    2
    32    22    20    1
    33    18    19    1
    34    20    19    2
    35    20    21    1
