@<TRIPOS>MOLECULE
81889_out_ligand_01.pdbqt
 33 36 0 0 0
SMALL
GASTEIGER

@<TRIPOS>ATOM
      1  C         19.9380  -21.6690  -10.8060 C.2     1  UNL1        0.2220
      2  O         20.0810  -20.7100  -11.5620 O.2     1  UNL1       -0.2730
      3  N         20.9470  -22.4450  -10.2720 N.am    1  UNL1       -0.3250
      4  H         20.7070  -23.2090   -9.6510 H       1  UNL1        0.1690
      5  C         18.5580  -22.0820  -10.3300 C.3     1  UNL1        0.1080
      6  C         18.6150  -23.2940   -9.3950 C.3     1  UNL1        0.0500
      7  C         17.8110  -23.1010   -8.1200 C.ar    1  UNL1       -0.0260
      8  C         18.4020  -22.5190   -6.9730 C.ar    1  UNL1       -0.0350
      9  C         17.5850  -22.3980   -5.8550 C.ar    1  UNL1        0.0810
     10  C         19.8140  -22.0180   -6.8940 C.3     1  UNL1        0.0500
     11  C         16.2660  -22.8200   -5.8480 C.ar    1  UNL1        0.1390
     12  C         17.8200  -21.8250   -4.5300 C.ar    1  UNL1        0.2700
     13  N         15.6790  -23.3520   -6.9270 N.ar    1  UNL1       -0.2380
     14  N         15.6480  -22.6060   -4.5780 N.ar    1  UNL1       -0.1800
     15  C         16.4450  -23.4900   -8.0470 C.ar    1  UNL1        0.0390
     16  C         15.7120  -24.0910   -9.2150 C.3     1  UNL1        0.0710
     17  N         16.6010  -21.8210   -3.8750 N.ar    1  UNL1       -0.2790
     18  C         14.3250  -22.0140   -4.7280 C.3     1  UNL1        0.1440
     19  H         16.5940  -21.8520   -2.8600 H       1  UNL1        0.1840
     20  O         18.8910  -21.4550   -4.0880 O.2     1  UNL1       -0.2660
     21  C         22.2990  -22.2640  -10.5080 C.2     1  UNL1        0.0710
     22  C         23.1680  -21.3680   -9.8430 C.2     1  UNL1        0.1690
     23  N         24.4200  -21.4210  -10.3040 N.2     1  UNL1       -0.1830
     24  N         24.3500  -22.3490  -11.2850 N.pl3   1  UNL1       -0.2750
     25  C         23.1030  -22.8920  -11.4260 C.2     1  UNL1        0.1430
     26  C         25.5400  -22.7070  -12.0440 C.3     1  UNL1        0.1890
     27  C         25.2300  -22.8720  -13.5130 C.2     1  UNL1       -0.0380
     28  C         24.8260  -21.7730  -14.2860 C.2     1  UNL1        0.0100
     29  C         24.5540  -21.9290  -15.6470 C.2     1  UNL1        0.0240
     30  C         24.6850  -23.1820  -16.2420 C.2     1  UNL1        0.0340
     31 CL         24.3510  -23.3710  -17.9190 Cl      1  UNL1       -0.0840
     32  C         25.0890  -24.2810  -15.4900 C.2     1  UNL1        0.0240
     33  C         25.3630  -24.1270  -14.1290 C.2     1  UNL1        0.0100
@<TRIPOS>BOND
     1    31    30    1
     2    30    29    2
     3    30    32    1
     4    29    28    1
     5    32    33    2
     6    28    27    2
     7    33    27    1
     8    27    26    1
     9    26    24    1
    10     2     1    2
    11    25    24    1
    12    25    21    2
    13    24    23    1
    14     1     5    1
    15     1     3   am
    16    21     3    1
    17    21    22    1
    18     5     6    1
    19    23    22    2
    20     3     4    1
    21     6     7    1
    22    16    15    1
    23     7    15   ar
    24     7     8   ar
    25    15    13   ar
    26     8    10    1
    27     8     9   ar
    28    13    11   ar
    29     9    11   ar
    30     9    12   ar
    31    11    14   ar
    32    18    14    1
    33    14    17   ar
    34    12    20    2
    35    12    17   ar
    36    17    19    1
