@<TRIPOS>MOLECULE
81883_out_ligand_01.pdbqt
 29 31 0 0 0
SMALL
GASTEIGER

@<TRIPOS>ATOM
      1  C         19.1850  -23.3720   -8.3100 C.2     1  UNL1        0.2530
      2  O         19.5090  -24.5530   -8.3030 O.2     1  UNL1       -0.2680
      3  N         19.3890  -22.5150   -9.3630 N.am    1  UNL1       -0.3480
      4  H         19.0500  -21.5620   -9.3200 H       1  UNL1        0.1630
      5  C         18.6220  -22.7690   -7.0810 C.2     1  UNL1        0.0530
      6  C         19.4040  -21.7610   -6.5030 C.2     1  UNL1        0.0600
      7  C         18.9570  -21.1190   -5.3600 C.2     1  UNL1        0.1180
      8  C         17.7470  -21.4620   -4.7750 C.2     1  UNL1        0.0680
      9  F         19.6990  -20.1480   -4.8140 F       1  UNL1       -0.2060
     10  C         16.9700  -22.4830   -5.3390 C.2     1  UNL1        0.0950
     11  C         17.4030  -23.1570   -6.4950 C.2     1  UNL1        0.0490
     12 BR         16.4220  -24.6210   -7.2270 Br      1  UNL1       -0.0480
     13  S         15.4290  -22.8990   -4.5780 S.O2    1  UNL1        0.2400
     14  O         14.3630  -22.3520   -5.3830 O.2     1  UNL1       -0.2060
     15  O         15.4850  -24.2760   -4.1510 O.2     1  UNL1       -0.2060
     16  N         15.3850  -22.0050   -3.1530 N.3     1  UNL1       -0.2250
     17  H         16.3200  -21.9890   -2.7390 H       1  UNL1        0.1360
     18  H         14.6810  -22.4040   -2.5280 H       1  UNL1        0.1360
     19  C         19.9770  -22.9660  -10.6160 C.3     1  UNL1        0.1180
     20  C         19.3250  -22.2670  -11.8190 C.3     1  UNL1        0.0300
     21  C         19.8620  -20.8500  -11.9970 C.3     1  UNL1        0.0070
     22  C         21.3630  -20.8760  -12.2670 C.3     1  UNL1        0.0390
     23  C         22.1240  -21.7540  -11.3050 C.2     1  UNL1       -0.0500
     24  C         23.5170  -21.5970  -11.2010 C.2     1  UNL1        0.0110
     25  C         21.4800  -22.7630  -10.5600 C.2     1  UNL1       -0.0260
     26  C         24.2620  -22.4180  -10.3550 C.2     1  UNL1        0.0430
     27  C         23.6210  -23.4010   -9.6170 C.2     1  UNL1        0.1170
     28  F         24.3340  -24.1880   -8.8020 F       1  UNL1       -0.2060
     29  C         22.2460  -23.5800   -9.7100 C.2     1  UNL1        0.0520
@<TRIPOS>BOND
     1    22    21    1
     2    22    23    1
     3    21    20    1
     4    20    19    1
     5    23    24    2
     6    23    25    1
     7    24    26    1
     8    19    25    1
     9    19     3    1
    10    25    29    2
    11    26    27    2
    12    29    27    1
    13    27    28    1
    14     3     4    1
    15     3     1   am
    16     1     2    2
    17     1     5    1
    18    12    11    1
    19     5     6    2
    20     5    11    1
    21     6     7    1
    22    11    10    2
    23    14    13    2
    24     7     9    1
    25     7     8    2
    26    10     8    1
    27    10    13    1
    28    13    15    2
    29    13    16    1
    30    16    17    1
    31    16    18    1
