@<TRIPOS>MOLECULE
81888_out_ligand_01.pdbqt
 32 35 0 0 0
SMALL
GASTEIGER

@<TRIPOS>ATOM
      1  C         21.5770  -22.9480   -8.7610 C.2     1  UNL1        0.0320
      2  C         20.5270  -23.8120   -9.0870 C.2     1  UNL1        0.0170
      3  C         19.3200  -23.7480   -8.3820 C.2     1  UNL1        0.0110
      4  C         19.1350  -22.8280   -7.3340 C.2     1  UNL1       -0.0210
      5  C         20.2100  -21.9770   -7.0130 C.2     1  UNL1        0.0110
      6  C         21.4190  -22.0390   -7.7130 C.2     1  UNL1        0.0170
      7  C         22.8810  -22.9870   -9.4820 C.2     1  UNL1        0.2560
      8  N         23.0410  -22.0080  -10.4460 N.am    1  UNL1       -0.3230
      9  H         22.3270  -21.2930  -10.4980 H       1  UNL1        0.1690
     10  O         23.7000  -23.8360   -9.1530 O.2     1  UNL1       -0.2670
     11  C         24.1350  -21.8380  -11.3190 C.2     1  UNL1        0.0350
     12  C         25.3980  -21.4050  -10.9140 C.2     1  UNL1        0.0290
     13  C         26.4370  -21.2890  -11.8390 C.2     1  UNL1        0.0030
     14  C         26.2210  -21.5950  -13.1830 C.2     1  UNL1        0.0150
     15  C         24.9580  -22.0090  -13.6160 C.2     1  UNL1        0.0140
     16  C         23.9290  -22.1440  -12.6710 C.2     1  UNL1        0.0440
     17  C         24.6820  -22.3420  -15.0130 C.2     1  UNL1        0.1630
     18  N         24.2540  -21.4890  -15.9290 N.2     1  UNL1       -0.1300
     19  N         24.1210  -22.1550  -17.1240 N.2     1  UNL1       -0.1430
     20  C         24.4960  -23.3940  -16.9270 C.2     1  UNL1        0.2350
     21  N         24.8710  -23.5570  -15.6280 N.pl3   1  UNL1       -0.3270
     22  C         25.4370  -24.7580  -15.0750 C.3     1  UNL1        0.1590
     23  C         17.8340  -22.7440   -6.5380 C.3     1  UNL1        0.1390
     24  C         16.6240  -22.4330   -7.4220 C.3     1  UNL1        0.0540
     25  N         17.8960  -21.7950   -5.4420 N.am    1  UNL1       -0.3210
     26  C         17.6980  -22.3800   -4.2180 C.2     1  UNL1        0.3240
     27  H         17.9580  -20.7910   -5.5350 H       1  UNL1        0.1650
     28  O         17.6440  -21.7800   -3.1600 O.2     1  UNL1       -0.2470
     29  N         17.5550  -23.7110   -4.3910 N.am    1  UNL1       -0.2770
     30  C         17.5670  -24.0300   -5.7140 C.2     1  UNL1        0.2580
     31  H         17.3620  -24.3590   -3.6470 H       1  UNL1        0.1730
     32  O         17.3710  -25.1550   -6.1530 O.2     1  UNL1       -0.2700
@<TRIPOS>BOND
     1    19    20    2
     2    19    18    1
     3    20    21    1
     4    18    17    2
     5    21    22    1
     6    21    17    1
     7    17    15    1
     8    15    14    2
     9    15    16    1
    10    14    13    1
    11    16    11    2
    12    13    12    2
    13    11    12    1
    14    11     8    1
    15     9     8    1
    16     8     7   am
    17     7    10    2
    18     7     1    1
    19     2     1    2
    20     2     3    1
    21     1     6    1
    22     3     4    2
    23     6     5    2
    24    24    23    1
    25     4     5    1
    26     4    23    1
    27    23    30    1
    28    23    25    1
    29    32    30    2
    30    30    29   am
    31    27    25    1
    32    25    26   am
    33    29    26   am
    34    29    31    1
    35    26    28    2
