@<TRIPOS>MOLECULE
81899_out_ligand_01.pdbqt
 30 33 0 0 0
SMALL
GASTEIGER

@<TRIPOS>ATOM
      1  C         18.6980  -22.3620  -10.6450 C.2     1  UNL1       -0.0240
      2  C         18.4020  -21.0960  -11.1710 C.2     1  UNL1        0.0090
      3  C         19.3880  -20.3440  -11.8030 C.2     1  UNL1        0.0030
      4  C         20.6830  -20.8510  -11.9190 C.2     1  UNL1        0.0290
      5  C         21.0050  -22.1130  -11.4070 C.2     1  UNL1        0.0350
      6  C         20.0080  -22.8610  -10.7760 C.2     1  UNL1        0.0380
      7  C         17.6350  -23.2040   -9.9490 C.3     1  UNL1        0.2500
      8  C         16.2900  -22.4660   -9.9770 C.3     1  UNL1        0.0480
      9  N         18.0430  -23.4960   -8.5680 N.3     1  UNL1        0.1010
     10  H         17.4560  -24.2460   -8.1960 H       1  UNL1        0.3170
     11  C         17.9480  -22.3450   -7.6680 C.3     1  UNL1        0.2570
     12  C         19.3520  -22.1220   -7.0430 C.3     1  UNL1        0.0410
     13  C         19.3050  -21.1510   -5.8460 C.3     1  UNL1        0.0080
     14  C         18.4310  -21.6950   -4.7000 C.3     1  UNL1        0.0590
     15  C         17.1800  -22.2710   -5.2580 C.2     1  UNL1        0.0400
     16  C         16.9450  -22.5880   -6.5830 C.2     1  UNL1        0.0180
     17  N         16.0520  -22.6080   -4.5690 N.pl3   1  UNL1       -0.2780
     18  C         15.6240  -23.0810   -6.5870 C.2     1  UNL1        0.1500
     19  N         15.0800  -23.0940   -5.3660 N.2     1  UNL1       -0.1840
     20  C         15.8060  -22.4810   -3.1530 C.3     1  UNL1        0.1790
     21  N         22.3340  -22.5560  -11.5760 N.am    1  UNL1       -0.3230
     22  C         23.4390  -22.2130  -10.8180 C.2     1  UNL1        0.2560
     23  O         23.4770  -21.4090   -9.8950 O.2     1  UNL1       -0.2670
     24  H         22.4980  -23.1400  -12.3870 H       1  UNL1        0.1690
     25  C         24.7060  -22.8860  -11.2220 C.2     1  UNL1        0.0320
     26  C         25.7220  -23.1600  -10.2970 C.2     1  UNL1        0.0170
     27  C         26.8970  -23.7890  -10.7180 C.2     1  UNL1        0.0010
     28  C         27.0630  -24.1340  -12.0590 C.2     1  UNL1        0.0000
     29  C         26.0620  -23.8450  -12.9860 C.2     1  UNL1        0.0010
     30  C         24.8870  -23.2160  -12.5700 C.2     1  UNL1        0.0170
@<TRIPOS>BOND
     1    29    30    1
     2    29    28    2
     3    30    25    2
     4    24    21    1
     5    28    27    1
     6     4     3    2
     7     4     5    1
     8     3     2    1
     9    21     5    1
    10    21    22   am
    11     5     6    2
    12    25    22    1
    13    25    26    1
    14     2     1    2
    15    22    23    2
    16     6     1    1
    17    27    26    2
    18     1     7    1
    19     8     7    1
    20     7     9    1
    21     9    10    1
    22     9    11    1
    23    11    12    1
    24    11    16    1
    25    12    13    1
    26    18    16    1
    27    18    19    2
    28    16    15    2
    29    13    14    1
    30    19    17    1
    31    15    14    1
    32    15    17    1
    33    17    20    1
