@<TRIPOS>MOLECULE
81917_out_ligand_01.pdbqt
 28 31 0 0 0
SMALL
GASTEIGER

@<TRIPOS>ATOM
      1  C         21.3630  -22.6480  -10.3760 C.2     1  UNL1        0.0320
      2  C         20.5440  -22.0030  -11.3100 C.2     1  UNL1        0.0180
      3  C         19.1800  -21.8380  -11.0480 C.2     1  UNL1        0.0190
      4  C         18.6330  -22.3000   -9.8440 C.2     1  UNL1        0.0450
      5  C         19.4530  -22.9250   -8.8960 C.2     1  UNL1       -0.0380
      6  C         20.8160  -23.1030   -9.1670 C.2     1  UNL1        0.0250
      7  C         18.8360  -23.4290   -7.6240 C.3     1  UNL1        0.0770
      8  C         17.6780  -22.5010   -7.2590 C.3     1  UNL1        0.1690
      9  O         16.7320  -22.4250   -8.3470 O.3     1  UNL1       -0.3070
     10  C         17.1730  -22.1490   -9.6000 C.2     1  UNL1        0.2940
     11  O         16.4140  -21.8190  -10.5010 O.2     1  UNL1       -0.2590
     12  C         22.8220  -22.8480  -10.6100 C.2     1  UNL1        0.2510
     13  O         23.5280  -23.3110   -9.7210 O.2     1  UNL1       -0.2680
     14  N         23.2880  -22.5380  -11.8690 N.am    1  UNL1       -0.3510
     15  H         22.6260  -22.4620  -12.6280 H       1  UNL1        0.1630
     16  C         24.6590  -22.7890  -12.2450 C.3     1  UNL1        0.1790
     17  C         25.4110  -21.5130  -12.1380 C.2     1  UNL1        0.0260
     18  C         25.9910  -20.8750  -11.0600 C.2     1  UNL1        0.0280
     19  C         26.5870  -19.6830  -11.5390 C.2     1  UNL1        0.0190
     20  C         26.3580  -19.6250  -12.8960 C.2     1  UNL1        0.0880
     21  N         25.6480  -20.7400  -13.2530 N.pl3   1  UNL1       -0.3680
     22  H         25.3110  -20.9640  -14.1840 H       1  UNL1        0.1650
     23  C         16.9740  -22.9860   -6.0070 C.2     1  UNL1       -0.0290
     24  C         17.6740  -23.2040   -4.8100 C.2     1  UNL1        0.0100
     25  C         17.0030  -23.6230   -3.6600 C.2     1  UNL1        0.0010
     26  C         15.6260  -23.8240   -3.6890 C.2     1  UNL1        0.0000
     27  C         14.9160  -23.6080   -4.8680 C.2     1  UNL1        0.0010
     28  C         15.5850  -23.1890   -6.0210 C.2     1  UNL1        0.0100
@<TRIPOS>BOND
     1    22    21    1
     2    21    20    1
     3    21    17    1
     4    20    19    2
     5    15    14    1
     6    16    17    1
     7    16    14    1
     8    17    18    2
     9    14    12   am
    10    19    18    1
    11     2     3    1
    12     2     1    2
    13     3     4    2
    14    12     1    1
    15    12    13    2
    16    11    10    2
    17     1     6    1
    18     4    10    1
    19     4     5    1
    20    10     9    1
    21     6     5    2
    22     5     7    1
    23     9     8    1
    24     7     8    1
    25     8    23    1
    26    28    23    2
    27    28    27    1
    28    23    24    1
    29    27    26    2
    30    24    25    2
    31    26    25    1
