@<TRIPOS>MOLECULE
81946_out_ligand_01.pdbqt
 31 34 0 0 0
SMALL
GASTEIGER

@<TRIPOS>ATOM
      1  C         19.8190  -21.6170  -10.7240 C.2     1  UNL1        0.0360
      2  C         18.9610  -21.1390  -11.7230 C.2     1  UNL1        0.0320
      3  C         17.5770  -21.2560  -11.5850 C.2     1  UNL1        0.0450
      4  C         17.0480  -21.8500  -10.4450 C.2     1  UNL1        0.1300
      5  F         15.7140  -21.9500  -10.3410 F       1  UNL1       -0.2050
      6  C         17.8760  -22.3320   -9.4300 C.2     1  UNL1        0.0530
      7  C         19.2690  -22.2200   -9.5860 C.2     1  UNL1        0.0480
      8  N         21.2000  -21.4600  -10.9430 N.am    1  UNL1       -0.3220
      9  C         22.2130  -22.3710  -10.7100 C.2     1  UNL1        0.2770
     10  O         22.0920  -23.4900  -10.2280 O.2     1  UNL1       -0.2660
     11  H         21.5130  -20.5660  -11.3130 H       1  UNL1        0.1690
     12  C         23.5190  -21.8450  -11.0920 C.2     1  UNL1        0.1590
     13  C         24.0910  -21.8340  -12.3480 C.2     1  UNL1        0.1460
     14  N         25.2990  -21.2390  -12.1550 N.pl3   1  UNL1       -0.2810
     15  N         25.4780  -20.8920  -10.8670 N.2     1  UNL1        0.0050
     16  N         24.3930  -21.2620  -10.2010 N.2     1  UNL1       -0.1530
     17  C         26.3200  -20.9570  -13.1390 C.3     1  UNL1        0.1750
     18  C         26.4530  -19.4630  -13.4500 C.3     1  UNL1        0.2880
     19  N         26.7560  -18.6220  -12.2900 N.3     1  UNL1        0.0790
     20  H         25.9550  -18.0130  -12.0950 H       1  UNL1        0.3120
     21  H         27.5200  -17.9820  -12.5100 H       1  UNL1        0.3120
     22  C         17.3360  -22.9900   -8.2450 C.ar    1  UNL1        0.1670
     23  N         16.3000  -23.8070   -8.2460 N.ar    1  UNL1       -0.1290
     24  N         16.0700  -24.2250   -6.9630 N.ar    1  UNL1       -0.1340
     25  C         16.9800  -23.6840   -6.1810 C.ar    1  UNL1        0.1300
     26  N         17.8190  -22.9170   -6.9560 N.ar    1  UNL1       -0.3160
     27  C         17.0380  -23.8820   -4.7030 C.3     1  UNL1        0.0810
     28  C         19.0340  -22.2850   -6.5040 C.3     1  UNL1        0.1320
     29  C         18.8100  -21.1650   -5.4930 C.3     1  UNL1        0.0200
     30  C         17.9440  -21.5270   -4.2820 C.3     1  UNL1        0.0020
     31  C         17.9960  -23.0040   -3.9000 C.3     1  UNL1        0.0080
@<TRIPOS>BOND
     1    18    17    1
     2    18    19    1
     3    17    14    1
     4    21    19    1
     5    13    14    1
     6    13    12    2
     7    19    20    1
     8    14    15    1
     9     2     3    1
    10     2     1    2
    11     3     4    2
    12    11     8    1
    13    12     9    1
    14    12    16    1
    15     8     1    1
    16     8     9   am
    17    15    16    2
    18     1     7    1
    19     9    10    2
    20     4     5    1
    21     4     6    1
    22     7     6    2
    23     6    22    1
    24    23    22   ar
    25    23    24   ar
    26    22    26   ar
    27    24    25   ar
    28    26    28    1
    29    26    25   ar
    30    28    29    1
    31    25    27    1
    32    29    30    1
    33    27    31    1
    34    30    31    1
