@<TRIPOS>MOLECULE
81944_out_ligand_01.pdbqt
 28 30 0 0 0
SMALL
GASTEIGER

@<TRIPOS>ATOM
      1  C         21.4160  -22.1890   -8.4060 C.2     1  UNL1        0.2580
      2  O         22.3530  -21.9320   -7.6540 O.2     1  UNL1       -0.2670
      3  N         21.4240  -22.0740   -9.8030 N.am    1  UNL1       -0.3090
      4  C         20.1810  -21.9550  -10.5770 C.3     1  UNL1        0.1590
      5  C         20.3570  -20.9750  -11.7220 C.3     1  UNL1        0.1960
      6  O         21.3710  -21.4310  -12.6150 O.2     1  UNL1       -0.3460
      7  C         22.5550  -21.7110  -11.9700 C.2     1  UNL1        0.1100
      8  C         22.6290  -22.0030  -10.5880 C.2     1  UNL1        0.0710
      9  C         23.8920  -22.2770  -10.0470 C.2     1  UNL1        0.0330
     10  C         25.0400  -22.2620  -10.8430 C.2     1  UNL1        0.0030
     11  C         24.9460  -21.9860  -12.2020 C.2     1  UNL1        0.0190
     12  C         23.7010  -21.7110  -12.7850 C.2     1  UNL1        0.0830
     13  C         20.1640  -22.6370   -7.7480 C.2     1  UNL1        0.0320
     14  C         19.6020  -23.8810   -8.0530 C.2     1  UNL1        0.0170
     15  C         18.4310  -24.2860   -7.4100 C.2     1  UNL1        0.0100
     16  C         17.8290  -23.4680   -6.4410 C.2     1  UNL1       -0.0400
     17  C         18.4140  -22.2310   -6.1290 C.2     1  UNL1        0.0100
     18  C         19.5830  -21.8220   -6.7730 C.2     1  UNL1        0.0170
     19  C         16.5550  -23.9090   -5.7640 C.3     1  UNL1        0.1610
     20  N         15.4710  -23.0040   -6.0740 N.am    1  UNL1       -0.3570
     21  C         14.8030  -22.3130   -5.0910 C.2     1  UNL1        0.2130
     22  C         13.6530  -21.4800   -5.5930 C.3     1  UNL1        0.1170
     23  O         15.1120  -22.3420   -3.9040 O.2     1  UNL1       -0.2740
     24  H         15.0790  -23.0450   -7.0040 H       1  UNL1        0.1620
     25  C         23.5970  -21.4100  -14.2570 C.3     1  UNL1        0.4200
     26  F         22.9640  -20.2320  -14.5210 F       1  UNL1       -0.1660
     27  F         24.8160  -21.3030  -14.8660 F       1  UNL1       -0.1660
     28  F         22.9310  -22.3690  -14.9590 F       1  UNL1       -0.1660
@<TRIPOS>BOND
     1    28    25    1
     2    27    25    1
     3    26    25    1
     4    25    12    1
     5    12    11    1
     6    12     7    2
     7     6     7    1
     8     6     5    1
     9    11    10    2
    10     7     8    1
    11     5     4    1
    12    10     9    1
    13     8     9    2
    14     8     3    1
    15     4     3    1
    16     3     1   am
    17     1    13    1
    18     1     2    2
    19    14    13    2
    20    14    15    1
    21    13    18    1
    22    15    16    2
    23    24    20    1
    24    18    17    2
    25    16    17    1
    26    16    19    1
    27    20    19    1
    28    20    21   am
    29    22    21    1
    30    21    23    2
