@<TRIPOS>MOLECULE
81957_out_ligand_01.pdbqt
 31 34 0 0 0
SMALL
GASTEIGER

@<TRIPOS>ATOM
      1  N         17.7090  -23.4640   -9.2080 N.am    1  UNL1       -0.3430
      2  C         18.9590  -23.6470   -8.6720 C.2     1  UNL1        0.3180
      3  O         19.1190  -24.2510   -7.6130 O.2     1  UNL1       -0.2470
      4  N         20.0050  -23.1100   -9.4020 N.am    1  UNL1       -0.3300
      5  C         21.3280  -23.0880   -8.7930 C.3     1  UNL1        0.1320
      6  C         22.4150  -23.4700   -9.7930 C.3     1  UNL1        0.0600
      7  C         22.3390  -22.6320  -11.0490 C.2     1  UNL1       -0.0330
      8  C         21.0940  -22.0780  -11.4180 C.2     1  UNL1       -0.0330
      9  C         21.0020  -21.2940  -12.5810 C.2     1  UNL1        0.0090
     10  C         22.1180  -21.0740  -13.3840 C.2     1  UNL1        0.0020
     11  C         23.3420  -21.6410  -13.0390 C.2     1  UNL1        0.0170
     12  C         23.4600  -22.4190  -11.8770 C.2     1  UNL1        0.0380
     13  C         19.8360  -22.3100  -10.6090 C.3     1  UNL1        0.1660
     14  H         17.5810  -22.6310   -9.7590 H       1  UNL1        0.1640
     15  C         16.5240  -23.8920   -8.4810 C.3     1  UNL1        0.1290
     16  C         15.8160  -22.7440   -7.7470 C.3     1  UNL1        0.0620
     17  C         16.0370  -22.7850   -6.2660 C.ar    1  UNL1       -0.0140
     18  C         17.0940  -22.1520   -5.5400 C.ar    1  UNL1        0.0060
     19  C         18.2130  -21.3640   -5.8720 C.2     1  UNL1        0.0150
     20  C         16.8620  -22.4310   -4.1990 C.ar    1  UNL1        0.0860
     21  C         19.0390  -20.8920   -4.8410 C.2     1  UNL1        0.0010
     22  C         18.7670  -21.1950   -3.5050 C.2     1  UNL1        0.0030
     23  C         17.6630  -21.9790   -3.1530 C.2     1  UNL1        0.0380
     24  O         15.7470  -23.1970   -4.0650 O.2     1  UNL1       -0.3140
     25  C         15.2540  -23.4190   -5.3150 C.ar    1  UNL1        0.0570
     26  C         14.0260  -24.2390   -5.3890 C.3     1  UNL1        0.0770
     27  C         24.7820  -23.0310  -11.5690 C.2     1  UNL1        0.2490
     28  N         25.1460  -24.1020  -12.3390 N.am    1  UNL1       -0.3660
     29  H         24.6710  -24.3270  -13.2010 H       1  UNL1        0.1590
     30  H         26.0910  -24.4440  -12.2130 H       1  UNL1        0.1590
     31  O         25.5220  -22.6000  -10.6970 O.2     1  UNL1       -0.2680
@<TRIPOS>BOND
     1    10    11    2
     2    10     9    1
     3    29    28    1
     4    11    12    1
     5     9     8    2
     6    28    30    1
     7    28    27   am
     8    12    27    1
     9    12     7    2
    10    27    31    2
    11     8     7    1
    12     8    13    1
    13     7     6    1
    14    13     4    1
    15     6     5    1
    16    14     1    1
    17     4     5    1
    18     4     2   am
    19     1     2   am
    20     1    15    1
    21     2     3    2
    22    15    16    1
    23    16    17    1
    24    17    18   ar
    25    17    25   ar
    26    19    18    2
    27    19    21    1
    28    18    20   ar
    29    26    25    1
    30    25    24   ar
    31    21    22    2
    32    20    24   ar
    33    20    23    2
    34    22    23    1
