@<TRIPOS>MOLECULE
81952_out_ligand_01.pdbqt
 30 32 0 0 0
SMALL
GASTEIGER

@<TRIPOS>ATOM
      1  C         17.5380  -22.4150  -10.0870 C.2     1  UNL1       -0.0400
      2  C         18.6340  -23.1870   -9.6770 C.2     1  UNL1        0.0100
      3  C         19.8940  -22.9870  -10.2450 C.2     1  UNL1        0.0170
      4  C         20.0770  -21.9980  -11.2170 C.2     1  UNL1        0.0320
      5  C         18.9850  -21.2270  -11.6380 C.2     1  UNL1        0.0170
      6  C         17.7250  -21.4310  -11.0680 C.2     1  UNL1        0.0100
      7  C         16.1870  -22.6220   -9.4490 C.3     1  UNL1        0.1610
      8  N         16.2590  -22.3900   -8.0280 N.am    1  UNL1       -0.3560
      9  C         16.3460  -23.4210   -7.1230 C.2     1  UNL1        0.2380
     10  O         16.2700  -24.6070   -7.4130 O.2     1  UNL1       -0.2720
     11  H         16.3980  -21.4450   -7.6950 H       1  UNL1        0.1620
     12  C         16.5750  -22.9800   -5.7090 C.3     1  UNL1        0.1330
     13  C         17.5840  -23.7800   -4.8770 C.3     1  UNL1        0.0410
     14  C         17.9640  -22.3970   -5.3280 C.3     1  UNL1       -0.0200
     15  C         18.0490  -21.3170   -4.2750 C.3     1  UNL1        0.0160
     16  C         19.0420  -22.2850   -6.3800 C.3     1  UNL1        0.0160
     17  C         15.3630  -22.4900   -5.0020 C.2     1  UNL1        0.1590
     18  O         15.1320  -22.6410   -3.8150 O.2     1  UNL1       -0.6490
     19  O         14.5110  -21.8150   -5.8060 O.3     1  UNL1       -0.7750
     20  H         14.5530  -22.3210   -6.6450 H       1  UNL1        0.1670
     21  C         21.4360  -21.8150  -11.7970 C.2     1  UNL1        0.2560
     22  O         21.5520  -21.1600  -12.8260 O.2     1  UNL1       -0.2670
     23  N         22.4550  -22.4530  -11.1140 N.am    1  UNL1       -0.3220
     24  H         22.1930  -23.0630  -10.3520 H       1  UNL1        0.1690
     25  C         23.8310  -22.4150  -11.4310 C.2     1  UNL1        0.0520
     26  C         24.6350  -21.5200  -10.7200 C.2     1  UNL1        0.0320
     27  C         25.9990  -21.4360  -10.9970 C.2     1  UNL1        0.0210
     28  C         26.5200  -22.2540  -11.9840 C.2     1  UNL1        0.1160
     29  N         25.7800  -23.1270  -12.6950 N.2     1  UNL1       -0.2710
     30  C         24.4530  -23.1910  -12.4050 C.2     1  UNL1        0.1450
@<TRIPOS>BOND
     1    22    21    2
     2    29    30    1
     3    29    28    2
     4    30    25    2
     5    28    27    1
     6    21     4    1
     7    21    23   am
     8     5     4    2
     9     5     6    1
    10    25    23    1
    11    25    26    1
    12     4     3    1
    13    23    24    1
    14     6     1    2
    15    27    26    2
    16     3     2    2
    17     1     2    1
    18     1     7    1
    19     7     8    1
    20     8    11    1
    21     8     9   am
    22    10     9    2
    23     9    12    1
    24    20    19    1
    25    16    14    1
    26    19    17    1
    27    12    14    1
    28    12    17    1
    29    12    13    1
    30    14    13    1
    31    14    15    1
    32    17    18    2
