@<TRIPOS>MOLECULE
81978_out_ligand_01.pdbqt
 30 34 0 0 0
SMALL
GASTEIGER

@<TRIPOS>ATOM
      1  C         22.6450  -21.7640   -8.1700 C.3     1  UNL1        0.0170
      2  C         22.7650  -22.7760   -9.3290 C.3     1  UNL1       -0.0160
      3  C         23.5540  -24.0020   -8.8140 C.3     1  UNL1        0.0170
      4  C         21.3480  -23.2810   -9.7340 C.3     1  UNL1        0.0700
      5  C         20.5900  -22.3560  -10.6320 C.2     1  UNL1        0.0470
      6  C         21.0380  -21.7760  -11.8120 C.2     1  UNL1        0.0140
      7  C         20.0320  -20.8460  -12.1350 C.3     1  UNL1        0.1500
      8  N         19.0320  -20.8430  -11.2590 N.3     1  UNL1       -0.1790
      9  N         19.2940  -21.8940  -10.4320 N.pl3   1  UNL1       -0.2350
     10  C         22.3220  -21.9750  -12.5600 C.3     1  UNL1        0.3150
     11  N         23.3120  -22.7360  -11.7740 N.3     1  UNL1        0.0990
     12  C         23.5730  -22.1010  -10.4780 C.3     1  UNL1        0.2820
     13  C         24.5360  -22.9980  -12.5610 C.3     1  UNL1        0.3390
     14  C         24.8780  -21.9920  -13.6380 C.ar    1  UNL1        0.1040
     15  N         25.3960  -20.7970  -13.4070 N.ar    1  UNL1       -0.2480
     16  C         25.5750  -20.1400  -14.6030 C.ar    1  UNL1        0.0520
     17  C         25.1700  -20.8250  -15.7280 C.ar    1  UNL1        0.0370
     18  C         26.1360  -18.7620  -14.6840 C.3     1  UNL1        0.0900
     19  S         24.5550  -22.3470  -15.3010 S.2     1  UNL1       -0.0740
     20  C         25.2870  -20.3080  -17.1210 C.3     1  UNL1        0.3170
     21  N         25.4620  -18.8390  -17.1240 N.3     1  UNL1        0.0880
     22  C         26.4980  -18.4240  -16.1490 C.3     1  UNL1        0.2760
     23  H         24.5730  -18.4180  -16.8480 H       1  UNL1        0.3160
     24  C         18.2760  -22.3260   -9.5420 C.2     1  UNL1        0.0970
     25  C         17.1150  -22.9160  -10.0730 C.2     1  UNL1        0.0350
     26  C         16.0910  -23.3540   -9.2280 C.2     1  UNL1        0.0020
     27  C         16.2230  -23.2280   -7.8470 C.2     1  UNL1        0.0030
     28  C         17.3880  -22.6810   -7.3120 C.2     1  UNL1        0.0450
     29  C         18.4110  -22.2430   -8.1570 C.2     1  UNL1        0.1450
     30  F         19.5460  -21.8290   -7.5790 F       1  UNL1       -0.2040
@<TRIPOS>BOND
     1    21    20    1
     2    21    23    1
     3    21    22    1
     4    20    17    1
     5    22    18    1
     6    17    19   ar
     7    17    16   ar
     8    19    14   ar
     9    18    16    1
    10    16    15   ar
    11    14    15   ar
    12    14    13    1
    13    13    11    1
    14    10     6    1
    15    10    11    1
    16     7     6    1
    17     7     8    1
    18     6     5    2
    19    11    12    1
    20     8     9    1
    21     5     9    1
    22     5     4    1
    23    12     2    1
    24     9    24    1
    25    25    24    2
    26    25    26    1
    27     4     2    1
    28    24    29    1
    29     2     3    1
    30     2     1    1
    31    26    27    2
    32    29    30    1
    33    29    28    2
    34    27    28    1
