@<TRIPOS>MOLECULE
81983_out_ligand_01.pdbqt
 22 25 0 0 0
SMALL
GASTEIGER

@<TRIPOS>ATOM
      1  C         22.2750  -23.0820   -8.8670 C.2     1  UNL1       -0.0290
      2  C         21.8170  -22.0700   -8.0120 C.2     1  UNL1        0.0110
      3  C         20.5590  -22.1600   -7.4060 C.2     1  UNL1        0.0130
      4  C         19.7280  -23.2610   -7.6460 C.2     1  UNL1       -0.0230
      5  C         20.1800  -24.2720   -8.5030 C.2     1  UNL1        0.0130
      6  C         21.4390  -24.1810   -9.1070 C.2     1  UNL1        0.0110
      7  C         18.4140  -23.3530   -7.0000 C.2     1  UNL1        0.0090
      8  C         17.3330  -24.2660   -7.5010 C.2     1  UNL1        0.1320
      9  N         16.1510  -24.4300   -6.9830 N.2     1  UNL1       -0.2400
     10  C         15.8840  -23.6800   -5.8710 C.2     1  UNL1        0.1510
     11  C         14.7680  -23.5890   -5.0730 C.2     1  UNL1        0.0730
     12  N         16.8230  -22.7970   -5.3280 N.pl3   1  UNL1       -0.2260
     13  C         15.1020  -22.6490   -4.0880 C.2     1  UNL1        0.1430
     14  N         16.3370  -22.1650   -4.2290 N.2     1  UNL1       -0.1790
     15  C         18.0780  -22.6500   -5.9040 C.2     1  UNL1        0.1340
     16  C         23.6260  -22.9590   -9.5380 C.3     1  UNL1        0.1550
     17  O         24.4550  -24.0500   -9.1390 O.3     1  UNL1       -0.3910
     18  H         25.3720  -23.7290   -9.1450 H       1  UNL1        0.2100
     19  C         23.4610  -22.9880  -11.0520 C.3     1  UNL1        0.0190
     20  C         22.3840  -22.0530  -11.6750 C.3     1  UNL1        0.0070
     21  C         23.3570  -21.8360  -12.8510 C.3     1  UNL1        0.0010
     22  C         24.5000  -22.1680  -11.8690 C.3     1  UNL1        0.0070
@<TRIPOS>BOND
     1    21    22    1
     2    21    20    1
     3    22    19    1
     4    20    19    1
     5    19    16    1
     6    16    17    1
     7    16     1    1
     8    18    17    1
     9     6     1    2
    10     6     5    1
    11     1     2    1
    12     5     4    2
    13     2     3    2
    14     4     3    1
    15     4     7    1
    16     8     7    1
    17     8     9    2
    18     7    15    2
    19     9    10    1
    20    15    12    1
    21    10    12    1
    22    10    11    2
    23    12    14    1
    24    11    13    1
    25    14    13    2
