@<TRIPOS>MOLECULE
81996_out_ligand_01.pdbqt
 27 30 0 0 0
SMALL
GASTEIGER

@<TRIPOS>ATOM
      1  C         18.0790  -22.6640   -5.6430 C.2     1  UNL1        0.0380
      2  C         17.1690  -23.7270   -5.6880 C.2     1  UNL1        0.0170
      3  C         17.1860  -24.6210   -6.7560 C.2     1  UNL1        0.0020
      4  C         18.1140  -24.4540   -7.7810 C.2     1  UNL1        0.0090
      5  C         19.0500  -23.4050   -7.7450 C.2     1  UNL1       -0.0330
      6  C         19.0530  -22.5110   -6.6520 C.2     1  UNL1       -0.0330
      7  C         20.0980  -21.4220   -6.6030 C.3     1  UNL1        0.0600
      8  C         21.3310  -21.7690   -7.4320 C.3     1  UNL1        0.1310
      9  N         20.9560  -22.1580   -8.7870 N.am    1  UNL1       -0.3470
     10  C         21.8000  -21.7750   -9.8330 C.2     1  UNL1        0.2290
     11  O         22.7730  -21.0400   -9.6300 O.2     1  UNL1       -0.2730
     12  C         20.0470  -23.2970   -8.8800 C.3     1  UNL1        0.1650
     13  C         21.4720  -22.2690  -11.2640 C.3     1  UNL1        0.1150
     14  C         22.7140  -22.3840  -12.1400 C.2     1  UNL1       -0.0450
     15  C         23.7570  -23.2680  -11.8190 C.2     1  UNL1        0.0080
     16  C         24.8870  -23.3590  -12.6330 C.2     1  UNL1        0.0010
     17  C         24.9940  -22.5630  -13.7710 C.2     1  UNL1        0.0000
     18  C         23.9750  -21.6690  -14.0930 C.2     1  UNL1        0.0010
     19  C         22.8440  -21.5760  -13.2810 C.2     1  UNL1        0.0080
     20  C         20.4690  -21.3670  -11.9630 C.3     1  UNL1        0.0030
     21  C         19.6110  -20.4150  -11.1620 C.3     1  UNL1        0.0060
     22  C         18.9820  -21.6050  -11.8290 C.3     1  UNL1        0.0060
     23  C         17.9550  -21.7450   -4.4850 C.2     1  UNL1        0.2490
     24  N         16.7970  -21.8260   -3.7650 N.am    1  UNL1       -0.3660
     25  H         16.7700  -21.3110   -2.8950 H       1  UNL1        0.1590
     26  H         16.1600  -22.6040   -3.8740 H       1  UNL1        0.1590
     27  O         18.8680  -21.0010   -4.1540 O.2     1  UNL1       -0.2680
@<TRIPOS>BOND
     1    18    17    2
     2    18    19    1
     3    17    16    1
     4    19    14    2
     5    16    15    2
     6    14    15    1
     7    14    13    1
     8    20    22    1
     9    20    13    1
    10    20    21    1
    11    22    21    1
    12    13    10    1
    13    10    11    2
    14    10     9   am
    15    12     9    1
    16    12     5    1
    17     9     8    1
    18     4     5    2
    19     4     3    1
    20     5     6    1
    21     8     7    1
    22     3     2    2
    23     6     7    1
    24     6     1    2
    25     2     1    1
    26     1    23    1
    27    23    27    2
    28    23    24   am
    29    26    24    1
    30    24    25    1
