@<TRIPOS>MOLECULE
81990_out_ligand_01.pdbqt
 28 30 0 0 0
SMALL
GASTEIGER

@<TRIPOS>ATOM
      1  C         20.1040  -21.7030  -11.0370 C.2     1  UNL1        0.0400
      2  C         19.2000  -20.9210  -11.7650 C.2     1  UNL1        0.0180
      3  C         17.8520  -20.9450  -11.4400 C.2     1  UNL1        0.0030
      4  C         17.4040  -21.7450  -10.3860 C.2     1  UNL1        0.0300
      5  C         18.2790  -22.5530   -9.6390 C.2     1  UNL1        0.0440
      6  C         19.6580  -22.5280   -9.9740 C.2     1  UNL1       -0.0150
      7  C         20.6610  -23.3500   -9.1990 C.3     1  UNL1        0.0430
      8  C         20.0030  -24.4700   -8.4210 C.3     1  UNL1        0.0250
      9  C         18.8320  -23.9110   -7.6410 C.3     1  UNL1        0.1320
     10  N         17.8060  -23.3500   -8.5270 N.am    1  UNL1       -0.3170
     11  C         16.4420  -23.5500   -8.2680 C.2     1  UNL1        0.2260
     12  O         15.5450  -23.4500   -9.1080 O.2     1  UNL1       -0.2730
     13  C         16.0710  -23.9890   -6.8610 C.3     1  UNL1        0.1390
     14  C         15.9560  -22.7750   -5.9280 C.3     1  UNL1        0.2250
     15  N         16.8160  -22.8900   -4.7600 N.pl3   1  UNL1       -0.2670
     16  C         17.5860  -21.9020   -4.2120 C.2     1  UNL1        0.1140
     17  C         18.2490  -22.4770   -3.1530 C.2     1  UNL1        0.0400
     18  C         17.8250  -23.8170   -3.1540 C.2     1  UNL1        0.1400
     19  N         16.9570  -24.0750   -4.1350 N.2     1  UNL1       -0.1850
     20  C         14.5230  -22.5670   -5.4990 C.3     1  UNL1        0.4100
     21  F         13.8290  -21.7510   -6.3190 F       1  UNL1       -0.1690
     22  F         14.4920  -21.9950   -4.2660 F       1  UNL1       -0.1690
     23  F         13.8480  -23.7340   -5.3940 F       1  UNL1       -0.1690
     24  C         21.5450  -21.6080  -11.3980 C.2     1  UNL1        0.2490
     25  N         21.8490  -21.7950  -12.7180 N.am    1  UNL1       -0.3660
     26  H         22.8310  -21.8420  -12.9550 H       1  UNL1        0.1590
     27  H         21.1820  -22.1790  -13.3730 H       1  UNL1        0.1590
     28  O         22.4190  -21.3940  -10.5700 O.2     1  UNL1       -0.2680
@<TRIPOS>BOND
     1    27    25    1
     2    26    25    1
     3    25    24   am
     4     2     3    1
     5     2     1    2
     6     3     4    2
     7    24     1    1
     8    24    28    2
     9     1     6    1
    10     4     5    1
    11     6     5    2
    12     6     7    1
    13     5    10    1
    14     7     8    1
    15    12    11    2
    16    10    11   am
    17    10     9    1
    18     8     9    1
    19    11    13    1
    20    13    14    1
    21    21    20    1
    22    14    20    1
    23    14    15    1
    24    20    23    1
    25    20    22    1
    26    15    16    1
    27    15    19    1
    28    16    17    2
    29    19    18    2
    30    18    17    1
