@<TRIPOS>MOLECULE
82019_out_ligand_01.pdbqt
 26 29 0 0 0
SMALL
GASTEIGER

@<TRIPOS>ATOM
      1  C         21.4720  -22.0060   -7.6480 C.3     1  UNL1        0.1520
      2  N         20.1530  -22.4750   -8.0540 N.am    1  UNL1       -0.3520
      3  C         19.7290  -22.6060   -9.3770 C.2     1  UNL1        0.2530
      4  O         18.5970  -22.9510   -9.7090 O.2     1  UNL1       -0.2670
      5  C         20.6790  -22.3190  -10.4700 C.2     1  UNL1        0.0320
      6  C         20.2830  -21.4540  -11.4920 C.2     1  UNL1        0.0180
      7  C         21.1520  -21.1860  -12.5560 C.2     1  UNL1        0.0160
      8  C         22.4180  -21.7920  -12.6140 C.2     1  UNL1        0.0110
      9  C         22.7900  -22.6730  -11.5840 C.2     1  UNL1        0.0160
     10  C         21.9250  -22.9480  -10.5210 C.2     1  UNL1        0.0180
     11  C         23.3600  -21.5410  -13.7070 C.2     1  UNL1        0.1550
     12  N         24.5460  -22.0980  -13.8730 N.2     1  UNL1       -0.2210
     13  C         25.0120  -21.5370  -15.0250 C.2     1  UNL1        0.2570
     14  N         24.1890  -20.6610  -15.6030 N.2     1  UNL1       -0.1660
     15  N         23.1460  -20.6860  -14.7560 N.pl3   1  UNL1       -0.2590
     16  H         22.3350  -20.1160  -14.9580 H       1  UNL1        0.1910
     17  C         19.2240  -22.8760   -6.9910 C.3     1  UNL1        0.1350
     18  C         18.2920  -21.7520   -6.5000 C.3     1  UNL1        0.0370
     19  C         18.9440  -20.9430   -5.3540 C.3     1  UNL1        0.0150
     20  C         18.5040  -21.5990   -4.0370 C.3     1  UNL1        0.0400
     21  C         17.1620  -22.1330   -4.4220 C.2     1  UNL1       -0.0510
     22  C         16.1380  -22.5410   -3.5840 C.2     1  UNL1        0.0070
     23  C         17.0420  -22.2320   -5.8130 C.2     1  UNL1       -0.0460
     24  C         14.9660  -23.0350   -4.1610 C.2     1  UNL1        0.0010
     25  C         14.8370  -23.1210   -5.5550 C.2     1  UNL1        0.0010
     26  C         15.8800  -22.7190   -6.3920 C.2     1  UNL1        0.0080
@<TRIPOS>BOND
     1    14    13    2
     2    14    15    1
     3    13    12    1
     4    16    15    1
     5    15    11    1
     6    12    11    2
     7    11     8    1
     8     8     7    2
     9     8     9    1
    10     7     6    1
    11     9    10    2
    12     6     5    2
    13    10     5    1
    14     5     3    1
    15     4     3    2
    16     3     2   am
    17     2     1    1
    18     2    17    1
    19    17    18    1
    20    18    23    1
    21    18    19    1
    22    26    23    1
    23    26    25    2
    24    23    21    2
    25    25    24    1
    26    19    20    1
    27    21    20    1
    28    21    22    1
    29    24    22    2
