@<TRIPOS>MOLECULE
82014_out_ligand_01.pdbqt
 29 31 0 0 0
SMALL
GASTEIGER

@<TRIPOS>ATOM
      1  C         18.5790  -23.0030   -9.7520 C.2     1  UNL1        0.2540
      2  O         17.7970  -23.2610  -10.6640 O.2     1  UNL1       -0.2670
      3  N         18.1860  -22.7370   -8.4370 N.am    1  UNL1       -0.3430
      4  C         16.7560  -22.7370   -8.1630 C.3     1  UNL1        0.1310
      5  C         16.4650  -23.1490   -6.7220 C.3     1  UNL1        0.0600
      6  C         17.2820  -22.3640   -5.7230 C.2     1  UNL1       -0.0330
      7  C         18.4930  -21.7720   -6.1430 C.2     1  UNL1       -0.0330
      8  C         19.2620  -21.0370   -5.2250 C.2     1  UNL1        0.0090
      9  C         18.8590  -20.9070   -3.8980 C.2     1  UNL1        0.0020
     10  C         17.6810  -21.5140   -3.4700 C.2     1  UNL1        0.0170
     11  C         16.8910  -22.2410   -4.3730 C.2     1  UNL1        0.0380
     12  C         18.9950  -21.8870   -7.5660 C.3     1  UNL1        0.1650
     13  C         20.0220  -22.9900  -10.0740 C.2     1  UNL1        0.0320
     14  C         20.8960  -23.7620   -9.3080 C.2     1  UNL1        0.0170
     15  C         22.2620  -23.7440   -9.5950 C.2     1  UNL1        0.0100
     16  C         22.7620  -22.9440  -10.6370 C.2     1  UNL1       -0.0400
     17  C         21.8740  -22.1510  -11.3780 C.2     1  UNL1        0.0100
     18  C         20.5070  -22.1710  -11.0980 C.2     1  UNL1        0.0170
     19  C         24.2440  -22.9090  -10.9150 C.3     1  UNL1        0.1610
     20  N         24.5750  -23.7560  -12.0390 N.am    1  UNL1       -0.3570
     21  C         25.1970  -23.2590  -13.1600 C.2     1  UNL1        0.2130
     22  C         25.3400  -24.2580  -14.2760 C.3     1  UNL1        0.1170
     23  O         25.5940  -22.1030  -13.2660 O.2     1  UNL1       -0.2740
     24  H         24.1120  -24.6540  -12.0950 H       1  UNL1        0.1620
     25  C         15.6590  -22.9000   -3.8590 C.2     1  UNL1        0.2490
     26  N         15.8330  -24.1060   -3.2380 N.am    1  UNL1       -0.3660
     27  H         16.7430  -24.4280   -2.9380 H       1  UNL1        0.1590
     28  H         15.0180  -24.5010   -2.7850 H       1  UNL1        0.1590
     29  O         14.5500  -22.3950   -3.9610 O.2     1  UNL1       -0.2680
@<TRIPOS>BOND
     1    22    21    1
     2    23    21    2
     3    21    20   am
     4    24    20    1
     5    20    19    1
     6    17    18    1
     7    17    16    2
     8    18    13    2
     9    19    16    1
    10     2     1    2
    11    16    15    1
    12    13     1    1
    13    13    14    1
    14     1     3   am
    15    15    14    2
    16     3     4    1
    17     3    12    1
    18     4     5    1
    19    12     7    1
    20     5     6    1
    21     7     6    2
    22     7     8    1
    23     6    11    1
    24     8     9    2
    25    11    25    1
    26    11    10    2
    27    29    25    2
    28     9    10    1
    29    25    26   am
    30    26    27    1
    31    26    28    1
