@<TRIPOS>MOLECULE
82013_out_ligand_01.pdbqt
 28 30 0 0 0
SMALL
GASTEIGER

@<TRIPOS>ATOM
      1  C         20.6220  -23.2710   -9.7110 C.2     1  UNL1        0.2560
      2  O         20.9790  -24.2760   -9.1110 O.2     1  UNL1       -0.2670
      3  N         19.4880  -22.5150   -9.4760 N.am    1  UNL1       -0.3230
      4  H         19.4120  -21.6350   -9.9690 H       1  UNL1        0.1690
      5  C         18.4620  -22.7770   -8.5430 C.2     1  UNL1        0.0350
      6  C         17.1850  -23.0200   -9.0490 C.2     1  UNL1        0.0300
      7  C         16.1210  -23.2940   -8.1860 C.2     1  UNL1        0.0100
      8  C         16.3050  -23.3300   -6.7950 C.2     1  UNL1       -0.0490
      9  C         17.5890  -23.0890   -6.2730 C.2     1  UNL1       -0.0210
     10  C         15.1200  -23.6440   -5.9140 C.3     1  UNL1        0.0390
     11  C         18.6540  -22.8210   -7.1610 C.2     1  UNL1        0.0390
     12  C         17.8870  -23.1250   -4.7870 C.3     1  UNL1        0.1510
     13  C         17.0930  -22.1060   -3.9660 C.3     1  UNL1        0.0360
     14  C         15.6300  -22.4610   -3.7060 C.3     1  UNL1        0.0030
     15  C         14.7580  -22.5110   -4.9570 C.3     1  UNL1        0.0050
     16  O         17.7040  -24.4410   -4.2730 O.3     1  UNL1       -0.3910
     17  H         18.2150  -24.4950   -3.4470 H       1  UNL1        0.2100
     18  C         21.4980  -22.7550  -10.7990 C.2     1  UNL1        0.0320
     19  C         20.9450  -21.8930  -11.7520 C.2     1  UNL1        0.0180
     20  C         21.7390  -21.3890  -12.7860 C.2     1  UNL1        0.0180
     21  C         23.0960  -21.7250  -12.8590 C.2     1  UNL1        0.0310
     22  C         23.6520  -22.5840  -11.9020 C.2     1  UNL1        0.0180
     23  C         22.8570  -23.0940  -10.8700 C.2     1  UNL1        0.0180
     24  C         23.9020  -21.1660  -13.9780 C.2     1  UNL1        0.2490
     25  N         23.2790  -20.2960  -14.8280 N.am    1  UNL1       -0.3660
     26  H         23.8090  -20.0430  -15.6530 H       1  UNL1        0.1590
     27  H         22.2720  -20.2530  -14.9020 H       1  UNL1        0.1590
     28  O         25.0690  -21.4920  -14.1540 O.2     1  UNL1       -0.2680
@<TRIPOS>BOND
     1    26    25    1
     2    27    25    1
     3    25    24   am
     4    28    24    2
     5    24    21    1
     6    21    20    2
     7    21    22    1
     8    20    19    1
     9    22    23    2
    10    19    18    2
    11    23    18    1
    12    18     1    1
    13     4     3    1
    14     1     3   am
    15     1     2    2
    16     3     5    1
    17     6     5    2
    18     6     7    1
    19     5    11    1
    20     7     8    2
    21    11     9    2
    22     8     9    1
    23     8    10    1
    24     9    12    1
    25    10    15    1
    26    15    14    1
    27    12    16    1
    28    12    13    1
    29    16    17    1
    30    13    14    1
