@<TRIPOS>MOLECULE
82010_out_ligand_01.pdbqt
 28 30 0 0 0
SMALL
GASTEIGER

@<TRIPOS>ATOM
      1  C         19.8080  -21.9890  -10.5990 C.2     1  UNL1        0.2560
      2  O         18.9920  -21.1760  -11.0140 O.2     1  UNL1       -0.2670
      3  N         19.6600  -22.8460   -9.5240 N.am    1  UNL1       -0.3230
      4  H         20.4810  -23.3570   -9.2300 H       1  UNL1        0.1690
      5  C         18.5120  -23.0220   -8.7230 C.2     1  UNL1        0.0350
      6  C         17.2290  -23.2040   -9.2290 C.2     1  UNL1        0.0300
      7  C         16.1480  -23.3810   -8.3620 C.2     1  UNL1        0.0100
      8  C         16.3190  -23.3780   -6.9680 C.2     1  UNL1       -0.0490
      9  C         17.6100  -23.1970   -6.4420 C.2     1  UNL1       -0.0210
     10  C         15.1080  -23.5920   -6.0900 C.3     1  UNL1        0.0390
     11  C         18.6920  -23.0260   -7.3340 C.2     1  UNL1        0.0390
     12  C         17.8960  -23.2000   -4.9540 C.3     1  UNL1        0.1510
     13  C         17.1550  -22.1130   -4.1710 C.3     1  UNL1        0.0360
     14  C         15.6730  -22.3780   -3.9140 C.3     1  UNL1        0.0030
     15  C         14.8080  -22.4120   -5.1700 C.3     1  UNL1        0.0050
     16  O         17.6480  -24.4850   -4.3920 O.3     1  UNL1       -0.3910
     17  H         17.3530  -25.0660   -5.1150 H       1  UNL1        0.2100
     18  C         21.1330  -22.0620  -11.2780 C.2     1  UNL1        0.0320
     19  C         22.1770  -22.7350  -10.6420 C.2     1  UNL1        0.0190
     20  C         23.4350  -22.8280  -11.2530 C.2     1  UNL1        0.0310
     21  C         23.6850  -22.2510  -12.5120 C.2     1  UNL1        0.0360
     22  C         22.6280  -21.5530  -13.1170 C.2     1  UNL1        0.0310
     23  C         21.3670  -21.4530  -12.5120 C.2     1  UNL1        0.0190
     24  N         24.9860  -22.3480  -13.1300 N.am    1  UNL1       -0.3230
     25  C         25.4830  -23.5760  -13.6060 C.2     1  UNL1        0.2200
     26  C         26.8500  -23.5530  -14.2500 C.3     1  UNL1        0.1170
     27  O         24.9040  -24.6600  -13.5160 O.2     1  UNL1       -0.2740
     28  C         25.8240  -21.1470  -13.1130 C.3     1  UNL1        0.1590
@<TRIPOS>BOND
     1    26    25    1
     2    25    27    2
     3    25    24   am
     4    24    28    1
     5    24    21    1
     6    22    23    1
     7    22    21    2
     8    23    18    2
     9    21    20    1
    10    18    19    1
    11    18     1    1
    12    20    19    2
    13     2     1    2
    14     1     3   am
    15     3     4    1
    16     3     5    1
    17     6     5    2
    18     6     7    1
    19     5    11    1
    20     7     8    2
    21    11     9    2
    22     8     9    1
    23     8    10    1
    24     9    12    1
    25    10    15    1
    26    15    14    1
    27    17    16    1
    28    12    16    1
    29    12    13    1
    30    13    14    1
