@<TRIPOS>MOLECULE
82097_out_ligand_01.pdbqt
 27 30 0 0 0
SMALL
GASTEIGER

@<TRIPOS>ATOM
      1  O         20.4910  -24.6430   -9.9000 O.2     1  UNL1       -0.2650
      2  C         20.4480  -23.5270   -9.3960 C.2     1  UNL1        0.2800
      3  N         21.0560  -22.3770   -9.8600 N.am    1  UNL1       -0.3210
      4  H         21.0030  -21.5570   -9.2680 H       1  UNL1        0.1690
      5  C         21.8090  -22.2240  -11.0420 C.2     1  UNL1        0.0350
      6  C         21.4060  -21.4540  -12.1320 C.2     1  UNL1        0.0290
      7  C         22.2190  -21.3530  -13.2640 C.2     1  UNL1        0.0030
      8  C         23.4450  -22.0200  -13.3160 C.2     1  UNL1        0.0150
      9  C         23.8730  -22.7980  -12.2340 C.2     1  UNL1        0.0140
     10  C         23.0430  -22.8870  -11.1040 C.2     1  UNL1        0.0440
     11  C         25.1490  -23.5160  -12.2330 C.2     1  UNL1        0.1610
     12  N         25.6240  -24.2820  -13.2010 N.2     1  UNL1       -0.1300
     13  N         26.8510  -24.7690  -12.8170 N.2     1  UNL1       -0.1430
     14  C         27.1100  -24.2900  -11.6270 C.2     1  UNL1        0.2330
     15  N         26.0770  -23.5020  -11.2200 N.pl3   1  UNL1       -0.3320
     16  H         26.0140  -22.9980  -10.3510 H       1  UNL1        0.1680
     17  C         19.7020  -23.3250   -8.1120 C.2     1  UNL1        0.1480
     18  C         19.8970  -22.2200   -7.3790 C.2     1  UNL1        0.0550
     19  C         19.1170  -22.0480   -6.1640 C.2     1  UNL1       -0.0170
     20  C         19.2930  -20.9230   -5.3500 C.2     1  UNL1        0.0120
     21  C         18.1760  -23.0160   -5.8030 C.2     1  UNL1        0.0500
     22  C         18.5350  -20.7710   -4.1870 C.2     1  UNL1        0.0010
     23  C         17.5970  -21.7400   -3.8300 C.2     1  UNL1        0.0010
     24  C         17.4160  -22.8630   -4.6360 C.2     1  UNL1        0.0180
     25  C         17.9760  -24.2140   -6.6550 C.2     1  UNL1        0.2990
     26  O         17.1610  -25.0760   -6.3500 O.2     1  UNL1       -0.2590
     27  O         18.7470  -24.3080   -7.7770 O.3     1  UNL1       -0.2690
@<TRIPOS>BOND
     1     8     7    2
     2     8     9    1
     3     7     6    1
     4    12    13    1
     5    12    11    2
     6    13    14    2
     7     9    11    1
     8     9    10    2
     9    11    15    1
    10     6     5    2
    11    14    15    1
    12    15    16    1
    13    10     5    1
    14     5     3    1
    15     1     2    2
    16     3     2   am
    17     3     4    1
    18     2    17    1
    19    17    27    1
    20    17    18    2
    21    27    25    1
    22    18    19    1
    23    25    26    2
    24    25    21    1
    25    19    21    2
    26    19    20    1
    27    21    24    1
    28    20    22    2
    29    24    23    2
    30    22    23    1
