@<TRIPOS>MOLECULE
82108_out_ligand_01.pdbqt
 26 27 0 0 0
SMALL
GASTEIGER

@<TRIPOS>ATOM
      1  N         18.9380  -22.1310   -8.6080 N.am    1  UNL1       -0.3230
      2  C         18.9660  -22.7020   -9.8650 C.2     1  UNL1        0.2570
      3  O         18.0820  -23.3500  -10.4100 O.2     1  UNL1       -0.2670
      4  H         19.7300  -21.5570   -8.3340 H       1  UNL1        0.1690
      5  C         17.9100  -22.2390   -7.6470 C.2     1  UNL1        0.0360
      6  C         18.2850  -22.1800   -6.3000 C.2     1  UNL1        0.0480
      7  C         17.3360  -22.2780   -5.2590 C.2     1  UNL1        0.0550
      8  C         15.9890  -22.4590   -5.5950 C.2     1  UNL1        0.0490
      9  C         15.6130  -22.5210   -6.9420 C.2     1  UNL1        0.0270
     10 CL         14.7150  -22.6570   -4.4430 Cl      1  UNL1       -0.0830
     11  C         16.5650  -22.4090   -7.9600 C.2     1  UNL1        0.0310
     12  C         17.8910  -22.1800   -3.8780 C.2     1  UNL1        0.2510
     13  N         18.3630  -20.9810   -3.4330 N.am    1  UNL1       -0.3660
     14  H         18.2460  -20.1160   -3.9450 H       1  UNL1        0.1590
     15  H         18.6830  -20.9310   -2.4750 H       1  UNL1        0.1590
     16  O         17.9610  -23.1670   -3.1530 O.2     1  UNL1       -0.2680
     17  C         20.2010  -22.4300  -10.6440 C.2     1  UNL1        0.0470
     18  C         20.0580  -21.6300  -11.7870 C.2     1  UNL1        0.0180
     19  C         21.1690  -21.3220  -12.5720 C.2     1  UNL1        0.0010
     20  C         22.4220  -21.8170  -12.2230 C.2     1  UNL1        0.0010
     21  C         22.5660  -22.6310  -11.0970 C.2     1  UNL1        0.0170
     22  C         21.4560  -22.9600  -10.2970 C.2     1  UNL1        0.0630
     23  C         21.6320  -23.8610   -9.1040 C.3     1  UNL1        0.4180
     24  F         22.8880  -24.3780   -8.9990 F       1  UNL1       -0.1660
     25  F         20.7920  -24.9270   -9.0980 F       1  UNL1       -0.1660
     26  F         21.4150  -23.1900   -7.9370 F       1  UNL1       -0.1660
@<TRIPOS>BOND
     1    19    20    2
     2    19    18    1
     3    20    21    1
     4    18    17    2
     5    21    22    2
     6    17    22    1
     7    17     2    1
     8     3     2    2
     9    22    23    1
    10     2     1   am
    11    23    25    1
    12    23    24    1
    13    23    26    1
    14     1     4    1
    15     1     5    1
    16    11     5    2
    17    11     9    1
    18     5     6    1
    19     9     8    2
    20     6     7    2
    21     8     7    1
    22     8    10    1
    23     7    12    1
    24    14    13    1
    25    12    13   am
    26    12    16    2
    27    13    15    1
