@<TRIPOS>MOLECULE
82118_out_ligand_01.pdbqt
 26 29 0 0 0
SMALL
GASTEIGER

@<TRIPOS>ATOM
      1  C         18.1970  -22.1630   -7.9740 C.3     1  UNL1        0.1220
      2  C         17.4690  -22.6360   -6.7040 C.2     1  UNL1       -0.0340
      3  C         16.4300  -23.5820   -6.8690 C.2     1  UNL1        0.0090
      4  C         15.7140  -24.0830   -5.7810 C.2     1  UNL1        0.0010
      5  C         16.0180  -23.6470   -4.4990 C.2     1  UNL1        0.0010
      6  C         17.0350  -22.7140   -4.3060 C.2     1  UNL1        0.0070
      7  C         17.7710  -22.1930   -5.3910 C.2     1  UNL1       -0.0540
      8  C         18.8520  -21.1870   -5.0810 C.3     1  UNL1        0.0490
      9  S         17.0540  -22.1640   -9.4140 S.3     1  UNL1       -0.0680
     10  C         18.0750  -21.5800  -10.6890 C.ar    1  UNL1        0.2320
     11  N         17.7340  -20.7140  -11.6210 N.ar    1  UNL1       -0.1140
     12  N         18.8460  -20.5290  -12.4180 N.ar    1  UNL1       -0.1190
     13  C         19.8020  -21.2900  -11.9190 C.ar    1  UNL1        0.2200
     14  O         19.3780  -21.9920  -10.8150 O.2     1  UNL1       -0.2620
     15  C         21.1290  -21.3760  -12.4370 C.2     1  UNL1        0.0870
     16  C         22.2080  -22.1190  -11.9990 C.2     1  UNL1        0.0350
     17  C         23.2890  -21.8710  -12.8830 C.2     1  UNL1        0.0190
     18  C         22.8480  -20.9740  -13.8290 C.2     1  UNL1        0.0880
     19  N         21.5380  -20.6740  -13.5500 N.pl3   1  UNL1       -0.3620
     20  H         20.9550  -20.0400  -14.0810 H       1  UNL1        0.1650
     21  C         19.5570  -22.8480   -8.2030 C.2     1  UNL1       -0.0390
     22  C         19.5690  -24.2220   -8.5190 C.2     1  UNL1        0.0090
     23  C         20.7650  -24.9110   -8.7450 C.2     1  UNL1        0.0010
     24  C         21.9800  -24.2420   -8.6490 C.2     1  UNL1        0.0000
     25  C         21.9980  -22.8900   -8.3160 C.2     1  UNL1        0.0010
     26  C         20.8000  -22.2000   -8.0940 C.2     1  UNL1        0.0090
@<TRIPOS>BOND
     1    20    19    1
     2    18    19    1
     3    18    17    2
     4    19    15    1
     5    17    16    1
     6    15    16    2
     7    15    13    1
     8    12    13   ar
     9    12    11   ar
    10    13    14   ar
    11    11    10   ar
    12    14    10   ar
    13    10     9    1
    14     9     1    1
    15    23    24    2
    16    23    22    1
    17    24    25    1
    18    22    21    2
    19    25    26    2
    20    21    26    1
    21    21     1    1
    22     1     2    1
    23     3     2    2
    24     3     4    1
    25     2     7    1
    26     4     5    2
    27     7     8    1
    28     7     6    2
    29     5     6    1
