@<TRIPOS>MOLECULE
82128_out_ligand_01.pdbqt
 36 39 0 0 0
SMALL
GASTEIGER

@<TRIPOS>ATOM
      1  C         22.4230  -22.9540   -9.9650 C.2     1  UNL1        0.0040
      2  C         23.6920  -23.1450  -10.4750 C.2     1  UNL1        0.1230
      3  N         23.6690  -22.7040  -11.7630 N.pl3   1  UNL1       -0.2760
      4  N         22.4590  -22.2620  -12.1480 N.2     1  UNL1       -0.1710
      5  C         21.6780  -22.4250  -11.0680 C.2     1  UNL1        0.0960
      6  C         21.9470  -23.2310   -8.5720 C.3     1  UNL1        0.1350
      7  N         21.1090  -22.2080   -7.9400 N.pl3   1  UNL1       -0.2890
      8  H         21.6730  -21.6280   -7.3240 H       1  UNL1        0.1280
      9  C         19.8930  -22.5440   -7.3370 C.2     1  UNL1        0.0080
     10  C         19.2640  -21.7600   -6.3640 C.2     1  UNL1        0.0240
     11  C         18.0610  -22.1630   -5.7700 C.2     1  UNL1        0.0100
     12  C         17.4700  -23.3810   -6.1180 C.2     1  UNL1       -0.0400
     13  C         18.1260  -24.2020   -7.0380 C.2     1  UNL1        0.0100
     14  C         19.3260  -23.7920   -7.6260 C.2     1  UNL1        0.0240
     15  C         16.1830  -23.8330   -5.4780 C.3     1  UNL1        0.1620
     16  N         15.0980  -22.9530   -5.8360 N.am    1  UNL1       -0.3440
     17  C         14.5340  -22.0980   -4.9460 C.2     1  UNL1        0.2920
     18  N         13.6150  -21.2800   -5.5150 N.am    1  UNL1       -0.2540
     19  O         14.7800  -22.0410   -3.7510 O.2     1  UNL1       -0.2540
     20  H         13.2850  -20.5730   -4.8720 H       1  UNL1        0.1280
     21  H         13.8350  -20.9230   -6.4330 H       1  UNL1        0.1280
     22  H         14.8470  -22.8740   -6.8090 H       1  UNL1        0.1640
     23  C         20.2650  -22.0620  -11.1220 C.2     1  UNL1       -0.0050
     24  C         19.8900  -20.7640  -11.4920 C.2     1  UNL1        0.0140
     25  C         18.5420  -20.4040  -11.5460 C.2     1  UNL1        0.0010
     26  C         17.5580  -21.3420  -11.2360 C.2     1  UNL1        0.0000
     27  C         17.9210  -22.6400  -10.8770 C.2     1  UNL1        0.0010
     28  C         19.2690  -23.0010  -10.8230 C.2     1  UNL1        0.0140
     29  C         24.7770  -22.7130  -12.7080 C.3     1  UNL1        0.1900
     30  C         25.4600  -21.3690  -12.7680 C.2     1  UNL1       -0.0170
     31  C         26.1980  -20.9400  -11.6480 C.2     1  UNL1        0.0100
     32  C         26.8620  -19.7120  -11.6520 C.2     1  UNL1        0.0010
     33  C         26.8070  -18.8970  -12.7770 C.2     1  UNL1        0.0020
     34  C         26.0880  -19.3100  -13.8990 C.2     1  UNL1        0.0240
     35  C         25.4200  -20.5380  -13.8980 C.2     1  UNL1        0.0420
     36 CL         24.5550  -20.9720  -15.3290 Cl      1  UNL1       -0.0840
@<TRIPOS>BOND
     1    36    35    1
     2    34    35    1
     3    34    33    2
     4    35    30    2
     5    33    32    1
     6    30    29    1
     7    30    31    1
     8    29     3    1
     9     4     3    1
    10     4     5    2
    11     3     2    1
    12    32    31    2
    13    25    24    1
    14    25    26    2
    15    24    23    2
    16    26    27    1
    17    23     5    1
    18    23    28    1
    19     5     1    1
    20    27    28    2
    21     2     1    2
    22     1     6    1
    23     6     7    1
    24     7     9    1
    25     7     8    1
    26    14     9    2
    27    14    13    1
    28     9    10    1
    29    13    12    2
    30    22    16    1
    31    21    18    1
    32    10    11    2
    33    12    11    1
    34    12    15    1
    35    16    15    1
    36    16    17   am
    37    18    17   am
    38    18    20    1
    39    17    19    2
