@<TRIPOS>MOLECULE
82126_out_ligand_01.pdbqt
 36 39 0 0 0
SMALL
GASTEIGER

@<TRIPOS>ATOM
      1  C         17.7510  -23.6010   -8.4630 C.2     1  UNL1        0.0790
      2  C         17.2790  -22.7460   -9.4640 C.2     1  UNL1        0.0260
      3  C         18.1760  -22.2010  -10.3880 C.2     1  UNL1        0.0180
      4  C         19.5410  -22.5140  -10.3090 C.2     1  UNL1        0.0320
      5  C         19.9960  -23.4070   -9.3270 C.2     1  UNL1        0.0180
      6  C         19.1020  -23.9550   -8.4030 C.2     1  UNL1        0.0260
      7  C         20.5340  -21.9480  -11.2680 C.2     1  UNL1        0.2560
      8  O         20.2180  -20.9480  -11.9020 O.2     1  UNL1       -0.2670
      9  N         21.7150  -22.6600  -11.3710 N.am    1  UNL1       -0.3230
     10  H         21.7660  -23.5420  -10.8810 H       1  UNL1        0.1690
     11  C         22.8380  -22.3420  -12.1620 C.2     1  UNL1        0.0350
     12  C         24.0520  -22.9540  -11.8250 C.2     1  UNL1        0.0300
     13  C         25.2140  -22.6900  -12.5570 C.2     1  UNL1        0.0110
     14  C         25.1870  -21.8020  -13.6360 C.2     1  UNL1       -0.0400
     15  C         23.9720  -21.1940  -13.9760 C.2     1  UNL1        0.0110
     16  C         22.8090  -21.4600  -13.2420 C.2     1  UNL1        0.0300
     17  C         26.4330  -21.5370  -14.4500 C.3     1  UNL1        0.1740
     18  N         26.1300  -21.4090  -15.8610 N.am    1  UNL1       -0.2740
     19  C         25.9770  -22.5100  -16.6640 C.2     1  UNL1        0.2370
     20  O         26.0300  -23.6760  -16.2840 O.2     1  UNL1       -0.2720
     21  C         25.7210  -22.1350  -18.0990 C.3     1  UNL1        0.1870
     22  S         25.6770  -20.3350  -18.1490 S.3     1  UNL1       -0.0590
     23  C         26.0030  -20.1800  -16.4400 C.2     1  UNL1        0.2890
     24  O         26.0840  -19.0930  -15.8890 O.2     1  UNL1       -0.2600
     25  S         16.6070  -24.3010   -7.2910 S.O2    1  UNL1        0.2630
     26  O         15.4910  -24.8500   -8.0310 O.2     1  UNL1       -0.2000
     27  O         17.3720  -25.1220   -6.3750 O.2     1  UNL1       -0.2000
     28  N         16.0980  -22.9630   -6.4010 N.pl3   1  UNL1       -0.2800
     29  H         15.0990  -22.9790   -6.2110 H       1  UNL1        0.1790
     30  C         16.9650  -22.3620   -5.4430 C.2     1  UNL1        0.0480
     31  C         18.0260  -21.5620   -5.8770 C.2     1  UNL1        0.0300
     32  C         18.9010  -20.9850   -4.9570 C.2     1  UNL1        0.0020
     33  C         18.7150  -21.2020   -3.5950 C.2     1  UNL1        0.0010
     34  C         17.6500  -21.9890   -3.1530 C.2     1  UNL1        0.0090
     35  C         16.7620  -22.5780   -4.0690 C.2     1  UNL1       -0.0350
     36  C         15.6190  -23.4020   -3.5480 C.3     1  UNL1        0.0500
@<TRIPOS>BOND
     1    22    21    1
     2    22    23    1
     3    21    19    1
     4    19    20    2
     5    19    18   am
     6    23    24    2
     7    23    18   am
     8    18    17    1
     9    17    14    1
    10    15    14    2
    11    15    16    1
    12    14    13    1
    13    16    11    2
    14    13    12    2
    15    11    12    1
    16    11     9    1
    17     8     7    2
    18     9     7   am
    19     9    10    1
    20     7     4    1
    21     3     4    2
    22     3     2    1
    23     4     5    1
    24     2     1    2
    25     5     6    2
    26     1     6    1
    27     1    25    1
    28    26    25    2
    29    25    28    1
    30    25    27    2
    31    28    29    1
    32    28    30    1
    33    31    30    2
    34    31    32    1
    35    30    35    1
    36    32    33    2
    37    35    36    1
    38    35    34    2
    39    33    34    1
