@<TRIPOS>MOLECULE
82123_out_ligand_01.pdbqt
 28 30 0 0 0
SMALL
GASTEIGER

@<TRIPOS>ATOM
      1  N         19.8720  -23.1870   -8.8100 N.am    1  UNL1       -0.3230
      2  C         19.5980  -22.6620   -7.5600 C.2     1  UNL1        0.2560
      3  O         20.3100  -21.9090   -6.9060 O.2     1  UNL1       -0.2670
      4  H         19.1260  -23.6910   -9.2720 H       1  UNL1        0.1690
      5  C         21.0590  -23.0320   -9.5600 C.2     1  UNL1        0.0370
      6  C         22.3050  -23.5180   -9.1590 C.2     1  UNL1        0.0320
      7  C         23.4350  -23.3320   -9.9640 C.2     1  UNL1        0.0410
      8  C         23.3290  -22.6490  -11.1700 C.2     1  UNL1        0.0960
      9  O         24.4650  -22.5450  -11.9240 O.2     1  UNL1       -0.3350
     10  C         22.0860  -22.1690  -11.5840 C.2     1  UNL1        0.0700
     11  C         24.4090  -21.5130  -12.9060 C.3     1  UNL1        0.2170
     12  C         25.4930  -21.8050  -13.9370 C.3     1  UNL1        0.0500
     13  C         23.0590  -21.2740  -13.6030 C.2     1  UNL1        0.2510
     14  N         21.9640  -21.5310  -12.8190 N.am    1  UNL1       -0.3230
     15  O         22.9310  -20.8080  -14.7320 O.2     1  UNL1       -0.2700
     16  H         21.0580  -21.2990  -13.2060 H       1  UNL1        0.1690
     17  C         20.9540  -22.3620  -10.7880 C.2     1  UNL1        0.0620
     18  C         18.2700  -23.0360   -6.9930 C.2     1  UNL1        0.0330
     19  C         17.4910  -23.9780   -7.6780 C.2     1  UNL1        0.0170
     20  C         16.2470  -24.3620   -7.1760 C.2     1  UNL1        0.0020
     21  C         15.7650  -23.7980   -5.9930 C.2     1  UNL1        0.0170
     22  C         16.5240  -22.8340   -5.3180 C.2     1  UNL1        0.0320
     23  C         17.7780  -22.4550   -5.8180 C.2     1  UNL1        0.0340
     24  C         16.0630  -22.2040   -4.0550 C.2     1  UNL1        0.2490
     25  N         17.0150  -21.7910   -3.1670 N.am    1  UNL1       -0.3660
     26  H         17.9700  -22.1160   -3.2090 H       1  UNL1        0.1590
     27  H         16.6740  -21.4800   -2.2650 H       1  UNL1        0.1590
     28  O         14.8690  -22.0860   -3.8070 O.2     1  UNL1       -0.2680
@<TRIPOS>BOND
     1    15    13    2
     2    12    11    1
     3    13    11    1
     4    13    14   am
     5    16    14    1
     6    11     9    1
     7    14    10    1
     8     9     8    1
     9    10     8    2
    10    10    17    1
    11     8     7    1
    12    17     5    2
    13     7     6    2
    14     5     6    1
    15     5     1    1
    16     4     1    1
    17     1     2   am
    18    19    20    1
    19    19    18    2
    20     2    18    1
    21     2     3    2
    22    20    21    2
    23    18    23    1
    24    21    22    1
    25    23    22    2
    26    22    24    1
    27    24    28    2
    28    24    25   am
    29    26    25    1
    30    25    27    1
