@<TRIPOS>MOLECULE
82151_out_ligand_01.pdbqt
 32 34 0 0 0
SMALL
GASTEIGER

@<TRIPOS>ATOM
      1  C         20.7810  -22.1100  -10.3470 C.2     1  UNL1        0.0350
      2  C         20.3880  -21.2700  -11.3950 C.2     1  UNL1        0.0300
      3  C         21.1990  -21.1110  -12.5250 C.2     1  UNL1        0.0190
      4  C         22.4220  -21.7850  -12.6180 C.2     1  UNL1        0.0320
      5  C         22.8090  -22.6380  -11.5810 C.2     1  UNL1        0.0190
      6  C         21.9940  -22.7930  -10.4500 C.2     1  UNL1        0.0300
      7  N         19.9160  -22.1980   -9.2380 N.am    1  UNL1       -0.3220
      8  C         18.6460  -22.7350   -9.1900 C.2     1  UNL1        0.2730
      9  O         18.0100  -23.1350  -10.1610 O.2     1  UNL1       -0.2660
     10  H         20.2400  -21.7640   -8.3850 H       1  UNL1        0.1690
     11  C         18.0400  -22.7310   -7.8660 C.ar    1  UNL1        0.1080
     12  C         18.4280  -22.1990   -6.6310 C.ar    1  UNL1       -0.0140
     13  C         19.6970  -21.4950   -6.2830 C.3     1  UNL1        0.0520
     14  C         17.3710  -22.4780   -5.7070 C.ar    1  UNL1        0.0410
     15  C         16.4210  -23.2180   -6.3800 C.ar    1  UNL1        0.0240
     16  C         17.1870  -22.1350   -4.2980 C.2     1  UNL1        0.1620
     17  N         16.8480  -23.4010   -7.6610 N.ar    1  UNL1       -0.3540
     18  C         15.1540  -23.7520   -5.8170 C.3     1  UNL1        0.0580
     19  H         16.3700  -23.9200   -8.3890 H       1  UNL1        0.1660
     20  C         14.7790  -22.9290   -4.5750 C.3     1  UNL1        0.0140
     21  C         15.9640  -22.7460   -3.6140 C.3     1  UNL1        0.0840
     22  O         17.9860  -21.4390   -3.6760 O.2     1  UNL1       -0.2920
     23  C         23.2570  -21.5740  -13.8350 C.2     1  UNL1        0.2520
     24  O         22.9720  -20.6960  -14.6450 O.2     1  UNL1       -0.2680
     25  N         24.3840  -22.3580  -13.9590 N.am    1  UNL1       -0.3480
     26  H         24.7600  -22.8080  -13.1350 H       1  UNL1        0.1630
     27  C         25.3060  -22.1380  -15.0590 C.3     1  UNL1        0.2250
     28  C         24.8970  -23.0190  -16.2340 C.2     1  UNL1        0.2330
     29  N         24.1350  -22.3880  -17.1840 N.am    1  UNL1       -0.3690
     30  H         24.2740  -21.3810  -17.2760 H       1  UNL1        0.1590
     31  H         24.0260  -22.8970  -18.0500 H       1  UNL1        0.1590
     32  O         25.2880  -24.1720  -16.3890 O.2     1  UNL1       -0.2720
@<TRIPOS>BOND
     1    31    29    1
     2    30    29    1
     3    29    28   am
     4    32    28    2
     5    28    27    1
     6    27    25    1
     7    24    23    2
     8    25    23   am
     9    25    26    1
    10    23     4    1
    11     4     3    2
    12     4     5    1
    13     3     2    1
    14     5     6    2
    15     2     1    2
    16     6     1    1
    17     1     7    1
    18     9     8    2
    19     7     8   am
    20     7    10    1
    21     8    11    1
    22    19    17    1
    23    11    17   ar
    24    11    12   ar
    25    17    15   ar
    26    12    13    1
    27    12    14   ar
    28    15    18    1
    29    15    14   ar
    30    18    20    1
    31    14    16    1
    32    20    21    1
    33    16    22    2
    34    16    21    1
