@<TRIPOS>MOLECULE
82157_out_ligand_01.pdbqt
 31 34 0 0 0
SMALL
GASTEIGER

@<TRIPOS>ATOM
      1  C         21.7820  -22.3300   -9.4830 C.2     1  UNL1        0.2540
      2  O         22.0380  -21.7960   -8.4090 O.2     1  UNL1       -0.2670
      3  N         22.7140  -23.0260  -10.2230 N.am    1  UNL1       -0.3440
      4  C         24.1430  -23.1040   -9.9330 C.3     1  UNL1        0.1540
      5  C         24.3620  -22.5560  -11.3500 C.3     1  UNL1        0.1410
      6  C         22.9300  -23.0190  -11.6680 C.3     1  UNL1        0.1540
      7  C         20.4340  -22.1590  -10.0750 C.2     1  UNL1        0.0460
      8  C         20.3160  -21.2380  -11.1270 C.2     1  UNL1        0.0180
      9  C         19.0810  -21.0280  -11.7430 C.2     1  UNL1        0.0010
     10  C         17.9550  -21.7200  -11.3010 C.2     1  UNL1        0.0010
     11  C         18.0580  -22.6210  -10.2400 C.2     1  UNL1        0.0160
     12  C         19.3010  -22.8530   -9.6290 C.2     1  UNL1        0.0300
     13  C         19.3520  -23.7470   -8.4520 C.2     1  UNL1        0.1930
     14  O         19.9330  -24.8230   -8.5610 O.2     1  UNL1       -0.2870
     15  C         18.7470  -23.3520   -7.1490 C.2     1  UNL1        0.0150
     16  C         19.0790  -22.1580   -6.4970 C.2     1  UNL1        0.0160
     17  C         18.4660  -21.8260   -5.2850 C.2     1  UNL1        0.0070
     18  C         17.5040  -22.6720   -4.7180 C.2     1  UNL1       -0.0620
     19  C         16.8680  -22.3250   -3.4040 C.3     1  UNL1        0.0480
     20  C         17.1790  -23.8670   -5.3690 C.2     1  UNL1        0.0070
     21  C         17.7900  -24.2010   -6.5810 C.2     1  UNL1        0.0160
     22  N         25.3860  -23.2780  -12.1110 N.pl3   1  UNL1       -0.2750
     23  C         25.3270  -23.5460  -13.4500 C.2     1  UNL1        0.1470
     24  C         26.4420  -24.3290  -13.6850 C.2     1  UNL1        0.1580
     25  N         27.0950  -24.5240  -12.4890 N.2     1  UNL1       -0.1530
     26  N         26.4240  -23.8960  -11.5330 N.2     1  UNL1        0.0050
     27  C         26.9150  -24.9080  -14.9350 C.2     1  UNL1        0.2700
     28  N         27.1210  -26.2630  -14.9390 N.am    1  UNL1       -0.3650
     29  H         27.3660  -26.6750  -15.8290 H       1  UNL1        0.1590
     30  H         26.8270  -26.8700  -14.1910 H       1  UNL1        0.1590
     31  O         27.1210  -24.2610  -15.9570 O.2     1  UNL1       -0.2660
@<TRIPOS>BOND
     1    31    27    2
     2    29    28    1
     3    28    27   am
     4    28    30    1
     5    27    24    1
     6    24    23    2
     7    24    25    1
     8    23    22    1
     9    25    26    2
    10    22    26    1
    11    22     5    1
    12     9    10    2
    13     9     8    1
    14     6     5    1
    15     6     3    1
    16     5     4    1
    17    10    11    1
    18     8     7    2
    19    11    12    2
    20     3     4    1
    21     3     1   am
    22     7    12    1
    23     7     1    1
    24    12    13    1
    25     1     2    2
    26    14    13    2
    27    13    15    1
    28    15    21    2
    29    15    16    1
    30    21    20    1
    31    16    17    2
    32    20    18    2
    33    17    18    1
    34    18    19    1
