@<TRIPOS>MOLECULE
82165_out_ligand_01.pdbqt
 28 31 0 0 0
SMALL
GASTEIGER

@<TRIPOS>ATOM
      1  N         22.7140  -23.1920   -9.8460 N.am    1  UNL1       -0.3530
      2  C         22.0770  -22.4190   -8.8990 C.2     1  UNL1        0.2520
      3  O         22.6530  -21.6950   -8.1000 O.2     1  UNL1       -0.2680
      4  H         22.1800  -23.9010  -10.3340 H       1  UNL1        0.1630
      5  C         24.1530  -23.2540   -9.9010 C.3     1  UNL1        0.1610
      6  C         24.6730  -22.3690  -11.0040 C.2     1  UNL1       -0.0400
      7  C         25.8390  -21.6130  -10.8260 C.2     1  UNL1        0.0090
      8  C         26.2760  -20.7430  -11.8270 C.2     1  UNL1        0.0020
      9  C         25.5490  -20.6100  -13.0120 C.2     1  UNL1        0.0170
     10  C         24.3860  -21.3630  -13.2080 C.2     1  UNL1        0.0320
     11  C         23.9520  -22.2340  -12.2000 C.2     1  UNL1        0.0260
     12  C         23.5500  -21.2450  -14.4350 C.2     1  UNL1        0.2490
     13  N         22.5780  -20.2830  -14.4610 N.am    1  UNL1       -0.3660
     14  H         22.5420  -19.5190  -13.8040 H       1  UNL1        0.1590
     15  H         22.0970  -20.1740  -15.3480 H       1  UNL1        0.1590
     16  O         23.7290  -21.9700  -15.4080 O.2     1  UNL1       -0.2680
     17  C         20.6040  -22.5710   -8.8460 C.2     1  UNL1        0.0430
     18  C         20.0670  -23.2420   -7.7240 C.2     1  UNL1        0.0180
     19  C         18.6880  -23.4670   -7.6070 C.2     1  UNL1        0.0090
     20  C         17.8570  -23.0040   -8.6120 C.2     1  UNL1       -0.0460
     21  C         18.3940  -22.3380   -9.6850 C.2     1  UNL1       -0.0120
     22  C         16.3660  -23.1200   -8.7250 C.2     1  UNL1        0.0440
     23  C         17.3980  -21.9530  -10.5450 C.2     1  UNL1       -0.0460
     24  C         19.7550  -22.0770   -9.8710 C.2     1  UNL1       -0.0090
     25  C         17.7180  -21.2490  -11.6940 C.2     1  UNL1        0.0080
     26  C         16.0460  -22.3750  -10.0460 C.2     1  UNL1        0.0440
     27  C         19.0630  -20.9420  -11.9430 C.2     1  UNL1        0.0010
     28  C         20.0720  -21.3420  -11.0450 C.2     1  UNL1        0.0130
@<TRIPOS>BOND
     1    16    12    2
     2    15    13    1
     3    13    12   am
     4    13    14    1
     5    12    10    1
     6    10     9    2
     7    10    11    1
     8     9     8    1
     9    11     6    2
    10    27    25    1
    11    27    28    2
    12     8     7    2
    13    25    23    2
    14    28    24    1
    15     6     7    1
    16     6     5    1
    17    23    26    1
    18    23    21    1
    19     4     1    1
    20    26    22    2
    21     5     1    1
    22    24    21    1
    23    24    17    2
    24     1     2   am
    25    21    20    2
    26     2    17    1
    27     2     3    2
    28    17    18    1
    29    22    20    1
    30    20    19    1
    31    18    19    2
