@<TRIPOS>MOLECULE
82172_out_ligand_01.pdbqt
 28 32 0 0 0
SMALL
GASTEIGER

@<TRIPOS>ATOM
      1  C         18.7220  -24.1010   -7.4210 C.3     1  UNL1        0.1360
      2  C         20.0400  -23.6410   -8.0120 C.2     1  UNL1       -0.0450
      3  C         20.6130  -22.4230   -7.6130 C.2     1  UNL1        0.0090
      4  C         21.8290  -21.9960   -8.1530 C.2     1  UNL1        0.0170
      5  C         22.4840  -22.7800   -9.1080 C.2     1  UNL1        0.0320
      6  C         21.9290  -24.0050   -9.4970 C.2     1  UNL1        0.0170
      7  C         20.7130  -24.4290   -8.9570 C.2     1  UNL1        0.0090
      8  C         23.7810  -22.3690   -9.7140 C.2     1  UNL1        0.2520
      9  O         24.0090  -21.1830   -9.9260 O.2     1  UNL1       -0.2680
     10  N         24.6800  -23.3880   -9.9720 N.am    1  UNL1       -0.3520
     11  H         24.4980  -24.3100   -9.5980 H       1  UNL1        0.1630
     12  C         25.9780  -23.1300  -10.5100 C.3     1  UNL1        0.0840
     13  C         26.4300  -23.8190  -11.7680 C.3     1  UNL1        0.0270
     14  C         27.0540  -24.1790  -10.4520 C.3     1  UNL1        0.0270
     15  N         17.6740  -23.0710   -7.5720 N.pl3   1  UNL1       -0.2580
     16  C         16.9140  -23.0430   -6.3720 C.2     1  UNL1        0.1230
     17  N         15.7100  -23.6770   -6.2960 N.2     1  UNL1       -0.2290
     18  C         15.0100  -23.6240   -5.1430 C.2     1  UNL1        0.2370
     19  N         15.3490  -23.0130   -3.9950 N.2     1  UNL1       -0.2220
     20  C         16.5330  -22.3930   -4.1140 C.2     1  UNL1        0.1600
     21  N         17.1730  -21.6650   -3.1530 N.pl3   1  UNL1       -0.2610
     22  C         17.3490  -22.3580   -5.2280 C.2     1  UNL1        0.0710
     23  N         18.3540  -21.1510   -3.5580 N.2     1  UNL1       -0.1840
     24  H         16.8500  -21.4840   -2.2100 H       1  UNL1        0.1910
     25  C         18.4460  -21.5670   -4.8270 C.2     1  UNL1        0.1570
     26  C         16.8620  -23.2140   -8.8100 C.3     1  UNL1        0.0650
     27  C         17.4670  -22.9720  -10.1660 C.3     1  UNL1        0.0220
     28  C         16.4740  -21.9980   -9.6100 C.3     1  UNL1        0.0220
@<TRIPOS>BOND
     1    13    12    1
     2    13    14    1
     3    12    14    1
     4    12    10    1
     5    27    28    1
     6    27    26    1
     7    10     8   am
     8    10    11    1
     9     9     8    2
    10     8     5    1
    11    28    26    1
    12     6     5    2
    13     6     7    1
    14     5     4    1
    15     7     2    2
    16    26    15    1
    17     4     3    2
    18     2     3    1
    19     2     1    1
    20    15     1    1
    21    15    16    1
    22    16    17    2
    23    16    22    1
    24    17    18    1
    25    22    25    1
    26    22    20    2
    27    18    19    2
    28    25    23    2
    29    20    19    1
    30    20    21    1
    31    23    21    1
    32    21    24    1
