@<TRIPOS>MOLECULE
82200_out_ligand_01.pdbqt
 29 32 0 0 0
SMALL
GASTEIGER

@<TRIPOS>ATOM
      1  C         23.4140  -23.3540  -10.0260 C.3     1  UNL1        0.1410
      2  C         21.8900  -23.5440   -9.9700 C.3     1  UNL1        0.1540
      3  N         21.9640  -22.8850   -8.6690 N.am    1  UNL1       -0.3470
      4  C         20.9620  -22.3350   -7.8960 C.2     1  UNL1        0.2330
      5  O         21.2010  -21.3990   -7.1320 O.2     1  UNL1       -0.2720
      6  C         23.2500  -22.2550   -8.9680 C.3     1  UNL1        0.1540
      7  C         19.5620  -22.9590   -8.0760 C.3     1  UNL1        0.1440
      8  C         18.7650  -22.3330   -9.2210 C.2     1  UNL1       -0.0410
      9  C         17.3640  -22.4060   -9.2880 C.2     1  UNL1        0.0080
     10  C         16.6710  -21.8210  -10.3490 C.2     1  UNL1        0.0010
     11  C         17.3640  -21.1640  -11.3630 C.2     1  UNL1        0.0000
     12  C         18.7540  -21.0980  -11.3210 C.2     1  UNL1        0.0010
     13  C         19.4510  -21.6800  -10.2610 C.2     1  UNL1        0.0080
     14  C         18.7670  -23.0250   -6.7720 C.2     1  UNL1       -0.0410
     15  C         18.1410  -24.2240   -6.3910 C.2     1  UNL1        0.0080
     16  C         17.4040  -24.2990   -5.2070 C.2     1  UNL1        0.0010
     17  C         17.2810  -23.1800   -4.3880 C.2     1  UNL1        0.0000
     18  C         17.8960  -21.9840   -4.7510 C.2     1  UNL1        0.0010
     19  C         18.6340  -21.9060   -5.9340 C.2     1  UNL1        0.0080
     20  N         23.9100  -22.8470  -11.3090 N.pl3   1  UNL1       -0.2750
     21  C         23.1250  -22.2330  -12.2390 C.2     1  UNL1        0.1470
     22  C         23.9940  -21.9340  -13.2670 C.2     1  UNL1        0.1580
     23  N         25.2540  -22.3730  -12.9250 N.2     1  UNL1       -0.1530
     24  N         25.1860  -22.9310  -11.7230 N.2     1  UNL1        0.0050
     25  C         23.6850  -21.2700  -14.5200 C.2     1  UNL1        0.2700
     26  N         22.7210  -20.3060  -14.4330 N.am    1  UNL1       -0.3650
     27  H         22.4640  -19.7980  -15.2640 H       1  UNL1        0.1590
     28  H         22.2830  -20.0870  -13.5470 H       1  UNL1        0.1590
     29  O         24.2330  -21.5350  -15.5850 O.2     1  UNL1       -0.2660
@<TRIPOS>BOND
     1    29    25    2
     2    27    26    1
     3    25    26   am
     4    25    22    1
     5    26    28    1
     6    22    23    1
     7    22    21    2
     8    23    24    2
     9    21    20    1
    10    24    20    1
    11    11    12    2
    12    11    10    1
    13    12    13    1
    14    20     1    1
    15    10     9    2
    16    13     8    2
    17     1     2    1
    18     1     6    1
    19     2     3    1
    20     9     8    1
    21     8     7    1
    22     6     3    1
    23     3     4   am
    24     7     4    1
    25     7    14    1
    26     4     5    2
    27    14    15    2
    28    14    19    1
    29    15    16    1
    30    19    18    2
    31    16    17    2
    32    18    17    1
