@<TRIPOS>MOLECULE
82203_out_ligand_01.pdbqt
 36 39 0 0 0
SMALL
GASTEIGER

@<TRIPOS>ATOM
      1  C         18.7560  -22.4840  -10.0120 C.2     1  UNL1        0.0820
      2  C         19.9500  -23.1880   -9.8030 C.2     1  UNL1        0.0490
      3  C         21.0540  -22.9350  -10.6110 C.2     1  UNL1        0.0240
      4  C         20.9780  -21.9840  -11.6240 C.2     1  UNL1        0.0250
      5  C         19.7850  -21.2890  -11.8400 C.2     1  UNL1        0.0100
      6  C         18.6570  -21.5180  -11.0330 C.2     1  UNL1       -0.0390
      7  C         17.4030  -20.7420  -11.3250 C.3     1  UNL1        0.0500
      8  N         22.2870  -23.5920  -10.3480 N.pl3   1  UNL1       -0.1810
      9  H         22.2640  -24.3810   -9.7010 H       1  UNL1        0.1460
     10  S         23.6350  -22.6130  -10.0210 S.O2    1  UNL1        0.2460
     11  O         24.4840  -23.3640   -9.1220 O.2     1  UNL1       -0.2060
     12  O         23.1600  -21.2960   -9.6510 O.2     1  UNL1       -0.2060
     13  C         24.4600  -22.5120  -11.5960 C.2     1  UNL1        0.0870
     14  C         24.2010  -23.5410  -12.5090 C.2     1  UNL1        0.0260
     15  C         24.8290  -23.5340  -13.7450 C.2     1  UNL1        0.0110
     16  C         25.7160  -22.5020  -14.0770 C.2     1  UNL1       -0.0320
     17  C         26.3880  -22.5230  -15.4250 C.3     1  UNL1        0.0500
     18  C         25.9840  -21.4600  -13.1800 C.2     1  UNL1        0.0740
     19  N         26.8500  -20.4980  -13.5590 N.2     1  UNL1       -0.2600
     20  C         25.3480  -21.4470  -11.9140 C.2     1  UNL1        0.0160
     21  C         27.1200  -19.4830  -12.7140 C.2     1  UNL1        0.1170
     22  C         26.5580  -19.3690  -11.4660 C.2     1  UNL1        0.0200
     23  C         25.6700  -20.3590  -11.0660 C.2     1  UNL1        0.0170
     24  S         17.3790  -22.8690   -8.9380 S.O2    1  UNL1        0.2460
     25  O         16.5610  -23.8590   -9.6080 O.2     1  UNL1       -0.2060
     26  O         16.8130  -21.6190   -8.4800 O.2     1  UNL1       -0.2060
     27  N         18.1920  -23.6560   -7.6630 N.pl3   1  UNL1       -0.1790
     28  H         17.6120  -24.4570   -7.3880 H       1  UNL1        0.1460
     29  C         18.3660  -22.8280   -6.4960 C.2     1  UNL1        0.0560
     30  C         19.2420  -21.7440   -6.5280 C.2     1  UNL1        0.0270
     31  C         19.3670  -20.9260   -5.4050 C.2     1  UNL1        0.0020
     32  C         18.6170  -21.1930   -4.2580 C.2     1  UNL1        0.0030
     33  C         17.7300  -22.2720   -4.2300 C.2     1  UNL1        0.0380
     34  C         17.5890  -23.0820   -5.3570 C.2     1  UNL1        0.0900
     35  O         16.7630  -24.1780   -5.4120 O.2     1  UNL1       -0.3540
     36  C         15.4560  -23.8870   -5.9060 C.3     1  UNL1        0.2100
@<TRIPOS>BOND
     1    17    16    1
     2    16    15    2
     3    16    18    1
     4    15    14    1
     5    19    18    2
     6    19    21    1
     7    18    20    1
     8    21    22    2
     9    14    13    2
    10    20    13    1
    11    20    23    2
    12     5     4    2
    13     5     6    1
    14     4     3    1
    15    13    10    1
    16    22    23    1
    17     7     6    1
    18     6     1    2
    19     3     8    1
    20     3     2    2
    21     8    10    1
    22     8     9    1
    23    10    12    2
    24    10    11    2
    25     1     2    1
    26     1    24    1
    27    25    24    2
    28    24    26    2
    29    24    27    1
    30    27    28    1
    31    27    29    1
    32    30    29    2
    33    30    31    1
    34    29    34    1
    35    36    35    1
    36    35    34    1
    37    31    32    2
    38    34    33    2
    39    32    33    1
