@<TRIPOS>MOLECULE
82206_out_ligand_01.pdbqt
 25 27 0 0 0
SMALL
GASTEIGER

@<TRIPOS>ATOM
      1  C         18.9200  -23.4590   -7.4850 C.2     1  UNL1        0.2520
      2  O         18.1360  -24.2310   -8.0230 O.2     1  UNL1       -0.2680
      3  N         20.1590  -23.1410   -7.9890 N.am    1  UNL1       -0.3480
      4  H         20.6970  -22.3980   -7.5670 H       1  UNL1        0.1630
      5  C         18.5310  -22.7440   -6.2430 C.2     1  UNL1        0.0330
      6  C         19.2590  -21.6430   -5.7830 C.2     1  UNL1        0.0170
      7  C         18.8290  -20.9520   -4.6540 C.2     1  UNL1        0.0020
      8  C         17.6750  -21.3650   -3.9820 C.2     1  UNL1        0.0170
      9  C         16.9630  -22.4850   -4.4200 C.2     1  UNL1        0.0320
     10  C         17.3940  -23.1810   -5.5510 C.2     1  UNL1        0.0340
     11  C         15.7310  -22.8630   -3.6900 C.2     1  UNL1        0.2490
     12  N         15.6730  -24.1190   -3.1530 N.am    1  UNL1       -0.3660
     13  H         14.8760  -24.2960   -2.5630 H       1  UNL1        0.1590
     14  H         16.4950  -24.6820   -2.9930 H       1  UNL1        0.1590
     15  O         14.8060  -22.0740   -3.5540 O.2     1  UNL1       -0.2680
     16  C         20.6420  -23.6750   -9.2540 C.3     1  UNL1        0.1180
     17  C         22.1240  -24.0600   -9.1490 C.3     1  UNL1        0.0300
     18  C         23.0260  -22.8290   -9.2160 C.3     1  UNL1        0.0070
     19  C         22.8480  -22.1120  -10.5530 C.3     1  UNL1        0.0390
     20  C         21.4000  -21.8910  -10.9220 C.2     1  UNL1       -0.0500
     21  C         21.0820  -20.9410  -11.9060 C.2     1  UNL1        0.0070
     22  C         20.3700  -22.6550  -10.3440 C.2     1  UNL1       -0.0290
     23  C         19.7600  -20.7230  -12.2900 C.2     1  UNL1        0.0010
     24  C         18.7370  -21.4640  -11.7100 C.2     1  UNL1        0.0010
     25  C         19.0410  -22.4240  -10.7450 C.2     1  UNL1        0.0100
@<TRIPOS>BOND
     1    23    21    1
     2    23    24    2
     3    21    20    2
     4    24    25    1
     5    20    19    1
     6    20    22    1
     7    25    22    2
     8    19    18    1
     9    22    16    1
    10    16    17    1
    11    16     3    1
    12    18    17    1
    13     2     1    2
    14     3     4    1
    15     3     1   am
    16     1     5    1
    17     5     6    2
    18     5    10    1
    19     6     7    1
    20    10     9    2
    21     7     8    2
    22     9     8    1
    23     9    11    1
    24    11    15    2
    25    11    12   am
    26    12    14    1
    27    12    13    1
