@<TRIPOS>MOLECULE
82213_out_ligand_01.pdbqt
 33 37 0 0 0
SMALL
GASTEIGER

@<TRIPOS>ATOM
      1  C         20.0470  -21.9640  -11.1880 C.2     1  UNL1        0.0330
      2  C         18.9100  -21.3640  -11.7870 C.2     1  UNL1        0.0180
      3  C         17.6240  -21.6070  -11.2860 C.2     1  UNL1        0.0190
      4  C         17.5200  -22.4410  -10.1900 C.2     1  UNL1        0.0480
      5  C         18.6300  -23.0130   -9.5940 C.2     1  UNL1        0.0490
      6  C         19.9100  -22.7920  -10.0640 C.2     1  UNL1        0.0350
      7  C         18.1580  -23.8170   -8.4680 C.2     1  UNL1        0.2620
      8  O         18.8830  -24.4720   -7.7440 O.2     1  UNL1       -0.2670
      9  N         16.7980  -23.6790   -8.4360 N.am    1  UNL1       -0.2740
     10  C         16.3410  -22.8810   -9.4450 C.2     1  UNL1        0.2620
     11  O         15.2030  -22.5780   -9.7450 O.2     1  UNL1       -0.2670
     12  C         21.4200  -21.7010  -11.7030 C.2     1  UNL1        0.2560
     13  O         21.5310  -21.0070  -12.7050 O.2     1  UNL1       -0.2670
     14  N         22.4390  -22.2540  -10.9500 N.am    1  UNL1       -0.3230
     15  H         22.1850  -22.6900  -10.0740 H       1  UNL1        0.1690
     16  C         23.8210  -22.2200  -11.2310 C.2     1  UNL1        0.0350
     17  C         24.7200  -21.3480  -10.6180 C.2     1  UNL1        0.0290
     18  C         26.0740  -21.3690  -10.9650 C.2     1  UNL1        0.0030
     19  C         26.5410  -22.2570  -11.9320 C.2     1  UNL1        0.0090
     20  C         25.6560  -23.1350  -12.5720 C.2     1  UNL1       -0.0380
     21  C         24.2990  -23.1130  -12.2010 C.2     1  UNL1        0.0380
     22  C         26.1780  -24.1130  -13.5980 C.3     1  UNL1        0.1670
     23  N         25.9100  -23.6870  -14.9630 N.pl3   1  UNL1       -0.3460
     24  C         26.4400  -22.5920  -15.5890 C.2     1  UNL1        0.1110
     25  C         25.8720  -22.5920  -16.8420 C.2     1  UNL1        0.1350
     26  N         25.0130  -23.6510  -16.9860 N.2     1  UNL1       -0.2550
     27  C         25.0480  -24.2870  -15.8370 C.2     1  UNL1        0.2090
     28  C         15.9500  -24.2970   -7.4420 C.3     1  UNL1        0.2000
     29  C         16.1560  -23.6220   -6.1340 C.2     1  UNL1        0.0700
     30  C         15.9240  -22.3360   -5.6830 C.2     1  UNL1        0.0360
     31  C         16.3280  -22.3110   -4.3270 C.2     1  UNL1        0.0270
     32  C         16.7820  -23.5760   -4.0380 C.2     1  UNL1        0.1420
     33  O         16.6820  -24.3770   -5.1280 O.2     1  UNL1       -0.3250
@<TRIPOS>BOND
     1    26    25    1
     2    26    27    2
     3    25    24    2
     4    27    23    1
     5    24    23    1
     6    23    22    1
     7    22    20    1
     8    13    12    2
     9    20    21    1
    10    20    19    2
    11    21    16    2
    12    19    18    1
    13     2     3    1
    14     2     1    2
    15    12     1    1
    16    12    14   am
    17     3     4    2
    18    16    14    1
    19    16    17    1
    20     1     6    1
    21    18    17    2
    22    14    15    1
    23     4     5    1
    24     4    10    1
    25     6     5    2
    26    11    10    2
    27     5     7    1
    28    10     9   am
    29     7     9   am
    30     7     8    2
    31     9    28    1
    32    28    29    1
    33    29    30    2
    34    29    33    1
    35    30    31    1
    36    33    32    1
    37    31    32    2
