@<TRIPOS>MOLECULE
82233_out_ligand_01.pdbqt
 32 34 0 0 0
SMALL
GASTEIGER

@<TRIPOS>ATOM
      1  C         22.7570  -22.6520  -11.4700 C.2     1  UNL1        0.0110
      2  C         22.3040  -21.7880  -12.4700 C.2     1  UNL1        0.0230
      3  C         21.0530  -21.1770  -12.3720 C.2     1  UNL1        0.0040
      4  C         20.2120  -21.4560  -11.2870 C.2     1  UNL1        0.0290
      5  C         20.6100  -22.3640  -10.3130 C.2     1  UNL1        0.0360
      6  C         21.8820  -22.9460  -10.4100 C.2     1  UNL1        0.0530
      7  N         24.0090  -23.2860  -11.5120 N.pl3   1  UNL1       -0.2800
      8  H         24.2130  -23.7330  -10.6220 H       1  UNL1        0.1280
      9  C         25.2310  -22.5600  -11.9170 C.3     1  UNL1        0.1430
     10  C         25.6570  -21.5090  -10.9070 C.3     1  UNL1        0.0360
     11  C         26.3200  -23.5030  -12.4560 C.2     1  UNL1        0.2220
     12  O         27.0490  -24.1400  -11.6900 O.2     1  UNL1       -0.2780
     13  N         26.5190  -23.5080  -13.8170 N.am    1  UNL1       -0.1830
     14  C         25.7820  -24.4050  -14.5210 C.2     1  UNL1        0.2770
     15  H         26.4070  -22.5990  -14.2470 H       1  UNL1        0.1400
     16  N         25.8670  -24.2090  -15.8700 N.am    1  UNL1       -0.2580
     17  O         25.0460  -25.2630  -14.0640 O.2     1  UNL1       -0.2610
     18  H         26.7890  -24.0310  -16.2340 H       1  UNL1        0.1280
     19  H         25.3520  -24.9000  -16.4050 H       1  UNL1        0.1280
     20  N         19.8040  -22.7680   -9.2260 N.am    1  UNL1       -0.3230
     21  C         20.0370  -22.5580   -7.8810 C.2     1  UNL1        0.2560
     22  O         21.0350  -22.0760   -7.3650 O.2     1  UNL1       -0.2670
     23  H         18.9590  -23.2670   -9.4710 H       1  UNL1        0.1690
     24  C         18.9200  -22.9980   -7.0030 C.2     1  UNL1        0.0350
     25  C         18.2770  -24.2370   -7.2200 C.2     1  UNL1        0.0200
     26  C         17.2470  -24.6570   -6.3750 C.2     1  UNL1        0.0410
     27  C         16.8870  -23.8200   -5.3400 C.2     1  UNL1        0.1050
     28  C         17.5020  -22.6090   -5.1380 C.2     1  UNL1        0.1060
     29  O         15.9170  -24.0680   -4.4200 O.2     1  UNL1       -0.3230
     30  C         18.5160  -22.1620   -5.9560 C.2     1  UNL1        0.0560
     31  O         16.9940  -21.9460   -4.0610 O.2     1  UNL1       -0.3230
     32  C         15.9970  -22.8790   -3.6040 C.3     1  UNL1        0.3520
@<TRIPOS>BOND
     1    19    16    1
     2    18    16    1
     3    16    14   am
     4    14    17    2
     5    14    13   am
     6    15    13    1
     7    13    11   am
     8     2     3    1
     9     2     1    2
    10    11     9    1
    11    11    12    2
    12     3     4    2
    13     9     7    1
    14     9    10    1
    15     7     1    1
    16     7     8    1
    17     1     6    1
    18     4     5    1
    19     6     5    2
    20     5    20    1
    21    23    20    1
    22    20    21   am
    23    21    22    2
    24    21    24    1
    25    25    24    2
    26    25    26    1
    27    24    30    1
    28    26    27    2
    29    30    28    2
    30    27    28    1
    31    27    29    1
    32    28    31    1
    33    29    32    1
    34    31    32    1
