@<TRIPOS>MOLECULE
82236_out_ligand_01.pdbqt
 37 39 0 0 0
SMALL
GASTEIGER

@<TRIPOS>ATOM
      1  N         21.6630  -23.3270  -10.2530 N.pl3   1  UNL1       -0.2630
      2  S         23.1560  -22.5310  -10.0690 S.O2    1  UNL1        0.2670
      3  O         24.0050  -23.3620   -9.2410 O.2     1  UNL1       -0.2000
      4  O         22.9440  -21.1330   -9.7930 O.2     1  UNL1       -0.2000
      5  C         23.9680  -22.5030  -11.5940 C.2     1  UNL1        0.0970
      6  C         25.2030  -23.0380  -11.8820 C.2     1  UNL1        0.1160
      7  N         25.4810  -22.7660  -13.1980 N.pl3   1  UNL1       -0.3550
      8  C         26.6590  -23.2620  -13.8790 C.3     1  UNL1        0.1560
      9  C         24.4500  -22.0330  -13.7600 C.2     1  UNL1        0.1030
     10  C         23.4730  -21.9170  -12.7810 C.2     1  UNL1        0.0620
     11  C         24.3590  -21.5190  -15.1070 C.2     1  UNL1        0.2660
     12  N         24.5970  -20.1820  -15.2530 N.am    1  UNL1       -0.3650
     13  H         24.4210  -19.5740  -14.4690 H       1  UNL1        0.1590
     14  H         24.3560  -19.8160  -16.1640 H       1  UNL1        0.1590
     15  O         24.0300  -22.1900  -16.0770 O.2     1  UNL1       -0.2660
     16  C         21.2670  -24.2250   -9.1390 C.3     1  UNL1        0.2450
     17  C         20.3610  -23.5180   -8.1450 C.2     1  UNL1        0.2410
     18  O         20.7450  -22.5070   -7.5550 O.2     1  UNL1       -0.2710
     19  N         19.1110  -24.1070   -8.0170 N.am    1  UNL1       -0.3260
     20  H         18.8810  -24.8480   -8.6730 H       1  UNL1        0.1690
     21  C         18.0580  -23.6760   -7.1840 C.2     1  UNL1        0.0340
     22  C         17.1920  -22.7030   -7.6950 C.2     1  UNL1        0.0300
     23  C         16.1390  -22.2080   -6.9170 C.2     1  UNL1        0.0190
     24  C         15.9300  -22.6870   -5.6180 C.2     1  UNL1        0.0320
     25  C         16.7710  -23.6820   -5.1170 C.2     1  UNL1        0.0190
     26  C         17.8290  -24.1640   -5.8960 C.2     1  UNL1        0.0300
     27  C         14.8040  -22.1120   -4.8310 C.2     1  UNL1        0.2490
     28  N         13.7370  -21.5950   -5.5100 N.am    1  UNL1       -0.3660
     29  H         13.5950  -21.6820   -6.4990 H       1  UNL1        0.1590
     30  H         12.9560  -21.2730   -4.9510 H       1  UNL1        0.1590
     31  O         14.8060  -22.1290   -3.6090 O.2     1  UNL1       -0.2680
     32  C         20.5950  -22.5160  -10.7680 C.2     1  UNL1        0.0450
     33  C         19.3170  -23.0830  -10.8030 C.2     1  UNL1        0.0300
     34  C         18.2260  -22.3170  -11.2010 C.2     1  UNL1        0.0020
     35  C         18.4010  -20.9760  -11.5470 C.2     1  UNL1        0.0000
     36  C         19.6700  -20.3970  -11.4770 C.2     1  UNL1        0.0020
     37  C         20.7660  -21.1600  -11.0750 C.2     1  UNL1        0.0300
@<TRIPOS>BOND
     1    14    12    1
     2    15    11    2
     3    12    11   am
     4    12    13    1
     5    11     9    1
     6     8     7    1
     7     9     7    1
     8     9    10    2
     9     7     6    1
    10    10     5    1
    11     6     5    2
    12     5     2    1
    13    35    36    2
    14    35    34    1
    15    36    37    1
    16    34    33    2
    17    37    32    2
    18    33    32    1
    19    32     1    1
    20     1     2    1
    21     1    16    1
    22     2     4    2
    23     2     3    2
    24    16    17    1
    25    20    19    1
    26    17    19   am
    27    17    18    2
    28    19    21    1
    29    22    21    2
    30    22    23    1
    31    21    26    1
    32    23    24    2
    33    29    28    1
    34    26    25    2
    35    24    25    1
    36    24    27    1
    37    28    30    1
    38    28    27   am
    39    27    31    2
