@<TRIPOS>MOLECULE
82249_out_ligand_01.pdbqt
 32 35 0 0 0
SMALL
GASTEIGER

@<TRIPOS>ATOM
      1  C         25.7710  -21.2000  -11.3150 C.3     1  UNL1        0.0500
      2  C         24.3940  -21.6640  -10.9140 C.2     1  UNL1       -0.0350
      3  C         24.1010  -21.7500   -9.5410 C.2     1  UNL1        0.0100
      4  C         22.8480  -22.1740   -9.1040 C.2     1  UNL1        0.0170
      5  C         21.8720  -22.5150  -10.0410 C.2     1  UNL1        0.0340
      6  C         22.1450  -22.4170  -11.4130 C.2     1  UNL1        0.0470
      7  C         23.4040  -22.0050  -11.8640 C.2     1  UNL1        0.0420
      8  C         20.5190  -22.9520   -9.6120 C.2     1  UNL1        0.2520
      9  O         19.8360  -23.6620  -10.3390 O.2     1  UNL1       -0.2680
     10  N         20.1160  -22.5160   -8.3660 N.am    1  UNL1       -0.3520
     11  H         20.7400  -21.9450   -7.8120 H       1  UNL1        0.1630
     12  C         18.7840  -22.8060   -7.8460 C.3     1  UNL1        0.0890
     13  C         17.7110  -22.1120   -8.6890 C.3     1  UNL1        0.0300
     14  C         16.3190  -22.5250   -8.2200 C.3     1  UNL1        0.0410
     15  C         16.1420  -22.4310   -6.7250 C.2     1  UNL1       -0.0520
     16  C         14.8440  -22.4370   -6.1910 C.2     1  UNL1        0.0070
     17  C         17.2460  -22.3980   -5.8550 C.2     1  UNL1       -0.0500
     18  C         14.6430  -22.3840   -4.8120 C.2     1  UNL1        0.0010
     19  C         15.7350  -22.3320   -3.9510 C.2     1  UNL1        0.0010
     20  C         17.0300  -22.3360   -4.4690 C.2     1  UNL1        0.0070
     21  C         18.6610  -22.3690   -6.3790 C.3     1  UNL1        0.0640
     22  N         23.7250  -21.9010  -13.2410 N.am    1  UNL1       -0.3220
     23  C         24.5150  -22.7450  -14.0010 C.2     1  UNL1        0.2590
     24  O         25.1170  -23.7300  -13.5870 O.2     1  UNL1       -0.2670
     25  H         23.3440  -21.0970  -13.7210 H       1  UNL1        0.1690
     26  C         24.6500  -22.4070  -15.4530 C.2     1  UNL1        0.0700
     27  C         24.8870  -21.0690  -15.8070 C.2     1  UNL1        0.0200
     28  C         25.0230  -20.6970  -17.1480 C.2     1  UNL1        0.0010
     29  C         24.9220  -21.6590  -18.1530 C.2     1  UNL1        0.0030
     30  C         24.6850  -22.9890  -17.8150 C.2     1  UNL1        0.0430
     31  C         24.5520  -23.3540  -16.4750 C.2     1  UNL1        0.1320
     32  F         24.3210  -24.6480  -16.2000 F       1  UNL1       -0.2050
@<TRIPOS>BOND
     1    29    30    2
     2    29    28    1
     3    30    31    1
     4    28    27    2
     5    31    32    1
     6    31    26    2
     7    27    26    1
     8    26    23    1
     9    23    24    2
    10    23    22   am
    11    25    22    1
    12    22     7    1
    13     7     6    1
    14     7     2    2
    15     6     5    2
    16     1     2    1
    17     2     3    1
    18     9     8    2
    19     5     8    1
    20     5     4    1
    21     8    10   am
    22     3     4    2
    23    13    14    1
    24    13    12    1
    25    10    12    1
    26    10    11    1
    27    14    15    1
    28    12    21    1
    29    15    16    2
    30    15    17    1
    31    21    17    1
    32    16    18    1
    33    17    20    2
    34    18    19    2
    35    20    19    1
