@<TRIPOS>MOLECULE
82270_out_ligand_01.pdbqt
 29 32 0 0 0
SMALL
GASTEIGER

@<TRIPOS>ATOM
      1  C         22.6320  -22.4840  -11.1090 C.2     1  UNL1       -0.0190
      2  C         22.1190  -21.7570  -12.2000 C.2     1  UNL1        0.0100
      3  C         20.7820  -21.3650  -12.2400 C.2     1  UNL1        0.0030
      4  C         19.9270  -21.6960  -11.1910 C.2     1  UNL1        0.0290
      5  C         20.3980  -22.4290  -10.0980 C.2     1  UNL1        0.0350
      6  C         21.7450  -22.8100  -10.0630 C.2     1  UNL1        0.0390
      7  N         19.4720  -22.7280   -9.0750 N.am    1  UNL1       -0.3230
      8  C         19.6220  -22.5140   -7.7170 C.2     1  UNL1        0.2560
      9  O         20.6190  -22.0970   -7.1400 O.2     1  UNL1       -0.2670
     10  H         18.6430  -23.2290   -9.3680 H       1  UNL1        0.1690
     11  C         18.4370  -22.8910   -6.8980 C.2     1  UNL1        0.0330
     12  C         17.6020  -23.9260   -7.3640 C.2     1  UNL1        0.0170
     13  C         16.4770  -24.3160   -6.6310 C.2     1  UNL1        0.0110
     14  C         16.2150  -23.6630   -5.4380 C.2     1  UNL1       -0.0260
     15  C         17.0490  -22.6580   -4.9640 C.2     1  UNL1       -0.0250
     16  C         15.1230  -23.8940   -4.4590 C.3     1  UNL1        0.2070
     17  C         18.1700  -22.2580   -5.6730 C.2     1  UNL1        0.0270
     18  C         16.5520  -22.1980   -3.6430 C.3     1  UNL1        0.2070
     19  O         15.2410  -22.7970   -3.5240 O.3     1  UNL1       -0.3820
     20  C         24.1010  -22.8980  -11.0840 C.3     1  UNL1        0.1390
     21  C         24.6060  -23.5840   -9.8080 C.3     1  UNL1        0.0540
     22  N         24.4140  -23.7360  -12.2290 N.am    1  UNL1       -0.3210
     23  C         25.3880  -23.1960  -13.0300 C.2     1  UNL1        0.3240
     24  H         23.9400  -24.5980  -12.4670 H       1  UNL1        0.1650
     25  O         25.8000  -23.6940  -14.0620 O.2     1  UNL1       -0.2470
     26  N         25.7840  -22.0170  -12.4980 N.am    1  UNL1       -0.2770
     27  C         25.0540  -21.7150  -11.3870 C.2     1  UNL1        0.2580
     28  H         26.4600  -21.4070  -12.9230 H       1  UNL1        0.1730
     29  O         25.1680  -20.6790  -10.7480 O.2     1  UNL1       -0.2700
@<TRIPOS>BOND
     1    25    23    2
     2    23    26   am
     3    23    22   am
     4    28    26    1
     5    26    27   am
     6    24    22    1
     7     3     2    1
     8     3     4    2
     9    22    20    1
    10     2     1    2
    11    27    20    1
    12    27    29    2
    13     4     5    1
    14     1    20    1
    15     1     6    1
    16    20    21    1
    17     5     6    2
    18     5     7    1
    19    10     7    1
    20     7     8   am
    21     8     9    2
    22     8    11    1
    23    12    11    2
    24    12    13    1
    25    11    17    1
    26    13    14    2
    27    17    15    2
    28    14    15    1
    29    14    16    1
    30    15    18    1
    31    16    19    1
    32    18    19    1
