@<TRIPOS>MOLECULE
82297_out_ligand_01.pdbqt
 33 36 0 0 0
SMALL
GASTEIGER

@<TRIPOS>ATOM
      1  C         21.8540  -22.9530   -8.8570 C.2     1  UNL1        0.0320
      2  C         21.4930  -24.2830   -9.1060 C.2     1  UNL1        0.0200
      3  C         20.3180  -24.8040   -8.5630 C.2     1  UNL1        0.0380
      4  C         19.5000  -23.9940   -7.7740 C.2     1  UNL1        0.0780
      5  C         19.8770  -22.6810   -7.4820 C.2     1  UNL1        0.0380
      6  C         21.0500  -22.1560   -8.0310 C.2     1  UNL1        0.0200
      7  O         18.3870  -24.5770   -7.2210 O.2     1  UNL1       -0.2900
      8  C         17.4550  -23.7460   -6.6060 C.2     1  UNL1        0.2060
      9  N         17.7090  -23.2610   -5.3590 N.2     1  UNL1       -0.2330
     10  C         16.7720  -22.4280   -4.8580 C.2     1  UNL1        0.1380
     11  C         15.6300  -22.0830   -5.5610 C.2     1  UNL1        0.1370
     12  N         15.3670  -22.5620   -6.7990 N.2     1  UNL1       -0.2480
     13  C         16.3010  -23.4010   -7.3230 C.2     1  UNL1        0.1510
     14  S         15.9600  -24.0220   -8.9590 S.3     1  UNL1       -0.0660
     15  C         16.9090  -22.8560   -9.9190 C.2     1  UNL1        0.0070
     16  C         18.1180  -23.2540  -10.5090 C.2     1  UNL1        0.0220
     17  C         18.8560  -22.3470  -11.2710 C.2     1  UNL1        0.0430
     18  C         18.3880  -21.0470  -11.4310 C.2     1  UNL1        0.1160
     19  F         19.0930  -20.1820  -12.1710 F       1  UNL1       -0.2060
     20  C         17.1960  -20.6350  -10.8440 C.2     1  UNL1        0.0430
     21  C         16.4550  -21.5400  -10.0830 C.2     1  UNL1        0.0220
     22  C         23.1050  -22.4340   -9.4710 C.2     1  UNL1        0.2510
     23  O         23.4300  -21.2630   -9.3070 O.2     1  UNL1       -0.2680
     24  N         23.8600  -23.3520  -10.1700 N.am    1  UNL1       -0.3530
     25  H         23.6500  -24.3330  -10.0490 H       1  UNL1        0.1630
     26  C         25.1900  -23.0240  -10.6380 C.3     1  UNL1        0.1610
     27  C         25.1690  -22.6790  -12.1060 C.2     1  UNL1       -0.0380
     28  C         25.2500  -23.6970  -13.0730 C.2     1  UNL1        0.0090
     29  C         25.1990  -23.3920  -14.4350 C.2     1  UNL1        0.0040
     30  C         25.0590  -22.0670  -14.8450 C.2     1  UNL1        0.0420
     31  C         24.9710  -21.0620  -13.8900 C.2     1  UNL1        0.1170
     32  F         24.8310  -19.7900  -14.2820 F       1  UNL1       -0.2060
     33  C         25.0200  -21.3530  -12.5300 C.2     1  UNL1        0.0510
@<TRIPOS>BOND
     1    30    29    2
     2    30    31    1
     3    29    28    1
     4    32    31    1
     5    31    33    2
     6    28    27    2
     7    33    27    1
     8    19    18    1
     9    27    26    1
    10    18    17    2
    11    18    20    1
    12    17    16    1
    13    20    21    2
    14    26    24    1
    15    16    15    2
    16    24    25    1
    17    24    22   am
    18    21    15    1
    19    15    14    1
    20    22    23    2
    21    22     1    1
    22     2     1    2
    23     2     3    1
    24    14    13    1
    25     1     6    1
    26     3     4    2
    27     6     5    2
    28     4     5    1
    29     4     7    1
    30    13    12    2
    31    13     8    1
    32     7     8    1
    33    12    11    1
    34     8     9    2
    35    11    10    2
    36     9    10    1
