@<TRIPOS>MOLECULE
82295_out_ligand_01.pdbqt
 28 31 0 0 0
SMALL
GASTEIGER

@<TRIPOS>ATOM
      1  C         18.0810  -22.3760  -10.3230 C.2     1  UNL1       -0.0400
      2  C         18.5350  -21.6660  -11.4540 C.2     1  UNL1        0.0110
      3  C         19.8870  -21.6740  -11.8180 C.2     1  UNL1        0.0310
      4  C         20.7760  -22.3990  -11.0460 C.2     1  UNL1        0.0430
      5  C         20.3340  -23.1130   -9.9320 C.2     1  UNL1       -0.0290
      6  C         18.9970  -23.1180   -9.5620 C.2     1  UNL1        0.0180
      7  C         21.4550  -23.8580   -9.2820 C.2     1  UNL1        0.0610
      8  C         22.6700  -23.3680  -10.0810 C.2     1  UNL1        0.1370
      9  N         22.1660  -22.5530  -11.2030 N.am    1  UNL1       -0.3130
     10  C         22.9140  -22.0560  -12.2580 C.2     1  UNL1        0.2580
     11  O         22.4820  -21.4690  -13.2450 O.2     1  UNL1       -0.2670
     12  C         16.6190  -22.3840   -9.9670 C.3     1  UNL1        0.1610
     13  N         16.4360  -22.2000   -8.5520 N.am    1  UNL1       -0.3510
     14  C         15.9580  -23.2100   -7.7510 C.2     1  UNL1        0.2750
     15  O         15.5650  -24.2820   -8.2060 O.2     1  UNL1       -0.2650
     16  H         16.8420  -21.3900   -8.0970 H       1  UNL1        0.1630
     17  C         15.9670  -22.8980   -6.3370 C.2     1  UNL1        0.1440
     18  C         14.9580  -22.9260   -5.3930 C.2     1  UNL1        0.0460
     19  C         15.5370  -22.5250   -4.1650 C.2     1  UNL1        0.0480
     20  C         16.8630  -22.2760   -4.4290 C.2     1  UNL1        0.1220
     21 BR         18.1500  -21.7010   -3.1530 Br      1  UNL1       -0.0230
     22  O         17.1370  -22.4980   -5.7430 O.2     1  UNL1       -0.2980
     23  C         24.3730  -22.2790  -12.2040 C.2     1  UNL1        0.0320
     24  C         25.1990  -21.3900  -11.5090 C.2     1  UNL1        0.0170
     25  C         26.5740  -21.6130  -11.4760 C.2     1  UNL1        0.0010
     26  C         27.1200  -22.7120  -12.1440 C.2     1  UNL1        0.0000
     27  C         26.2940  -23.5850  -12.8550 C.2     1  UNL1        0.0010
     28  C         24.9170  -23.3660  -12.8930 C.2     1  UNL1        0.0170
@<TRIPOS>BOND
     1    11    10    2
     2    28    27    1
     3    28    23    2
     4    27    26    2
     5    10    23    1
     6    10     9   am
     7    23    24    1
     8    26    25    1
     9     3     2    1
    10     3     4    2
    11    24    25    2
    12     2     1    2
    13     9     4    1
    14     9     8    1
    15     4     5    1
    16     1    12    1
    17     1     6    1
    18     8     7    2
    19    12    13    1
    20     5     6    2
    21     5     7    1
    22    13    16    1
    23    13    14   am
    24    15    14    2
    25    14    17    1
    26    17    22    1
    27    17    18    2
    28    22    20    1
    29    18    19    1
    30    20    19    2
    31    20    21    1
