@<TRIPOS>MOLECULE
82317_out_ligand_01.pdbqt
 35 39 0 0 0
SMALL
GASTEIGER

@<TRIPOS>ATOM
      1  N         14.7800  -22.5250   -7.0940 N.1     1  UNL1       -0.1910
      2  C         15.8300  -22.5280   -7.5870 C.1     1  UNL1        0.1060
      3  C         17.1360  -22.5330   -8.1550 C.2     1  UNL1        0.1230
      4  C         18.2750  -22.5310   -7.4240 C.2     1  UNL1        0.0030
      5  C         19.5710  -22.5350   -8.0940 C.2     1  UNL1        0.0440
      6  C         19.6550  -22.5460   -9.4330 C.2     1  UNL1        0.0460
      7  N         18.5050  -22.5460  -10.1770 N.am    1  UNL1       -0.3220
      8  C         17.2390  -22.5450   -9.6460 C.2     1  UNL1        0.2670
      9  O         16.2540  -22.5530  -10.3780 O.2     1  UNL1       -0.2660
     10  H         18.5590  -22.5670  -11.1880 H       1  UNL1        0.1690
     11  C         18.2140  -22.5230   -5.9480 C.2     1  UNL1       -0.0240
     12  C         17.7880  -23.6630   -5.2530 C.2     1  UNL1        0.0120
     13  C         17.7230  -23.6510   -3.8590 C.2     1  UNL1        0.0010
     14  C         18.0770  -22.5010   -3.1530 C.2     1  UNL1        0.0000
     15  C         18.4930  -21.3610   -3.8400 C.2     1  UNL1        0.0010
     16  C         18.5610  -21.3690   -5.2340 C.2     1  UNL1        0.0120
     17  C         20.9460  -22.5420  -10.1380 C.2     1  UNL1       -0.0090
     18  C         21.0500  -21.9870  -11.4190 C.2     1  UNL1        0.0160
     19  C         22.2740  -21.9870  -12.0970 C.2     1  UNL1        0.0300
     20  C         23.4150  -22.5620  -11.5240 C.2     1  UNL1        0.0320
     21  C         23.3120  -23.0880  -10.2300 C.2     1  UNL1        0.0300
     22  C         22.0900  -23.0900   -9.5480 C.2     1  UNL1        0.0160
     23  N         24.6720  -22.5280  -12.1670 N.pl3   1  UNL1       -0.3550
     24  H         24.7380  -23.2210  -12.9090 H       1  UNL1        0.1660
     25  C         25.4400  -21.3860  -12.5330 C.2     1  UNL1        0.0460
     26  C         26.0910  -20.6190  -11.5660 C.2     1  UNL1        0.0490
     27  C         26.7600  -19.4820  -11.9670 C.2     1  UNL1        0.1190
     28  N         26.8140  -19.0510  -13.2430 N.2     1  UNL1       -0.2600
     29  C         26.1750  -19.7680  -14.1800 C.2     1  UNL1        0.0700
     30  C         26.2210  -19.3200  -15.4910 C.2     1  UNL1        0.0560
     31  C         25.4610  -20.9500  -13.8820 C.2     1  UNL1        0.0190
     32  C         25.5810  -20.0130  -16.5150 C.2     1  UNL1        0.0360
     33 CL         25.6600  -19.4220  -18.1300 Cl      1  UNL1       -0.0840
     34  C         24.8790  -21.1780  -16.2430 C.2     1  UNL1        0.0250
     35  C         24.8210  -21.6480  -14.9330 C.2     1  UNL1        0.0180
@<TRIPOS>BOND
     1    33    32    1
     2    32    34    1
     3    32    30    2
     4    34    35    2
     5    30    29    1
     6    35    31    1
     7    29    31    1
     8    29    28    2
     9    31    25    2
    10    28    27    1
    11    24    23    1
    12    25    23    1
    13    25    26    1
    14    23    20    1
    15    19    20    2
    16    19    18    1
    17    27    26    2
    18    20    21    1
    19    18    17    2
    20    10     7    1
    21     9     8    2
    22    21    22    2
    23     7     8   am
    24     7     6    1
    25    17    22    1
    26    17     6    1
    27     8     3    1
    28     6     5    2
    29     3     2    1
    30     3     4    2
    31     5     4    1
    32     2     1    3
    33     4    11    1
    34    11    12    2
    35    11    16    1
    36    12    13    1
    37    16    15    2
    38    13    14    2
    39    15    14    1
