@<TRIPOS>MOLECULE
82312_out_ligand_01.pdbqt
 27 29 0 0 0
SMALL
GASTEIGER

@<TRIPOS>ATOM
      1  C         16.9690  -22.1290   -9.9950 C.2     1  UNL1        0.1430
      2  C         16.3320  -23.3530  -10.1110 C.2     1  UNL1        0.0450
      3  C         15.8110  -23.6730   -8.8320 C.2     1  UNL1        0.0360
      4  C         16.1560  -22.6290   -8.0020 C.2     1  UNL1        0.0660
      5  O         16.8580  -21.6940   -8.6980 O.2     1  UNL1       -0.3090
      6  C         17.6890  -21.2810  -10.9310 C.2     1  UNL1        0.2750
      7  N         19.0000  -21.6490  -11.1660 N.am    1  UNL1       -0.3510
      8  H         19.3360  -22.5290  -10.8080 H       1  UNL1        0.1630
      9  O         17.1850  -20.3070  -11.4860 O.2     1  UNL1       -0.2650
     10  C         19.8120  -20.9900  -12.1610 C.3     1  UNL1        0.1610
     11  C         21.1970  -21.5810  -12.1920 C.2     1  UNL1       -0.0410
     12  C         22.1050  -21.2330  -13.2000 C.2     1  UNL1        0.0090
     13  C         23.3940  -21.7720  -13.2090 C.2     1  UNL1        0.0070
     14  C         23.7980  -22.6680  -12.2110 C.2     1  UNL1       -0.0620
     15  C         25.1900  -23.2250  -12.2210 C.3     1  UNL1        0.0480
     16  C         22.8950  -23.0070  -11.1970 C.2     1  UNL1        0.0070
     17  C         21.6060  -22.4700  -11.1880 C.2     1  UNL1        0.0090
     18  C         15.9280  -22.3470   -6.5650 C.3     1  UNL1        0.1790
     19  S         17.0120  -23.3970   -5.5370 S.O     1  UNL1        0.0560
     20  O         16.6120  -24.8260   -5.7730 O.2     1  UNL1       -0.2520
     21  C         18.5260  -23.1410   -6.5070 C.2     1  UNL1        0.0370
     22  C         18.9130  -24.1150   -7.4400 C.2     1  UNL1        0.0210
     23  C         20.0570  -23.9420   -8.2170 C.2     1  UNL1        0.0010
     24  C         20.8280  -22.7930   -8.0670 C.2     1  UNL1        0.0010
     25  C         20.4600  -21.8230   -7.1350 C.2     1  UNL1        0.0080
     26  C         19.3140  -21.9840   -6.3400 C.2     1  UNL1       -0.0430
     27  C         18.9700  -20.9170   -5.3370 C.3     1  UNL1        0.0490
@<TRIPOS>BOND
     1    13    12    1
     2    13    14    2
     3    12    11    2
     4    15    14    1
     5    14    16    1
     6    11    10    1
     7    11    17    1
     8    10     7    1
     9     9     6    2
    10    16    17    2
    11     7     6   am
    12     7     8    1
    13     6     1    1
    14     2     1    2
    15     2     3    1
    16     1     5    1
    17     3     4    2
    18     5     4    1
    19    23    24    2
    20    23    22    1
    21    24    25    1
    22     4    18    1
    23    22    21    2
    24    25    26    2
    25    18    19    1
    26    21    26    1
    27    21    19    1
    28    26    27    1
    29    20    19    2
