@<TRIPOS>MOLECULE
82339_out_ligand_01.pdbqt
 35 39 0 0 0
SMALL
GASTEIGER

@<TRIPOS>ATOM
      1  C         21.9800  -21.5960  -12.7570 C.2     1  UNL1        0.0320
      2  C         20.6540  -21.1650  -12.6860 C.2     1  UNL1        0.0190
      3  C         19.8320  -21.6110  -11.6460 C.2     1  UNL1        0.0310
      4  C         20.3060  -22.4990  -10.6640 C.2     1  UNL1        0.0420
      5  C         21.6350  -22.9340  -10.7650 C.2     1  UNL1        0.0310
      6  C         22.4640  -22.4960  -11.8060 C.2     1  UNL1        0.0190
      7  N         19.4340  -22.9310   -9.6020 N.am    1  UNL1       -0.2670
      8  C         18.1050  -22.4980   -9.6200 C.2     1  UNL1        0.3260
      9  O         17.5660  -21.8260  -10.5010 O.2     1  UNL1       -0.2470
     10  N         17.3270  -22.8470   -8.5520 N.am    1  UNL1       -0.3340
     11  C         17.8620  -23.3450   -7.3160 C.3     1  UNL1        0.1270
     12  H         16.4390  -22.3620   -8.5500 H       1  UNL1        0.1650
     13  C         18.8990  -24.3850   -7.6410 C.3     1  UNL1        0.0920
     14  C         18.4910  -22.2350   -6.5210 C.2     1  UNL1       -0.0020
     15  C         19.9910  -23.6270   -8.4080 C.3     1  UNL1        0.1490
     16  C         21.0340  -24.7080   -8.7800 C.3     1  UNL1        0.0720
     17  O         20.6520  -22.6790   -7.5420 O.2     1  UNL1       -0.3190
     18  C         19.8510  -21.9580   -6.6950 C.2     1  UNL1        0.0800
     19  C         20.4590  -20.9300   -5.9780 C.2     1  UNL1        0.0370
     20  C         19.7060  -20.1590   -5.0910 C.2     1  UNL1        0.0030
     21  C         18.3480  -20.4210   -4.9160 C.2     1  UNL1        0.0010
     22  C         17.7390  -21.4550   -5.6310 C.2     1  UNL1        0.0120
     23  C         22.8950  -21.1220  -13.8280 C.2     1  UNL1        0.2510
     24  N         24.0170  -21.8960  -14.0430 N.am    1  UNL1       -0.3570
     25  H         24.1280  -22.7670  -13.5400 H       1  UNL1        0.1620
     26  O         22.6200  -20.1180  -14.4750 O.2     1  UNL1       -0.2680
     27  C         24.9770  -21.5730  -15.0810 C.3     1  UNL1        0.1270
     28  C         26.3920  -21.4130  -14.5150 C.3     1  UNL1        0.0580
     29  C         26.5810  -22.2150  -13.2520 C.2     1  UNL1       -0.0570
     30  C         26.9600  -23.5630  -13.3250 C.2     1  UNL1        0.0070
     31  C         27.1210  -24.3140  -12.1590 C.2     1  UNL1        0.0070
     32  C         26.8930  -23.7330  -10.9020 C.2     1  UNL1       -0.0620
     33  C         27.0870  -24.5270   -9.6410 C.3     1  UNL1        0.0480
     34  C         26.5150  -22.3850  -10.8290 C.2     1  UNL1        0.0070
     35  C         26.3550  -21.6340  -11.9940 C.2     1  UNL1        0.0070
@<TRIPOS>BOND
     1    27    28    1
     2    27    24    1
     3    28    29    1
     4    26    23    2
     5    24    23   am
     6    24    25    1
     7    23     1    1
     8    30    29    2
     9    30    31    1
    10    29    35    1
    11     1     2    2
    12     1     6    1
    13     2     3    1
    14    31    32    2
    15    35    34    2
    16     6     5    2
    17     3     4    2
    18    32    34    1
    19    32    33    1
    20     5     4    1
    21     4     7    1
    22     9     8    2
    23     8     7   am
    24     8    10   am
    25     7    15    1
    26    16    15    1
    27    10    12    1
    28    10    11    1
    29    15    13    1
    30    15    17    1
    31    13    11    1
    32    17    18    1
    33    11    14    1
    34    18    14    2
    35    18    19    1
    36    14    22    1
    37    19    20    2
    38    22    21    2
    39    20    21    1
