@<TRIPOS>MOLECULE
82344_out_ligand_01.pdbqt
 36 40 0 0 0
SMALL
GASTEIGER

@<TRIPOS>ATOM
      1  N         20.6710  -23.5730   -8.8240 N.3     1  UNL1        0.1040
      2  C         20.1590  -23.6890  -10.2020 C.3     1  UNL1        0.3120
      3  C         19.0420  -22.6950  -10.4790 C.2     1  UNL1       -0.0240
      4  C         19.2190  -21.5280  -11.2490 C.2     1  UNL1       -0.0540
      5  C         18.1130  -20.6950  -11.4850 C.2     1  UNL1        0.0080
      6  C         20.5530  -21.1440  -11.8340 C.3     1  UNL1        0.0490
      7  C         16.8490  -21.0060  -10.9750 C.2     1  UNL1        0.0070
      8  C         16.6640  -22.1520  -10.2010 C.2     1  UNL1       -0.0610
      9  C         15.3010  -22.5270   -9.6910 C.3     1  UNL1        0.0480
     10  C         17.7600  -22.9890   -9.9670 C.2     1  UNL1        0.0160
     11  C         20.3910  -22.2290   -8.2830 C.3     1  UNL1        0.3120
     12  C         19.5250  -22.2400   -7.0410 C.2     1  UNL1       -0.0270
     13  C         19.5750  -21.1690   -6.1190 C.2     1  UNL1        0.0120
     14  C         18.8240  -21.1980   -4.9420 C.2     1  UNL1        0.0400
     15  C         18.0150  -22.2940   -4.7220 C.2     1  UNL1        0.1050
     16  C         17.9400  -23.3300   -5.6220 C.2     1  UNL1        0.1050
     17  O         17.2450  -22.5030   -3.6220 O.2     1  UNL1       -0.3230
     18  C         18.6770  -23.3340   -6.7880 C.2     1  UNL1        0.0480
     19  O         17.0990  -24.3170   -5.2100 O.2     1  UNL1       -0.3230
     20  C         16.6700  -23.7900   -3.9370 C.3     1  UNL1        0.3520
     21  C         22.1110  -23.9180   -8.7830 C.3     1  UNL1        0.3590
     22  C         22.9740  -23.1090   -9.7050 C.2     1  UNL1        0.1740
     23  N         23.2610  -23.3290  -10.9760 N.2     1  UNL1       -0.2190
     24  C         24.0690  -22.2500  -11.3160 C.2     1  UNL1        0.1490
     25  C         24.2480  -21.4450  -10.2150 C.2     1  UNL1        0.1810
     26  O         23.5780  -21.9990   -9.1710 O.2     1  UNL1       -0.3030
     27  C         24.6300  -22.0350  -12.6450 C.2     1  UNL1        0.2720
     28  O         25.0170  -20.9390  -13.0350 O.2     1  UNL1       -0.2660
     29  N         24.6640  -23.1900  -13.3940 N.am    1  UNL1       -0.3530
     30  H         24.3900  -24.0340  -12.9020 H       1  UNL1        0.1620
     31  C         25.3500  -23.2720  -14.6670 C.3     1  UNL1        0.1550
     32  C         24.5510  -22.6290  -15.8080 C.3     1  UNL1        0.1390
     33  C         25.3510  -21.5650  -16.5500 C.3     1  UNL1        0.0350
     34  C         24.7780  -21.6460  -17.9430 C.3     1  UNL1        0.0290
     35  C         24.5600  -23.1350  -18.0880 C.3     1  UNL1        0.1680
     36  O         24.1610  -23.6050  -16.7940 O.3     1  UNL1       -0.3840
@<TRIPOS>BOND
     1    35    34    1
     2    35    36    1
     3    34    33    1
     4    36    32    1
     5    33    32    1
     6    32    31    1
     7    31    29    1
     8    29    30    1
     9    29    27   am
    10    28    27    2
    11    27    24    1
    12     6     4    1
    13     5     4    1
    14     5     7    2
    15    24    23    1
    16    24    25    2
    17     4     3    2
    18    23    22    2
    19     7     8    1
    20     3     2    1
    21     3    10    1
    22    25    26    1
    23     2     1    1
    24     8    10    2
    25     8     9    1
    26    22    26    1
    27    22    21    1
    28     1    21    1
    29     1    11    1
    30    11    12    1
    31    12    18    2
    32    12    13    1
    33    18    16    1
    34    13    14    2
    35    16    19    1
    36    16    15    2
    37    19    20    1
    38    14    15    1
    39    15    17    1
    40    20    17    1
