@<TRIPOS>MOLECULE
82345_out_ligand_01.pdbqt
 33 36 0 0 0
SMALL
GASTEIGER

@<TRIPOS>ATOM
      1  N         21.4540  -23.1070  -10.1550 N.pl3   1  UNL1       -0.3310
      2  C         22.7010  -22.8510  -10.6970 C.2     1  UNL1        0.1130
      3  C         22.9490  -22.0830  -11.7680 C.2     1  UNL1        0.0810
      4  C         21.7860  -21.4050  -12.3920 C.2     1  UNL1        0.2010
      5  O         21.9050  -20.6510  -13.3520 O.2     1  UNL1       -0.2860
      6  C         20.4480  -21.6470  -11.8050 C.2     1  UNL1        0.0610
      7  C         19.3200  -21.0300  -12.3500 C.2     1  UNL1        0.0210
      8  C         18.0760  -21.2650  -11.7770 C.2     1  UNL1        0.0280
      9  C         18.0020  -22.1000  -10.6690 C.2     1  UNL1        0.0330
     10  C         16.6760  -22.3760  -10.0250 C.3     1  UNL1        0.0700
     11  N         19.0940  -22.6950  -10.1220 N.2     1  UNL1       -0.2350
     12  C         20.3110  -22.4840  -10.6950 C.2     1  UNL1        0.1440
     13  C         21.2530  -23.9850   -8.9870 C.3     1  UNL1        0.2330
     14  C         20.4550  -23.2870   -7.8810 C.2     1  UNL1        0.2400
     15  N         19.2320  -23.8860   -7.6360 N.am    1  UNL1       -0.3260
     16  H         18.9890  -24.6460   -8.2730 H       1  UNL1        0.1690
     17  O         20.9190  -22.3110   -7.2950 O.2     1  UNL1       -0.2710
     18  C         18.2600  -23.5250   -6.6860 C.2     1  UNL1        0.0340
     19  C         17.1040  -24.3130   -6.6250 C.2     1  UNL1        0.0300
     20  C         16.0900  -24.0250   -5.7070 C.2     1  UNL1        0.0090
     21  C         16.2190  -22.9500   -4.8250 C.2     1  UNL1       -0.0620
     22  C         15.1200  -22.6140   -3.8620 C.3     1  UNL1        0.0480
     23  C         17.3680  -22.1540   -4.8950 C.2     1  UNL1        0.0090
     24  C         18.3830  -22.4430   -5.8160 C.2     1  UNL1        0.0300
     25  C         24.3610  -21.9360  -12.2070 C.2     1  UNL1        0.1970
     26  O         25.2610  -21.7320  -11.3940 O.2     1  UNL1       -0.2860
     27  C         24.7080  -22.0610  -13.6440 C.2     1  UNL1        0.0150
     28  C         24.9510  -20.8890  -14.3710 C.2     1  UNL1        0.0170
     29  C         25.3170  -20.9590  -15.7180 C.2     1  UNL1        0.0200
     30  C         25.4530  -22.2030  -16.3300 C.2     1  UNL1        0.0110
     31 BR         25.9480  -22.3010  -18.1530 Br      1  UNL1       -0.0510
     32  C         25.2350  -23.3760  -15.6100 C.2     1  UNL1        0.0200
     33  C         24.8690  -23.3080  -14.2620 C.2     1  UNL1        0.0170
@<TRIPOS>BOND
     1    31    30    1
     2    30    29    2
     3    30    32    1
     4    29    28    1
     5    32    33    2
     6    28    27    2
     7    33    27    1
     8    27    25    1
     9     5     4    2
    10     4     6    1
    11     4     3    1
    12     7     6    2
    13     7     8    1
    14    25     3    1
    15    25    26    2
    16     6    12    1
    17     8     9    2
    18     3     2    2
    19     2     1    1
    20    12     1    1
    21    12    11    2
    22     9    11    1
    23     9    10    1
    24     1    13    1
    25    13    14    1
    26    16    15    1
    27    14    15   am
    28    14    17    2
    29    15    18    1
    30    18    19    2
    31    18    24    1
    32    19    20    1
    33    24    23    2
    34    20    21    2
    35    23    21    1
    36    21    22    1
