@<TRIPOS>MOLECULE
82395_out_ligand_01.pdbqt
 42 46 0 0 0
SMALL
GASTEIGER

@<TRIPOS>ATOM
      1  N         18.3490  -20.5780   -4.4270 N.1     1  UNL1       -0.1910
      2  C         19.1370  -20.8720   -5.2290 C.1     1  UNL1        0.1060
      3  C         20.0670  -21.2690   -6.2300 C.2     1  UNL1        0.1230
      4  C         19.8210  -22.2440   -7.1360 C.2     1  UNL1        0.0030
      5  C         20.8370  -22.5900   -8.1260 C.2     1  UNL1        0.0440
      6  C         22.0160  -21.9530   -8.1570 C.2     1  UNL1        0.0460
      7  N         22.2680  -20.9660   -7.2410 N.am    1  UNL1       -0.3220
      8  C         21.3820  -20.5610   -6.2720 C.2     1  UNL1        0.2670
      9  O         21.6730  -19.6620   -5.4900 O.2     1  UNL1       -0.2660
     10  H         23.1500  -20.4660   -7.2670 H       1  UNL1        0.1690
     11  C         18.5310  -22.9670   -7.1260 C.2     1  UNL1       -0.0230
     12  C         18.1010  -23.6270   -5.9690 C.2     1  UNL1        0.0120
     13  C         16.8780  -24.2990   -5.9580 C.2     1  UNL1        0.0020
     14  C         16.0770  -24.3110   -7.0990 C.2     1  UNL1        0.0160
     15  C         16.4910  -23.6560   -8.2690 C.2     1  UNL1        0.0480
     16  C         17.7200  -22.9760   -8.2690 C.2     1  UNL1        0.0280
     17  C         15.6120  -23.6450   -9.4960 C.3     1  UNL1        0.4170
     18  F         14.7640  -22.5810   -9.5100 F       1  UNL1       -0.1660
     19  F         14.8260  -24.7520   -9.6050 F       1  UNL1       -0.1660
     20  F         16.3190  -23.5740  -10.6580 F       1  UNL1       -0.1660
     21  C         23.0620  -22.2850   -9.1350 C.2     1  UNL1       -0.0090
     22  C         23.8180  -23.4570   -9.0100 C.2     1  UNL1        0.0160
     23  C         24.8050  -23.7710   -9.9520 C.2     1  UNL1        0.0300
     24  C         25.0730  -22.9150  -11.0270 C.2     1  UNL1        0.0320
     25  C         24.2930  -21.7600  -11.1640 C.2     1  UNL1        0.0300
     26  C         23.3050  -21.4430  -10.2260 C.2     1  UNL1        0.0160
     27  N         26.0450  -23.2770  -11.9840 N.pl3   1  UNL1       -0.3550
     28  H         26.9330  -22.8030  -11.8310 H       1  UNL1        0.1660
     29  C         25.8680  -23.5010  -13.3790 C.2     1  UNL1        0.0460
     30  C         25.5350  -24.7640  -13.8680 C.2     1  UNL1        0.0490
     31  C         25.3090  -24.9100  -15.2210 C.2     1  UNL1        0.1190
     32  N         25.3780  -23.8970  -16.1080 N.2     1  UNL1       -0.2600
     33  C         25.6830  -22.6760  -15.6480 C.2     1  UNL1        0.0690
     34  C         25.7450  -21.6300  -16.5590 C.2     1  UNL1        0.0480
     35  C         25.9370  -22.4110  -14.2840 C.2     1  UNL1        0.0190
     36  C         26.0530  -20.3140  -16.1750 C.2     1  UNL1        0.0500
     37  C         26.3220  -20.0570  -14.8290 C.2     1  UNL1        0.0170
     38  C         26.2630  -21.0920  -13.8950 C.2     1  UNL1        0.0170
     39  C         26.1330  -19.2210  -17.2080 C.3     1  UNL1        0.4170
     40  F         27.1190  -19.4260  -18.1260 F       1  UNL1       -0.1660
     41  F         26.3780  -17.9950  -16.6710 F       1  UNL1       -0.1660
     42  F         24.9800  -19.0960  -17.9200 F       1  UNL1       -0.1660
@<TRIPOS>BOND
     1    40    39    1
     2    42    39    1
     3    39    41    1
     4    39    36    1
     5    34    36    2
     6    34    33    1
     7    36    37    1
     8    32    33    2
     9    32    31    1
    10    33    35    1
    11    31    30    2
    12    37    38    2
    13    35    38    1
    14    35    29    2
    15    30    29    1
    16    29    27    1
    17    27    28    1
    18    27    24    1
    19    25    24    2
    20    25    26    1
    21    24    23    1
    22    20    17    1
    23    26    21    2
    24    23    22    2
    25    19    17    1
    26    18    17    1
    27    17    15    1
    28    21    22    1
    29    21     6    1
    30    16    15    1
    31    16    11    2
    32    15    14    2
    33     6     5    2
    34     6     7    1
    35     5     4    1
    36    10     7    1
    37     7     8   am
    38     4    11    1
    39     4     3    2
    40    11    12    1
    41    14    13    1
    42     8     3    1
    43     8     9    2
    44     3     2    1
    45    12    13    2
    46     2     1    3
