@<TRIPOS>MOLECULE
82408_out_ligand_01.pdbqt
 36 40 0 0 0
SMALL
GASTEIGER

@<TRIPOS>ATOM
      1  C         22.9850  -23.1100  -11.5040 C.2     1  UNL1        0.0360
      2  C         21.9260  -22.5720  -10.8700 C.2     1  UNL1        0.0740
      3  S         21.2020  -21.0750  -11.2950 S.3     1  UNL1       -0.0830
      4  C         19.5050  -21.4930  -10.9970 C.2     1  UNL1        0.0320
      5  C         18.5450  -20.7460  -11.7020 C.2     1  UNL1        0.0210
      6  C         17.1850  -20.9600  -11.5030 C.2     1  UNL1        0.0020
      7  C         16.7770  -21.9180  -10.5880 C.2     1  UNL1        0.0020
      8  C         17.7270  -22.6610   -9.8790 C.2     1  UNL1        0.0310
      9  C         19.1100  -22.4720  -10.0680 C.2     1  UNL1        0.0550
     10  N         20.0780  -23.2370   -9.3310 N.am    1  UNL1       -0.3080
     11  C         21.4380  -23.2820   -9.6450 C.2     1  UNL1        0.2650
     12  O         22.2480  -23.9240   -8.9700 O.2     1  UNL1       -0.2670
     13  C         23.6630  -22.5710  -12.6880 C.2     1  UNL1       -0.0350
     14  C         24.8520  -23.1650  -13.1260 C.2     1  UNL1        0.0120
     15  C         25.5070  -22.6750  -14.2590 C.2     1  UNL1        0.0180
     16  C         24.9790  -21.5860  -14.9620 C.2     1  UNL1        0.0320
     17  C         23.7760  -21.0060  -14.5410 C.2     1  UNL1        0.0180
     18  C         23.1220  -21.4980  -13.4080 C.2     1  UNL1        0.0120
     19  C         25.7140  -21.0940  -16.1580 C.2     1  UNL1        0.2510
     20  O         26.6470  -21.7480  -16.6090 O.2     1  UNL1       -0.2680
     21  N         25.2840  -19.8890  -16.6770 N.am    1  UNL1       -0.3540
     22  H         24.6100  -19.3510  -16.1520 H       1  UNL1        0.1620
     23  C         26.0290  -19.2040  -17.7240 C.3     1  UNL1        0.1550
     24  C         26.8840  -18.0350  -17.2120 C.3     1  UNL1        0.1390
     25  C         26.2930  -16.6540  -17.4610 C.3     1  UNL1        0.0350
     26  C         26.9910  -15.8330  -16.4050 C.3     1  UNL1        0.0290
     27  C         27.0380  -16.7980  -15.2390 C.3     1  UNL1        0.1680
     28  O         27.1210  -18.1170  -15.7940 O.3     1  UNL1       -0.3840
     29  C         19.6550  -24.0260   -8.1640 C.3     1  UNL1        0.1740
     30  C         19.1520  -23.1800   -7.0170 C.2     1  UNL1       -0.0010
     31  C         19.7110  -21.9230   -6.7390 C.2     1  UNL1        0.0120
     32  C         19.2460  -21.1620   -5.6640 C.2     1  UNL1        0.0010
     33  C         18.2250  -21.6500   -4.8470 C.2     1  UNL1        0.0030
     34  C         17.6730  -22.9030   -5.1040 C.2     1  UNL1        0.0430
     35  C         18.1410  -23.6550   -6.1780 C.2     1  UNL1        0.1240
     36  F         17.5960  -24.8600   -6.4030 F       1  UNL1       -0.2050
@<TRIPOS>BOND
     1    23    24    1
     2    23    21    1
     3    25    24    1
     4    25    26    1
     5    24    28    1
     6    21    19   am
     7    21    22    1
     8    20    19    2
     9    26    27    1
    10    19    16    1
    11    28    27    1
    12    16    17    2
    13    16    15    1
    14    17    18    1
    15    15    14    2
    16    18    13    2
    17    14    13    1
    18    13     1    1
    19     5     6    1
    20     5     4    2
    21     1     2    2
    22     6     7    2
    23     3     4    1
    24     3     2    1
    25     4     9    1
    26     2    11    1
    27     7     8    1
    28     9     8    2
    29     9    10    1
    30    11    10   am
    31    11    12    2
    32    10    29    1
    33    29    30    1
    34    30    31    2
    35    30    35    1
    36    31    32    1
    37    36    35    1
    38    35    34    2
    39    32    33    2
    40    34    33    1
