@<TRIPOS>MOLECULE
82418_out_ligand_01.pdbqt
 33 36 0 0 0
SMALL
GASTEIGER

@<TRIPOS>ATOM
      1  C         17.8670  -22.2030   -9.9270 C.2     1  UNL1        0.0450
      2  C         17.0580  -21.2880  -10.6210 C.2     1  UNL1        0.0180
      3  C         17.5860  -20.5630  -11.6870 C.2     1  UNL1        0.0010
      4  C         18.9170  -20.7440  -12.0550 C.2     1  UNL1        0.0010
      5  C         19.7230  -21.6520  -11.3600 C.2     1  UNL1        0.0150
      6  C         19.2130  -22.3950  -10.2850 C.2     1  UNL1        0.0160
      7  C         20.0670  -23.3590   -9.6080 C.2     1  UNL1        0.1220
      8  O         19.4110  -24.3840   -8.9730 O.2     1  UNL1       -0.3010
      9  C         20.4020  -25.1260   -8.4150 C.2     1  UNL1        0.2590
     10  N         21.6220  -24.7050   -8.6550 N.2     1  UNL1       -0.2280
     11  C         21.4220  -23.5580   -9.4240 C.2     1  UNL1        0.1610
     12  C         22.5330  -22.7390   -9.9050 C.2     1  UNL1        0.2770
     13  O         22.9410  -21.7560   -9.2980 O.2     1  UNL1       -0.2660
     14  N         23.0110  -23.2160  -11.1110 N.am    1  UNL1       -0.3220
     15  H         22.5230  -24.0430  -11.4470 H       1  UNL1        0.1690
     16  C         24.0620  -22.7130  -11.8980 C.2     1  UNL1        0.0370
     17  C         25.4100  -23.0200  -11.6880 C.2     1  UNL1        0.0290
     18  C         26.4020  -22.4790  -12.5170 C.2     1  UNL1        0.0050
     19  C         26.0510  -21.6280  -13.5610 C.2     1  UNL1        0.0420
     20  C         24.7120  -21.3260  -13.7680 C.2     1  UNL1        0.1180
     21  F         24.3690  -20.5080  -14.7710 F       1  UNL1       -0.2060
     22  C         23.7190  -21.8590  -12.9510 C.2     1  UNL1        0.0710
     23  C         17.2670  -22.9250   -8.7770 C.2     1  UNL1        0.2570
     24  O         16.6170  -23.9380   -8.9960 O.2     1  UNL1       -0.2670
     25  N         17.5340  -22.3350   -7.5550 N.am    1  UNL1       -0.3230
     26  H         18.0470  -21.4630   -7.5760 H       1  UNL1        0.1690
     27  C         17.1130  -22.7790   -6.2850 C.2     1  UNL1        0.0370
     28  C         15.7860  -22.5040   -5.9190 C.2     1  UNL1        0.0290
     29  C         15.2870  -22.9080   -4.6770 C.2     1  UNL1        0.0050
     30  C         16.1120  -23.5920   -3.7900 C.2     1  UNL1        0.0420
     31  C         17.4260  -23.8620   -4.1530 C.2     1  UNL1        0.1180
     32  F         18.2170  -24.5190   -3.2960 F       1  UNL1       -0.2060
     33  C         17.9340  -23.4630   -5.3870 C.2     1  UNL1        0.0710
@<TRIPOS>BOND
     1    21    20    1
     2    20    19    2
     3    20    22    1
     4    19    18    1
     5    22    16    2
     6    18    17    2
     7     4     3    2
     8     4     5    1
     9    16    17    1
    10    16    14    1
    11     3     2    1
    12    15    14    1
    13     5     6    2
    14    14    12   am
    15     2     1    2
    16     6     1    1
    17     6     7    1
    18     1    23    1
    19    12    11    1
    20    12    13    2
    21     7    11    2
    22     7     8    1
    23    11    10    1
    24    24    23    2
    25     8     9    1
    26    23    25   am
    27    10     9    2
    28    26    25    1
    29    25    27    1
    30    27    28    2
    31    27    33    1
    32    28    29    1
    33    33    31    2
    34    29    30    2
    35    31    30    1
    36    31    32    1
