@<TRIPOS>MOLECULE
82428_out_ligand_01.pdbqt
 31 34 0 0 0
SMALL
GASTEIGER

@<TRIPOS>ATOM
      1  C         22.2600  -21.8500  -11.4190 C.2     1  UNL1       -0.0380
      2  C         21.4950  -21.5000  -12.5530 C.2     1  UNL1        0.0090
      3  C         20.1040  -21.3930  -12.4770 C.2     1  UNL1        0.0100
      4  C         19.4910  -21.6590  -11.2650 C.2     1  UNL1       -0.0300
      5  C         20.2340  -22.0050  -10.1350 C.2     1  UNL1        0.0440
      6  C         21.6150  -22.1000  -10.1950 C.2     1  UNL1        0.0390
      7  N         19.3740  -22.2370   -9.0400 N.am    1  UNL1       -0.3130
      8  C         19.7800  -22.5070   -7.7410 C.2     1  UNL1        0.2580
      9  O         20.9300  -22.4760   -7.3140 O.2     1  UNL1       -0.2670
     10  C         17.9850  -22.1340   -9.5230 C.2     1  UNL1        0.1370
     11  C         18.0320  -21.5850  -10.9550 C.2     1  UNL1        0.0610
     12  C         23.7580  -21.9930  -11.5400 C.3     1  UNL1        0.1610
     13  N         24.1900  -21.7760  -12.9020 N.am    1  UNL1       -0.3530
     14  C         24.7850  -22.7520  -13.6650 C.2     1  UNL1        0.2540
     15  O         24.9470  -23.9030  -13.2580 O.2     1  UNL1       -0.2680
     16  H         24.1350  -20.8370  -13.2810 H       1  UNL1        0.1630
     17  C         25.2580  -22.3660  -15.0430 C.2     1  UNL1        0.0650
     18  C         24.7650  -23.1460  -16.1050 C.2     1  UNL1        0.0200
     19  C         25.1470  -22.8930  -17.4240 C.2     1  UNL1        0.0010
     20  C         26.0260  -21.8540  -17.6990 C.2     1  UNL1        0.0030
     21  C         26.5170  -21.0580  -16.6540 C.2     1  UNL1        0.0380
     22  C         26.1440  -21.3000  -15.3230 C.2     1  UNL1        0.0840
     23  O         26.6070  -20.5510  -14.2700 O.2     1  UNL1       -0.3550
     24  C         26.2920  -19.1620  -14.2420 C.3     1  UNL1        0.2100
     25  C         18.7200  -22.8380   -6.7650 C.2     1  UNL1        0.0320
     26  C         18.3910  -21.9060   -5.7780 C.2     1  UNL1        0.0170
     27  C         17.3900  -22.2090   -4.8510 C.2     1  UNL1        0.0070
     28  C         16.7320  -23.4490   -4.8940 C.2     1  UNL1       -0.0620
     29  C         15.6390  -23.7580   -3.9120 C.3     1  UNL1        0.0480
     30  C         17.0810  -24.3800   -5.8830 C.2     1  UNL1        0.0070
     31  C         18.0810  -24.0820   -6.8120 C.2     1  UNL1        0.0170
@<TRIPOS>BOND
     1    20    19    2
     2    20    21    1
     3    19    18    1
     4    21    22    2
     5    18    17    2
     6    22    17    1
     7    22    23    1
     8    17    14    1
     9    23    24    1
    10    14    15    2
    11    14    13   am
    12    16    13    1
    13    13    12    1
    14     2     3    1
    15     2     1    2
    16     3     4    2
    17    12     1    1
    18     1     6    1
    19     4    11    1
    20     4     5    1
    21    11    10    2
    22     6     5    2
    23     5     7    1
    24    10     7    1
    25     7     8   am
    26     8     9    2
    27     8    25    1
    28    31    25    2
    29    31    30    1
    30    25    26    1
    31    30    28    2
    32    26    27    2
    33    28    27    1
    34    28    29    1
