@<TRIPOS>MOLECULE
82429_out_ligand_01.pdbqt
 29 31 0 0 0
SMALL
GASTEIGER

@<TRIPOS>ATOM
      1  C         19.4780  -22.3960  -10.4220 C.2     1  UNL1        0.0330
      2  C         18.8430  -21.5860  -11.3760 C.2     1  UNL1        0.0170
      3  C         17.4720  -21.3340  -11.2800 C.2     1  UNL1        0.0030
      4  C         16.7330  -21.8760  -10.2280 C.2     1  UNL1        0.0250
      5  C         17.3750  -22.6600   -9.2660 C.2     1  UNL1        0.0800
      6  C         18.7440  -22.9290   -9.3570 C.2     1  UNL1        0.0420
      7  S         16.4490  -23.3500   -7.9190 S.O2    1  UNL1        0.2630
      8  O         15.8370  -24.5690   -8.4050 O.2     1  UNL1       -0.2000
      9  O         15.6530  -22.3030   -7.3170 O.2     1  UNL1       -0.2000
     10  N         17.6630  -23.8230   -6.8430 N.pl3   1  UNL1       -0.2810
     11  H         17.6040  -24.8220   -6.6460 H       1  UNL1        0.1790
     12  C         17.9730  -22.9520   -5.7630 C.2     1  UNL1        0.0450
     13  C         17.5510  -23.2740   -4.4700 C.2     1  UNL1        0.0300
     14  C         17.8150  -22.4020   -3.4120 C.2     1  UNL1        0.0050
     15  C         18.4940  -21.2080   -3.6500 C.2     1  UNL1        0.0420
     16  C         18.8990  -20.8970   -4.9440 C.2     1  UNL1        0.1180
     17  F         19.5480  -19.7470   -5.1710 F       1  UNL1       -0.2060
     18  C         18.6440  -21.7560   -6.0060 C.2     1  UNL1        0.0720
     19  C         20.9380  -22.6760  -10.4860 C.2     1  UNL1        0.2560
     20  O         21.3670  -23.6290   -9.8480 O.2     1  UNL1       -0.2670
     21  N         21.6570  -21.8250  -11.3050 N.am    1  UNL1       -0.3230
     22  H         21.1260  -21.1680  -11.8630 H       1  UNL1        0.1690
     23  C         23.0510  -21.8280  -11.5260 C.2     1  UNL1        0.0350
     24  C         23.4870  -21.9980  -12.8490 C.2     1  UNL1        0.0320
     25  C         24.8510  -22.0060  -13.1520 C.2     1  UNL1        0.0440
     26  C         25.7790  -21.8420  -12.1330 C.2     1  UNL1        0.1160
     27  F         27.0860  -21.8490  -12.4230 F       1  UNL1       -0.2060
     28  C         25.3670  -21.6700  -10.8190 C.2     1  UNL1        0.0440
     29  C         24.0010  -21.6610  -10.5150 C.2     1  UNL1        0.0320
@<TRIPOS>BOND
     1    25    24    1
     2    25    26    2
     3    24    23    2
     4    27    26    1
     5    26    28    1
     6    22    21    1
     7    23    21    1
     8    23    29    1
     9     2     3    1
    10     2     1    2
    11    21    19   am
    12     3     4    2
    13    28    29    2
    14    19     1    1
    15    19    20    2
    16     1     6    1
    17     4     5    1
    18     6     5    2
    19     5     7    1
    20     8     7    2
    21     7     9    2
    22     7    10    1
    23    10    11    1
    24    10    12    1
    25    18    12    2
    26    18    16    1
    27    12    13    1
    28    17    16    1
    29    16    15    2
    30    13    14    2
    31    15    14    1
