@<TRIPOS>MOLECULE
82437_out_ligand_01.pdbqt
 32 34 0 0 0
SMALL
GASTEIGER

@<TRIPOS>ATOM
      1  C         20.4520  -22.5050   -7.4930 C.2     1  UNL1        0.0720
      2  C         19.2520  -23.2090   -7.3040 C.2     1  UNL1        0.0450
      3  C         18.3380  -22.7880   -6.3310 C.2     1  UNL1        0.0800
      4  C         18.5970  -21.6670   -5.5390 C.2     1  UNL1        0.0280
      5  C         19.7840  -20.9610   -5.7290 C.2     1  UNL1        0.0450
      6  C         20.6990  -21.3820   -6.6960 C.2     1  UNL1        0.1320
      7  F         21.8290  -20.6720   -6.8350 F       1  UNL1       -0.2050
      8  S         16.8400  -23.7120   -6.0980 S.O2    1  UNL1        0.2580
      9  O         17.0950  -25.0950   -6.4340 O.2     1  UNL1       -0.2010
     10  O         16.2950  -23.3150   -4.8200 O.2     1  UNL1       -0.2010
     11  N         15.8470  -23.0660   -7.2800 N.3     1  UNL1       -0.3150
     12  H         14.9430  -22.7500   -6.9230 H       1  UNL1        0.1720
     13  C         15.8780  -23.6380   -8.6320 C.3     1  UNL1        0.1370
     14  C         15.6740  -22.5380   -9.6800 C.3     1  UNL1        0.0580
     15  C         16.9510  -22.1370  -10.3820 C.2     1  UNL1       -0.0570
     16  C         18.0330  -23.0240  -10.4540 C.2     1  UNL1        0.0070
     17  C         19.2020  -22.6590  -11.1240 C.2     1  UNL1        0.0010
     18  C         19.3000  -21.4070  -11.7260 C.2     1  UNL1        0.0000
     19  C         18.2300  -20.5170  -11.6600 C.2     1  UNL1        0.0010
     20  C         17.0600  -20.8790  -10.9900 C.2     1  UNL1        0.0070
     21  C         21.4110  -23.0070   -8.5260 C.2     1  UNL1        0.2590
     22  N         22.1420  -22.0500   -9.2060 N.am    1  UNL1       -0.3230
     23  H         21.9870  -21.0810   -8.9500 H       1  UNL1        0.1690
     24  O         21.4820  -24.2200   -8.6930 O.2     1  UNL1       -0.2670
     25  C         23.0990  -22.2530  -10.2250 C.2     1  UNL1        0.0360
     26  C         22.7530  -21.8240  -11.5140 C.2     1  UNL1        0.0360
     27  C         23.6300  -21.9960  -12.5940 C.2     1  UNL1       -0.0590
     28  C         24.8800  -22.5810  -12.3690 C.2     1  UNL1        0.0130
     29  C         23.2580  -21.5100  -13.9630 C.3     1  UNL1        0.0480
     30  C         25.2480  -23.0030  -11.0860 C.2     1  UNL1       -0.0590
     31  C         26.5730  -23.6690  -10.8570 C.3     1  UNL1        0.0480
     32  C         24.3440  -22.8480  -10.0240 C.2     1  UNL1        0.0360
@<TRIPOS>BOND
     1    29    27    1
     2    27    28    2
     3    27    26    1
     4    28    30    1
     5    18    19    2
     6    18    17    1
     7    19    20    1
     8    26    25    2
     9    17    16    2
    10    30    31    1
    11    30    32    2
    12    20    15    2
    13    16    15    1
    14    15    14    1
    15    25    32    1
    16    25    22    1
    17    14    13    1
    18    22    23    1
    19    22    21   am
    20    24    21    2
    21    13    11    1
    22    21     1    1
    23     1     2    2
    24     1     6    1
    25     2     3    1
    26    11    12    1
    27    11     8    1
    28     7     6    1
    29     6     5    2
    30     9     8    2
    31     3     8    1
    32     3     4    2
    33     8    10    2
    34     5     4    1
