@<TRIPOS>MOLECULE
82453_out_ligand_01.pdbqt
 33 36 0 0 0
SMALL
GASTEIGER

@<TRIPOS>ATOM
      1  N         17.4110  -22.6130   -8.2880 N.3     1  UNL1       -0.2060
      2  C         16.4360  -22.4370   -9.4010 C.3     1  UNL1        0.1070
      3  C         16.9750  -21.4630  -10.4400 C.3     1  UNL1        0.0160
      4  C         18.2560  -21.9870  -11.0910 C.3     1  UNL1        0.0140
      5  C         19.0820  -22.8690  -10.1390 C.3     1  UNL1        0.0610
      6  C         18.8470  -22.4520   -8.6830 C.3     1  UNL1        0.1190
      7  C         20.5410  -22.8030  -10.4850 C.ar    1  UNL1        0.1050
      8  N         21.4930  -23.4690   -9.8620 N.ar    1  UNL1       -0.1460
      9  N         22.7410  -23.2130  -10.3900 N.ar    1  UNL1       -0.1360
     10  C         22.6850  -22.3540  -11.3910 C.ar    1  UNL1        0.1890
     11  S         21.1090  -21.8030  -11.7660 S.2     1  UNL1       -0.0450
     12  C         23.8650  -21.9080  -12.1200 C.2     1  UNL1        0.2830
     13  O         24.9890  -21.8800  -11.6290 O.2     1  UNL1       -0.2650
     14  N         23.5620  -21.5280  -13.4220 N.am    1  UNL1       -0.3210
     15  H         22.5790  -21.6110  -13.6690 H       1  UNL1        0.1690
     16  C         24.4310  -21.0500  -14.4220 C.2     1  UNL1        0.0360
     17  C         24.6170  -21.8720  -15.5430 C.2     1  UNL1        0.0290
     18  C         25.4620  -21.4800  -16.5850 C.2     1  UNL1        0.0040
     19  C         26.1310  -20.2610  -16.5150 C.2     1  UNL1        0.0240
     20  C         25.9500  -19.4420  -15.4020 C.2     1  UNL1        0.0360
     21 CL         26.7790  -17.9350  -15.3170 Cl      1  UNL1       -0.0840
     22  C         25.1050  -19.8290  -14.3580 C.2     1  UNL1        0.0530
     23  S         17.0570  -23.9570   -7.2920 S.O2    1  UNL1        0.2440
     24  O         18.2510  -24.7770   -7.2780 O.2     1  UNL1       -0.2060
     25  O         15.7830  -24.5080   -7.6980 O.2     1  UNL1       -0.2060
     26  C         16.8480  -23.2250   -5.6780 C.2     1  UNL1        0.0830
     27  C         17.9490  -22.5580   -5.1240 C.2     1  UNL1        0.0670
     28  C         17.8340  -21.9770   -3.8700 C.2     1  UNL1        0.1170
     29  C         16.6480  -22.0500   -3.1530 C.2     1  UNL1        0.0430
     30  F         18.8830  -21.3340   -3.3430 F       1  UNL1       -0.2060
     31  C         15.5530  -22.7240   -3.6970 C.2     1  UNL1        0.0110
     32  C         15.6310  -23.3200   -4.9690 C.2     1  UNL1       -0.0390
     33  C         14.4270  -24.0560   -5.4900 C.3     1  UNL1        0.0500
@<TRIPOS>BOND
     1    18    19    2
     2    18    17    1
     3    19    20    1
     4    17    16    2
     5    20    21    1
     6    20    22    2
     7    16    22    1
     8    16    14    1
     9    15    14    1
    10    14    12   am
    11    12    13    2
    12    12    10    1
    13    11    10   ar
    14    11     7   ar
    15    10     9   ar
    16     4     3    1
    17     4     5    1
    18     7     5    1
    19     7     8   ar
    20     3     2    1
    21     9     8   ar
    22     5     6    1
    23     2     1    1
    24     6     1    1
    25     1    23    1
    26    25    23    2
    27    23    24    2
    28    23    26    1
    29    26    27    2
    30    26    32    1
    31    33    32    1
    32    27    28    1
    33    32    31    2
    34    28    30    1
    35    28    29    2
    36    31    29    1
