@<TRIPOS>MOLECULE
82469_out_ligand_01.pdbqt
 32 35 0 0 0
SMALL
GASTEIGER

@<TRIPOS>ATOM
      1  N         23.8800  -23.6330   -8.8270 N.1     1  UNL1       -0.1910
      2  C         23.6500  -23.2190   -9.8890 C.1     1  UNL1        0.1030
      3  C         23.5270  -22.6660  -11.2080 C.ar    1  UNL1        0.0850
      4  C         22.3870  -22.1310  -11.7740 C.ar    1  UNL1        0.0980
      5  S         22.6870  -21.4230  -13.3020 S.2     1  UNL1       -0.0750
      6  C         24.3130  -21.9060  -13.2750 C.ar    1  UNL1       -0.0070
      7  C         24.6560  -22.5450  -12.0990 C.ar    1  UNL1       -0.0210
      8  C         26.0550  -23.0410  -11.8500 C.3     1  UNL1        0.0410
      9  C         27.0660  -22.4240  -12.8290 C.3     1  UNL1        0.0050
     10  C         26.5390  -22.4280  -14.2700 C.3     1  UNL1        0.0050
     11  C         25.2510  -21.6010  -14.4030 C.3     1  UNL1        0.0470
     12  N         21.0610  -21.9940  -11.4220 N.am    1  UNL1       -0.3160
     13  C         20.3720  -22.8760  -10.6200 C.2     1  UNL1        0.2560
     14  O         20.7970  -23.9360  -10.1850 O.2     1  UNL1       -0.2670
     15  H         20.5380  -21.3180  -11.9660 H       1  UNL1        0.1690
     16  C         18.9530  -22.5040  -10.3530 C.2     1  UNL1        0.0330
     17  C         18.2630  -21.6010  -11.1760 C.2     1  UNL1        0.0170
     18  C         16.9310  -21.2770  -10.9010 C.2     1  UNL1        0.0030
     19  C         16.2820  -21.8530   -9.8090 C.2     1  UNL1        0.0250
     20  C         16.9750  -22.7530   -8.9920 C.2     1  UNL1        0.0800
     21  C         18.3140  -23.0620   -9.2410 C.2     1  UNL1        0.0420
     22  S         16.1450  -23.4820   -7.5950 S.O2    1  UNL1        0.2630
     23  O         15.3070  -22.4710   -6.9880 O.2     1  UNL1       -0.2000
     24  O         15.5940  -24.7470   -8.0330 O.2     1  UNL1       -0.2000
     25  N         17.4170  -23.8660   -6.5570 N.pl3   1  UNL1       -0.2810
     26  H         18.1560  -24.3860   -7.0270 H       1  UNL1        0.1790
     27  C         17.7790  -22.9720   -5.5120 C.2     1  UNL1        0.0420
     28  C         17.4030  -23.2830   -4.2040 C.2     1  UNL1        0.0300
     29  C         17.7760  -22.4430   -3.1530 C.2     1  UNL1        0.0020
     30  C         18.5200  -21.2930   -3.4100 C.2     1  UNL1        0.0000
     31  C         18.8860  -20.9770   -4.7170 C.2     1  UNL1        0.0020
     32  C         18.5110  -21.8140   -5.7700 C.2     1  UNL1        0.0300
@<TRIPOS>BOND
     1    11    10    1
     2    11     6    1
     3    10     9    1
     4     5     6   ar
     5     5     4   ar
     6     6     7   ar
     7     9     8    1
     8     7     8    1
     9     7     3   ar
    10    15    12    1
    11     4    12    1
    12     4     3   ar
    13    12    13   am
    14     3     2    1
    15    17    18    1
    16    17    16    2
    17    18    19    2
    18    13    16    1
    19    13    14    2
    20    16    21    1
    21     2     1    3
    22    19    20    1
    23    21    20    2
    24    20    22    1
    25    24    22    2
    26    22    23    2
    27    22    25    1
    28    26    25    1
    29    25    27    1
    30    32    27    2
    31    32    31    1
    32    27    28    1
    33    31    30    2
    34    28    29    2
    35    30    29    1
