@<TRIPOS>MOLECULE
82462_out_ligand_01.pdbqt
 38 42 0 0 0
SMALL
GASTEIGER

@<TRIPOS>ATOM
      1  N         14.8240  -22.8820   -7.3270 N.1     1  UNL1       -0.1910
      2  C         15.9080  -22.8650   -7.7410 C.1     1  UNL1        0.1060
      3  C         17.2510  -22.8400   -8.2140 C.2     1  UNL1        0.1230
      4  C         18.3330  -22.7490   -7.4060 C.2     1  UNL1        0.0030
      5  C         19.6720  -22.7270   -7.9810 C.2     1  UNL1        0.0440
      6  C         19.8580  -22.8130   -9.3070 C.2     1  UNL1        0.0460
      7  N         18.7650  -22.9130  -10.1280 N.am    1  UNL1       -0.3220
      8  C         17.4640  -22.9320   -9.6900 C.2     1  UNL1        0.2670
      9  O         16.5380  -23.0240  -10.4880 O.2     1  UNL1       -0.2660
     10  H         18.8930  -22.9990  -11.1290 H       1  UNL1        0.1690
     11  C         18.1660  -22.6740   -5.9390 C.2     1  UNL1       -0.0240
     12  C         17.7040  -23.7890   -5.2270 C.2     1  UNL1        0.0120
     13  C         17.5640  -23.7260   -3.8400 C.2     1  UNL1        0.0010
     14  C         17.8910  -22.5540   -3.1590 C.2     1  UNL1        0.0000
     15  C         18.3540  -21.4440   -3.8620 C.2     1  UNL1        0.0010
     16  C         18.4950  -21.5020   -5.2480 C.2     1  UNL1        0.0120
     17  C         21.1960  -22.7920   -9.9210 C.2     1  UNL1       -0.0090
     18  C         21.3860  -22.2220  -11.1840 C.2     1  UNL1        0.0160
     19  C         22.6530  -22.2180  -11.7790 C.2     1  UNL1        0.0300
     20  C         23.7570  -22.7980  -11.1380 C.2     1  UNL1        0.0320
     21  C         23.5670  -23.3410   -9.8630 C.2     1  UNL1        0.0300
     22  C         22.3000  -23.3490   -9.2650 C.2     1  UNL1        0.0160
     23  N         25.0180  -22.7270  -11.7680 N.pl3   1  UNL1       -0.3550
     24  H         25.5990  -21.9930  -11.3760 H       1  UNL1        0.1660
     25  C         25.3280  -23.0150  -13.1200 C.2     1  UNL1        0.0460
     26  C         25.3270  -24.3460  -13.5400 C.2     1  UNL1        0.0490
     27  C         25.6180  -24.6210  -14.8590 C.2     1  UNL1        0.1190
     28  N         25.8930  -23.6740  -15.7780 N.2     1  UNL1       -0.2600
     29  C         25.8670  -22.3900  -15.3910 C.2     1  UNL1        0.0690
     30  C         26.1290  -21.4190  -16.3480 C.2     1  UNL1        0.0480
     31  C         25.5810  -21.9890  -14.0670 C.2     1  UNL1        0.0190
     32  C         26.0980  -20.0460  -16.0550 C.2     1  UNL1        0.0500
     33  C         25.8050  -19.6470  -14.7500 C.2     1  UNL1        0.0170
     34  C         25.5460  -20.6060  -13.7680 C.2     1  UNL1        0.0170
     35  C         26.3990  -19.0350  -17.1300 C.3     1  UNL1        0.4170
     36  F         25.2750  -18.5100  -17.6950 F       1  UNL1       -0.1660
     37  F         27.1210  -19.5680  -18.1520 F       1  UNL1       -0.1660
     38  F         27.1180  -17.9710  -16.6790 F       1  UNL1       -0.1660
@<TRIPOS>BOND
     1    37    35    1
     2    36    35    1
     3    35    38    1
     4    35    32    1
     5    30    32    2
     6    30    29    1
     7    32    33    1
     8    28    29    2
     9    28    27    1
    10    29    31    1
    11    27    26    2
    12    33    34    2
    13    31    34    1
    14    31    25    2
    15    26    25    1
    16    25    23    1
    17    19    18    1
    18    19    20    2
    19    23    24    1
    20    23    20    1
    21    18    17    2
    22    20    21    1
    23    10     7    1
    24     9     8    2
    25     7     8   am
    26     7     6    1
    27    17     6    1
    28    17    22    1
    29    21    22    2
    30     8     3    1
    31     6     5    2
    32     3     2    1
    33     3     4    2
    34     5     4    1
    35     2     1    3
    36     4    11    1
    37    11    16    2
    38    11    12    1
    39    16    15    1
    40    12    13    2
    41    15    14    2
    42    13    14    1
