@<TRIPOS>MOLECULE
82470_out_ligand_01.pdbqt
 39 42 0 0 0
SMALL
GASTEIGER

@<TRIPOS>ATOM
      1  C         22.6450  -22.8120  -10.5420 C.2     1  UNL1        0.0340
      2  C         22.4730  -23.7430   -9.5090 C.2     1  UNL1        0.0190
      3  C         21.2060  -23.9680   -8.9630 C.2     1  UNL1        0.0330
      4  C         20.1000  -23.2640   -9.4450 C.2     1  UNL1        0.0590
      5  C         20.2760  -22.3610  -10.5060 C.2     1  UNL1        0.0620
      6  C         21.5370  -22.1280  -11.0560 C.2     1  UNL1        0.0490
      7  N         19.1590  -21.6870  -11.0190 N.am    1  UNL1       -0.3200
      8  C         17.8800  -21.8440  -10.5400 C.2     1  UNL1        0.2720
      9  O         16.9490  -21.2220  -11.0440 O.2     1  UNL1       -0.2660
     10  C         17.7040  -22.8170   -9.3840 C.2     1  UNL1        0.1050
     11  C         16.4520  -22.8830   -8.8980 C.2     1  UNL1        0.0900
     12  N         18.8160  -23.5100   -8.9430 N.pl3   1  UNL1       -0.3500
     13  H         19.2570  -21.0390  -11.7870 H       1  UNL1        0.1690
     14  H         18.7500  -24.0080   -8.0640 H       1  UNL1        0.1660
     15  C         24.0130  -22.6110  -11.0910 C.2     1  UNL1        0.2510
     16  N         24.7840  -21.6510  -10.4660 N.am    1  UNL1       -0.3570
     17  H         24.4820  -21.2730   -9.5800 H       1  UNL1        0.1620
     18  O         24.4010  -23.3000  -12.0270 O.2     1  UNL1       -0.2680
     19  C         26.1650  -21.4170  -10.8550 C.3     1  UNL1        0.1240
     20  C         26.3000  -20.1880  -11.7510 C.3     1  UNL1        0.0500
     21  C         26.3750  -20.5430  -13.2440 C.3     1  UNL1        0.2740
     22  N         25.4140  -19.8080  -14.0830 N.3     1  UNL1        0.0910
     23  C         26.0100  -19.3710  -15.3690 C.3     1  UNL1        0.3020
     24  C         25.7960  -20.3080  -16.5930 C.3     1  UNL1        0.3020
     25  N         25.6290  -21.7180  -16.2130 N.3     1  UNL1        0.0910
     26  C         24.4760  -21.8580  -15.2980 C.3     1  UNL1        0.3020
     27  C         24.2290  -20.6380  -14.3710 C.3     1  UNL1        0.3020
     28  C         25.4960  -22.6240  -17.3590 C.3     1  UNL1        0.2680
     29  C         24.1630  -23.3650  -17.3800 C.3     1  UNL1        0.0370
     30  C         16.0190  -23.7500   -7.7790 C.2     1  UNL1        0.1840
     31  O         15.6670  -24.9020   -8.0100 O.2     1  UNL1       -0.2880
     32  C         16.0270  -23.2310   -6.3880 C.2     1  UNL1        0.0170
     33  C         14.9190  -23.3540   -5.5430 C.2     1  UNL1        0.0150
     34  C         14.9840  -22.8580   -4.2400 C.2     1  UNL1        0.0040
     35  C         16.1450  -22.2300   -3.7810 C.2     1  UNL1        0.0370
     36  C         17.2470  -22.0870   -4.6250 C.2     1  UNL1        0.0690
     37  C         17.1810  -22.5840   -5.9290 C.2     1  UNL1        0.0520
     38  O         18.4370  -21.4970   -4.3000 O.2     1  UNL1       -0.3560
     39  C         19.1690  -20.8940   -5.3600 C.3     1  UNL1        0.2100
@<TRIPOS>BOND
     1    29    28    1
     2    28    25    1
     3    24    25    1
     4    24    23    1
     5    25    26    1
     6    23    22    1
     7    26    27    1
     8    27    22    1
     9    22    21    1
    10    21    20    1
    11    18    15    2
    12    13     7    1
    13    20    19    1
    14    15     1    1
    15    15    16   am
    16     6     1    2
    17     6     5    1
    18     9     8    2
    19     7     8   am
    20     7     5    1
    21    19    16    1
    22     1     2    1
    23     8    10    1
    24     5     4    2
    25    16    17    1
    26     2     3    2
    27     4     3    1
    28     4    12    1
    29    10    12    1
    30    10    11    2
    31    12    14    1
    32    11    30    1
    33    31    30    2
    34    30    32    1
    35    32    37    2
    36    32    33    1
    37    37    36    1
    38    33    34    2
    39    39    38    1
    40    36    38    1
    41    36    35    2
    42    34    35    1
