@<TRIPOS>MOLECULE
82481_out_ligand_01.pdbqt
 32 35 0 0 0
SMALL
GASTEIGER

@<TRIPOS>ATOM
      1  C         20.1610  -21.8820  -10.7050 C.2     1  UNL1       -0.0380
      2  C         19.2630  -21.7800  -11.7880 C.2     1  UNL1        0.0090
      3  C         17.8870  -21.9100  -11.5960 C.2     1  UNL1        0.0100
      4  C         17.4250  -22.1630  -10.3140 C.2     1  UNL1       -0.0290
      5  C         18.2990  -22.2710   -9.2320 C.2     1  UNL1        0.0440
      6  C         19.6650  -22.1220   -9.4130 C.2     1  UNL1        0.0390
      7  N         17.5790  -22.5360   -8.0450 N.am    1  UNL1       -0.3090
      8  C         18.1510  -22.6680   -6.7870 C.2     1  UNL1        0.2580
      9  O         19.3540  -22.6480   -6.5350 O.2     1  UNL1       -0.2670
     10  C         16.1650  -22.8130   -8.4310 C.3     1  UNL1        0.0930
     11  C         15.8550  -24.3120   -8.3730 C.3     1  UNL1        0.0330
     12  C         16.0020  -22.2790   -9.8710 C.3     1  UNL1        0.0660
     13  C         21.6410  -21.7290  -10.9360 C.3     1  UNL1        0.1630
     14  N         21.9040  -21.2680  -12.2830 N.am    1  UNL1       -0.3390
     15  C         22.9820  -21.7900  -12.9700 C.2     1  UNL1        0.3200
     16  N         23.1050  -21.1830  -14.2010 N.am    1  UNL1       -0.3090
     17  O         23.6800  -22.6840  -12.5160 O.2     1  UNL1       -0.2470
     18  H         22.3020  -20.6500  -14.4970 H       1  UNL1        0.1700
     19  H         21.7400  -20.2850  -12.4370 H       1  UNL1        0.1640
     20  C         24.1180  -21.3840  -15.1600 C.2     1  UNL1        0.0360
     21  C         24.1110  -22.5980  -15.8580 C.2     1  UNL1        0.0300
     22  C         25.0790  -22.8680  -16.8300 C.2     1  UNL1        0.0090
     23  C         26.0600  -21.9210  -17.1340 C.2     1  UNL1       -0.0620
     24  C         27.1210  -22.2160  -18.1530 C.3     1  UNL1        0.0480
     25  C         26.0700  -20.7110  -16.4330 C.2     1  UNL1        0.0090
     26  C         25.1030  -20.4430  -15.4590 C.2     1  UNL1        0.0300
     27  C         17.2500  -22.8500   -5.6290 C.2     1  UNL1        0.0320
     28  C         16.0360  -22.1600   -5.5500 C.2     1  UNL1        0.0170
     29  C         15.2170  -22.3340   -4.4350 C.2     1  UNL1        0.0010
     30  C         15.6170  -23.1790   -3.3970 C.2     1  UNL1        0.0000
     31  C         16.8420  -23.8430   -3.4640 C.2     1  UNL1        0.0010
     32  C         17.6660  -23.6720   -4.5770 C.2     1  UNL1        0.0170
@<TRIPOS>BOND
     1    24    23    1
     2    23    22    2
     3    23    25    1
     4    22    21    1
     5    25    26    2
     6    21    20    2
     7    26    20    1
     8    20    16    1
     9    18    16    1
    10    16    15   am
    11    15    17    2
    12    15    14   am
    13    19    14    1
    14    14    13    1
    15     2     3    1
    16     2     1    2
    17     3     4    2
    18    13     1    1
    19     1     6    1
    20     4    12    1
    21     4     5    1
    22    12    10    1
    23     6     5    2
    24     5     7    1
    25    10    11    1
    26    10     7    1
    27     7     8   am
    28     8     9    2
    29     8    27    1
    30    27    28    2
    31    27    32    1
    32    28    29    1
    33    32    31    2
    34    29    30    2
    35    31    30    1
