@<TRIPOS>MOLECULE
82496_out_ligand_01.pdbqt
 32 34 0 0 0
SMALL
GASTEIGER

@<TRIPOS>ATOM
      1  C         20.4750  -22.4850   -7.4560 C.2     1  UNL1        0.0720
      2  C         19.2750  -23.2000   -7.3200 C.2     1  UNL1        0.0450
      3  C         18.3050  -22.7720   -6.4050 C.2     1  UNL1        0.0800
      4  C         18.5280  -21.6530   -5.5980 C.2     1  UNL1        0.0280
      5  C         19.7230  -20.9470   -5.7240 C.2     1  UNL1        0.0450
      6  C         20.6820  -21.3620   -6.6480 C.2     1  UNL1        0.1320
      7  F         21.8150  -20.6480   -6.7380 F       1  UNL1       -0.2050
      8  S         16.7950  -23.6970   -6.2220 S.O2    1  UNL1        0.2580
      9  O         17.0730  -25.0730   -6.5670 O.2     1  UNL1       -0.2010
     10  O         16.2140  -23.3290   -4.9500 O.2     1  UNL1       -0.2010
     11  N         15.8170  -23.0360   -7.4060 N.3     1  UNL1       -0.3150
     12  H         15.5960  -22.0500   -7.2650 H       1  UNL1        0.1720
     13  C         15.8890  -23.5330   -8.7860 C.3     1  UNL1        0.1370
     14  C         15.7830  -22.3670   -9.7770 C.3     1  UNL1        0.0580
     15  C         17.0980  -22.0470  -10.4510 C.2     1  UNL1       -0.0570
     16  C         17.2900  -20.8130  -11.0870 C.2     1  UNL1        0.0070
     17  C         18.4960  -20.5300  -11.7290 C.2     1  UNL1        0.0010
     18  C         19.5200  -21.4750  -11.7420 C.2     1  UNL1        0.0000
     19  C         19.3400  -22.7050  -11.1110 C.2     1  UNL1        0.0010
     20  C         18.1350  -22.9900  -10.4670 C.2     1  UNL1        0.0070
     21  C         21.4650  -22.9510   -8.4750 C.2     1  UNL1        0.2590
     22  O         21.6260  -24.1600   -8.5990 O.2     1  UNL1       -0.2670
     23  N         22.1160  -21.9710   -9.2020 N.am    1  UNL1       -0.3230
     24  H         21.8610  -21.0070   -9.0060 H       1  UNL1        0.1690
     25  C         23.0910  -22.1460  -10.2070 C.2     1  UNL1        0.0380
     26  C         22.9380  -22.9960  -11.3100 C.2     1  UNL1        0.0320
     27  C         23.9550  -23.1150  -12.2650 C.2     1  UNL1        0.0480
     28  C         25.1260  -22.3850  -12.1180 C.2     1  UNL1        0.1540
     29  F         26.0970  -22.5010  -13.0330 F       1  UNL1       -0.2030
     30  C         25.2870  -21.5420  -11.0280 C.2     1  UNL1        0.1570
     31  F         26.4160  -20.8340  -10.8830 F       1  UNL1       -0.2030
     32  C         24.2800  -21.4180  -10.0730 C.2     1  UNL1        0.0750
@<TRIPOS>BOND
     1    29    28    1
     2    27    28    2
     3    27    26    1
     4    28    30    1
     5    18    17    2
     6    18    19    1
     7    17    16    1
     8    26    25    2
     9    19    20    2
    10    16    15    2
    11    30    31    1
    12    30    32    2
    13    20    15    1
    14    15    14    1
    15    25    32    1
    16    25    23    1
    17    14    13    1
    18    23    24    1
    19    23    21   am
    20    13    11    1
    21    22    21    2
    22    21     1    1
    23     1     2    2
    24     1     6    1
    25    11    12    1
    26    11     8    1
    27     2     3    1
    28     7     6    1
    29     6     5    2
    30     9     8    2
    31     3     8    1
    32     3     4    2
    33     8    10    2
    34     5     4    1
