@<TRIPOS>MOLECULE
82501_out_ligand_01.pdbqt
 32 36 0 0 0
SMALL
GASTEIGER

@<TRIPOS>ATOM
      1  C         21.9370  -22.5010  -10.6060 C.2     1  UNL1        0.0320
      2  C         21.9480  -23.5110   -9.6310 C.2     1  UNL1        0.0180
      3  C         20.7870  -23.8180   -8.9190 C.2     1  UNL1        0.0260
      4  C         19.6130  -23.1090   -9.1880 C.2     1  UNL1        0.0750
      5  C         19.5810  -22.1190  -10.1770 C.2     1  UNL1        0.0260
      6  C         20.7450  -21.8180  -10.8890 C.2     1  UNL1        0.0180
      7  C         23.2040  -22.2150  -11.3420 C.2     1  UNL1        0.2560
      8  O         24.2620  -22.3390  -10.7370 O.2     1  UNL1       -0.2670
      9  N         23.0390  -21.7900  -12.6490 N.am    1  UNL1       -0.3230
     10  H         22.0940  -21.6090  -12.9580 H       1  UNL1        0.1690
     11  C         24.0510  -21.4880  -13.5850 C.2     1  UNL1        0.0350
     12  C         25.0900  -20.5960  -13.3440 C.2     1  UNL1        0.0310
     13  C         26.0680  -20.3450  -14.3150 C.2     1  UNL1        0.0220
     14  C         25.9930  -21.0120  -15.5510 C.2     1  UNL1        0.0150
     15  S         27.0760  -20.8610  -16.8840 S.3     1  UNL1       -0.1010
     16  C         24.9680  -21.9170  -15.8260 C.2     1  UNL1       -0.0170
     17  C         26.1970  -21.9830  -17.8180 C.2     1  UNL1        0.0510
     18  C         25.1020  -22.4700  -17.1450 C.2     1  UNL1        0.0200
     19  C         23.9930  -22.1500  -14.8220 C.2     1  UNL1        0.0420
     20  S         18.1080  -23.4870   -8.3010 S.O2    1  UNL1        0.2480
     21  O         17.0530  -23.3880   -9.2870 O.2     1  UNL1       -0.2050
     22  O         18.3310  -24.7150   -7.5640 O.2     1  UNL1       -0.2050
     23  N         18.0220  -22.1770   -7.1510 N.pl3   1  UNL1       -0.1720
     24  C         19.3870  -21.8060   -6.6450 C.3     1  UNL1        0.1140
     25  C         19.3110  -20.8610   -5.4620 C.3     1  UNL1        0.0200
     26  C         18.5940  -21.5630   -4.3250 C.3     1  UNL1        0.0420
     27  C         17.2360  -22.0190   -4.7800 C.2     1  UNL1       -0.0360
     28  C         16.2210  -22.1530   -3.8160 C.2     1  UNL1        0.0090
     29  C         16.9760  -22.3210   -6.1330 C.2     1  UNL1        0.0310
     30  C         14.9310  -22.5120   -4.1900 C.2     1  UNL1        0.0010
     31  C         14.6420  -22.7210   -5.5310 C.2     1  UNL1        0.0020
     32  C         15.6520  -22.6070   -6.4930 C.2     1  UNL1        0.0250
@<TRIPOS>BOND
     1    17    18    2
     2    17    15    1
     3    18    16    1
     4    15    14    1
     5    16    14    2
     6    16    19    1
     7    14    13    1
     8    19    11    2
     9    13    12    2
    10    11    12    1
    11    11     9    1
    12    10     9    1
    13     9     7   am
    14     7     8    2
    15     7     1    1
    16     6     1    2
    17     6     5    1
    18     1     2    1
    19     5     4    2
    20     2     3    2
    21    21    20    2
    22     4     3    1
    23     4    20    1
    24    20    22    2
    25    20    23    1
    26    23    24    1
    27    23    29    1
    28    24    25    1
    29    32    29    1
    30    32    31    2
    31    29    27    2
    32    31    30    1
    33    25    26    1
    34    27    26    1
    35    27    28    1
    36    30    28    2
