@<TRIPOS>MOLECULE
82519_out_ligand_01.pdbqt
 33 36 0 0 0
SMALL
GASTEIGER

@<TRIPOS>ATOM
      1  C         15.9520  -23.6610   -9.6670 C.3     1  UNL1        0.0330
      2  C         16.5720  -22.2910   -9.3690 C.3     1  UNL1        0.0930
      3  C         16.9400  -21.5670  -10.6820 C.3     1  UNL1        0.0660
      4  C         18.4230  -21.7440  -10.7250 C.2     1  UNL1       -0.0290
      5  C         19.2750  -21.4390  -11.7750 C.2     1  UNL1        0.0100
      6  C         20.6460  -21.6290  -11.5900 C.2     1  UNL1        0.0090
      7  C         21.1550  -22.1230  -10.3690 C.2     1  UNL1       -0.0380
      8  C         20.2690  -22.3950   -9.3110 C.2     1  UNL1        0.0390
      9  C         18.9090  -22.2090   -9.5020 C.2     1  UNL1        0.0440
     10  N         17.8410  -22.4250   -8.6010 N.am    1  UNL1       -0.3090
     11  C         17.9950  -22.8060   -7.2750 C.2     1  UNL1        0.2580
     12  O         19.0560  -23.0540   -6.7070 O.2     1  UNL1       -0.2670
     13  C         22.6410  -22.3210  -10.1660 C.3     1  UNL1        0.1620
     14  N         23.1940  -23.3140  -11.0620 N.am    1  UNL1       -0.3390
     15  C         24.1220  -22.9540  -12.0050 C.2     1  UNL1        0.3160
     16  O         24.5530  -21.8230  -12.1720 O.2     1  UNL1       -0.2470
     17  N         24.5320  -24.0520  -12.7240 N.am    1  UNL1       -0.3430
     18  H         24.4950  -24.9120  -12.1940 H       1  UNL1        0.1640
     19  H         22.5820  -24.0620  -11.3470 H       1  UNL1        0.1640
     20  C         25.6550  -23.9380  -13.6370 C.3     1  UNL1        0.1290
     21  C         25.3130  -24.3350  -15.0780 C.3     1  UNL1        0.0580
     22  C         25.1610  -23.1400  -15.9940 C.2     1  UNL1       -0.0570
     23  C         24.6880  -23.2980  -17.3040 C.2     1  UNL1        0.0070
     24  C         24.5750  -22.1940  -18.1530 C.2     1  UNL1        0.0010
     25  C         24.9360  -20.9260  -17.7010 C.2     1  UNL1        0.0000
     26  C         25.4090  -20.7570  -16.4000 C.2     1  UNL1        0.0010
     27  C         25.5220  -21.8580  -15.5500 C.2     1  UNL1        0.0070
     28  C         16.7770  -22.9220   -6.4440 C.2     1  UNL1        0.0320
     29  C         16.7110  -23.9350   -5.4830 C.2     1  UNL1        0.0170
     30  C         15.5800  -24.0470   -4.6740 C.2     1  UNL1        0.0010
     31  C         14.5310  -23.1340   -4.8110 C.2     1  UNL1        0.0000
     32  C         14.6130  -22.1030   -5.7490 C.2     1  UNL1        0.0010
     33  C         15.7420  -21.9890   -6.5620 C.2     1  UNL1        0.0170
@<TRIPOS>BOND
     1    24    25    2
     2    24    23    1
     3    25    26    1
     4    23    22    2
     5    26    27    2
     6    22    27    1
     7    22    21    1
     8    21    20    1
     9    20    17    1
    10    17    18    1
    11    17    15   am
    12    16    15    2
    13    15    14   am
    14     5     6    1
    15     5     4    2
    16     6     7    2
    17    19    14    1
    18    14    13    1
    19     4     3    1
    20     4     9    1
    21     3     2    1
    22     7    13    1
    23     7     8    1
    24     1     2    1
    25     9     8    2
    26     9    10    1
    27     2    10    1
    28    10    11   am
    29    11    12    2
    30    11    28    1
    31    33    28    2
    32    33    32    1
    33    28    29    1
    34    32    31    2
    35    29    30    2
    36    31    30    1
