@<TRIPOS>MOLECULE
82565_out_ligand_01.pdbqt
 34 38 0 0 0
SMALL
GASTEIGER

@<TRIPOS>ATOM
      1  C         21.3160  -22.4590   -9.7970 C.2     1  UNL1       -0.0380
      2  C         20.8350  -22.1420  -11.0860 C.2     1  UNL1        0.0090
      3  C         19.4720  -21.9510  -11.3210 C.2     1  UNL1        0.0100
      4  C         18.5960  -22.0950  -10.2560 C.2     1  UNL1       -0.0300
      5  C         19.0550  -22.4200   -8.9800 C.2     1  UNL1        0.0440
      6  C         20.4070  -22.5990   -8.7350 C.2     1  UNL1        0.0390
      7  N         17.9700  -22.5330   -8.0870 N.am    1  UNL1       -0.3130
      8  C         18.0700  -22.7660   -6.7260 C.2     1  UNL1        0.2580
      9  O         19.1060  -22.7950   -6.0660 O.2     1  UNL1       -0.2670
     10  C         16.7220  -22.3720   -8.8590 C.3     1  UNL1        0.1370
     11  C         17.1140  -21.8920  -10.2630 C.3     1  UNL1        0.0610
     12  C         22.7930  -22.6570   -9.5610 C.3     1  UNL1        0.1630
     13  N         23.3880  -23.4670  -10.6060 N.am    1  UNL1       -0.3390
     14  C         23.9200  -22.8850  -11.7380 C.2     1  UNL1        0.3200
     15  O         23.8370  -21.6850  -11.9600 O.2     1  UNL1       -0.2470
     16  N         24.5140  -23.8300  -12.5470 N.am    1  UNL1       -0.3090
     17  H         24.3750  -24.7890  -12.2690 H       1  UNL1        0.1700
     18  H         23.7850  -24.3440  -10.3040 H       1  UNL1        0.1640
     19  C         25.2000  -23.6170  -13.7600 C.2     1  UNL1        0.0390
     20  C         26.4420  -24.1850  -14.0640 C.2     1  UNL1        0.0320
     21  C         27.0620  -23.9280  -15.2920 C.2     1  UNL1        0.0420
     22  C         26.4450  -23.1010  -16.2250 C.2     1  UNL1        0.1020
     23  C         25.1930  -22.5500  -15.9440 C.2     1  UNL1        0.1040
     24  O         27.1210  -22.8820  -17.3970 O.2     1  UNL1       -0.3460
     25  C         24.5810  -22.7950  -14.7130 C.2     1  UNL1        0.0690
     26  O         24.5070  -21.7550  -16.8300 O.2     1  UNL1       -0.3460
     27  C         25.0440  -21.8680  -18.1530 C.3     1  UNL1        0.2020
     28  C         26.5610  -21.7850  -18.1280 C.3     1  UNL1        0.2020
     29  C         16.8080  -22.9820   -5.9890 C.2     1  UNL1        0.0320
     30  C         15.9410  -23.9960   -6.4050 C.2     1  UNL1        0.0170
     31  C         14.7410  -24.1930   -5.7240 C.2     1  UNL1        0.0010
     32  C         14.4070  -23.3700   -4.6470 C.2     1  UNL1        0.0000
     33  C         15.2640  -22.3410   -4.2510 C.2     1  UNL1        0.0010
     34  C         16.4650  -22.1390   -4.9280 C.2     1  UNL1        0.0170
@<TRIPOS>BOND
     1    27    28    1
     2    27    26    1
     3    28    24    1
     4    24    22    1
     5    26    23    1
     6    22    23    2
     7    22    21    1
     8    23    25    1
     9    21    20    2
    10    25    19    2
    11    20    19    1
    12    19    16    1
    13    16    17    1
    14    16    14   am
    15    15    14    2
    16    14    13   am
    17     3     2    1
    18     3     4    2
    19     2     1    2
    20    13    18    1
    21    13    12    1
    22    11     4    1
    23    11    10    1
    24     4     5    1
    25     1    12    1
    26     1     6    1
    27     5     6    2
    28     5     7    1
    29    10     7    1
    30     7     8   am
    31     8     9    2
    32     8    29    1
    33    30    29    2
    34    30    31    1
    35    29    34    1
    36    31    32    2
    37    34    33    2
    38    32    33    1
