@<TRIPOS>MOLECULE
82573_out_ligand_01.pdbqt
 33 37 0 0 0
SMALL
GASTEIGER

@<TRIPOS>ATOM
      1  C         23.5420  -22.2150  -11.5350 C.2     1  UNL1       -0.0400
      2  C         22.4010  -21.7620  -12.2200 C.2     1  UNL1        0.0100
      3  C         21.1260  -21.9940  -11.7030 C.2     1  UNL1        0.0260
      4  C         20.9900  -22.6890  -10.4980 C.2     1  UNL1        0.0790
      5  C         22.1130  -23.1380   -9.7990 C.2     1  UNL1        0.0260
      6  C         23.3870  -22.8940  -10.3170 C.2     1  UNL1        0.0100
      7  S         19.3640  -22.9840   -9.8510 S.O2    1  UNL1        0.2630
      8  O         18.7890  -24.0570  -10.6380 O.2     1  UNL1       -0.2000
      9  O         18.6790  -21.7170   -9.7020 O.2     1  UNL1       -0.2000
     10  N         19.6820  -23.6390   -8.3240 N.pl3   1  UNL1       -0.2800
     11  H         19.5220  -24.6440   -8.3200 H       1  UNL1        0.1790
     12  C         19.2570  -22.9020   -7.1810 C.2     1  UNL1        0.0490
     13  C         19.9920  -21.7760   -6.8020 C.2     1  UNL1        0.0310
     14  C         19.5990  -21.0170   -5.7000 C.2     1  UNL1        0.0030
     15  C         18.4670  -21.3760   -4.9720 C.2     1  UNL1        0.0080
     16  C         17.7120  -22.4870   -5.3590 C.2     1  UNL1       -0.0500
     17  C         18.0990  -23.2560   -6.4770 C.2     1  UNL1       -0.0250
     18  C         16.4900  -22.9160   -4.5870 C.3     1  UNL1        0.0390
     19  C         17.2360  -24.4480   -6.8140 C.3     1  UNL1        0.0410
     20  C         15.7480  -24.0910   -6.7530 C.3     1  UNL1        0.0050
     21  C         15.3420  -23.2420   -5.5400 C.3     1  UNL1        0.0050
     22  C         24.9220  -21.9200  -12.0790 C.3     1  UNL1        0.1740
     23  N         24.9500  -22.0090  -13.5210 N.am    1  UNL1       -0.2740
     24  C         24.9850  -23.1930  -14.2120 C.2     1  UNL1        0.2800
     25  C         24.9400  -22.8260  -15.6360 C.2     1  UNL1        0.1400
     26  O         25.0470  -24.3220  -13.7580 O.2     1  UNL1       -0.2650
     27  N         24.9530  -23.6740  -16.6790 N.2     1  UNL1       -0.2540
     28  C         24.8860  -21.4550  -15.7160 C.2     1  UNL1        0.0670
     29  C         24.9020  -23.0610  -17.8870 C.2     1  UNL1        0.1170
     30  C         24.8450  -21.6710  -18.0670 C.2     1  UNL1        0.0200
     31  C         24.8380  -20.8350  -16.9470 C.2     1  UNL1        0.0210
     32  C         24.8960  -20.9310  -14.3570 C.2     1  UNL1        0.2630
     33  O         24.8700  -19.7460  -14.0840 O.2     1  UNL1       -0.2670
@<TRIPOS>BOND
     1    30    29    2
     2    30    31    1
     3    29    27    1
     4    31    28    2
     5    27    25    2
     6    28    25    1
     7    28    32    1
     8    25    24    1
     9    32    33    2
    10    32    23   am
    11    24    26    2
    12    24    23   am
    13    23    22    1
    14     2     3    1
    15     2     1    2
    16    22     1    1
    17     3     4    2
    18     1     6    1
    19     8     7    2
    20     4     7    1
    21     4     5    1
    22     6     5    2
    23     7     9    2
    24     7    10    1
    25    10    11    1
    26    10    12    1
    27    12    13    2
    28    12    17    1
    29    19    20    1
    30    19    17    1
    31    13    14    1
    32    20    21    1
    33    17    16    2
    34    14    15    2
    35    21    18    1
    36    16    15    1
    37    16    18    1
