@<TRIPOS>MOLECULE
82581_out_ligand_01.pdbqt
 29 32 0 0 0
SMALL
GASTEIGER

@<TRIPOS>ATOM
      1  C         19.9820  -21.9080  -11.0670 C.2     1  UNL1        0.0320
      2  C         18.8420  -21.6050  -11.8240 C.2     1  UNL1        0.0180
      3  C         17.5710  -21.7740  -11.2670 C.2     1  UNL1        0.0190
      4  C         17.4340  -22.2270   -9.9490 C.2     1  UNL1        0.0450
      5  C         18.5710  -22.5040   -9.1800 C.2     1  UNL1       -0.0380
      6  C         19.8440  -22.3490   -9.7430 C.2     1  UNL1        0.0250
      7  C         18.3940  -23.0020   -7.7740 C.3     1  UNL1        0.0770
      8  C         17.1210  -22.3720   -7.2060 C.3     1  UNL1        0.1690
      9  O         15.9900  -22.6720   -8.0540 O.3     1  UNL1       -0.3070
     10  C         16.0720  -22.4390   -9.3880 C.2     1  UNL1        0.2940
     11  O         15.0850  -22.4310  -10.1100 O.2     1  UNL1       -0.2590
     12  C         21.3570  -21.7420  -11.6190 C.2     1  UNL1        0.2560
     13  N         22.3610  -22.3210  -10.8630 N.am    1  UNL1       -0.3230
     14  H         22.0980  -22.7030   -9.9640 H       1  UNL1        0.1690
     15  O         21.4860  -21.0960  -12.6500 O.2     1  UNL1       -0.2670
     16  C         23.7420  -22.3580  -11.1600 C.2     1  UNL1        0.0370
     17  C         24.6680  -21.4430  -10.6570 C.2     1  UNL1        0.0290
     18  C         26.0170  -21.5420  -11.0050 C.2     1  UNL1        0.0050
     19  C         26.4460  -22.5560  -11.8580 C.2     1  UNL1        0.0370
     20  C         25.5350  -23.4790  -12.3720 C.2     1  UNL1        0.0700
     21  C         24.1850  -23.3760  -12.0220 C.2     1  UNL1        0.0660
     22  O         26.0840  -24.4220  -13.1960 O.2     1  UNL1       -0.3560
     23  C         25.5490  -24.5300  -14.5080 C.3     1  UNL1        0.2100
     24  C         16.8530  -22.8760   -5.8020 C.2     1  UNL1       -0.0290
     25  C         17.8450  -22.8480   -4.8100 C.2     1  UNL1        0.0100
     26  C         17.5680  -23.2900   -3.5150 C.2     1  UNL1        0.0010
     27  C         16.2960  -23.7580   -3.1930 C.2     1  UNL1        0.0000
     28  C         15.2990  -23.7860   -4.1650 C.2     1  UNL1        0.0010
     29  C         15.5740  -23.3460   -5.4620 C.2     1  UNL1        0.0100
@<TRIPOS>BOND
     1    23    22    1
     2    22    20    1
     3    15    12    2
     4    20    21    1
     5    20    19    2
     6    21    16    2
     7    19    18    1
     8     2     3    1
     9     2     1    2
    10    12     1    1
    11    12    13   am
    12     3     4    2
    13    16    13    1
    14    16    17    1
    15     1     6    1
    16    18    17    2
    17    13    14    1
    18    11    10    2
    19     4    10    1
    20     4     5    1
    21     6     5    2
    22    10     9    1
    23     5     7    1
    24     9     8    1
    25     7     8    1
    26     8    24    1
    27    24    29    2
    28    24    25    1
    29    29    28    1
    30    25    26    2
    31    28    27    2
    32    26    27    1
