@<TRIPOS>MOLECULE
82604_out_ligand_01.pdbqt
 34 37 0 0 0
SMALL
GASTEIGER

@<TRIPOS>ATOM
      1  C         17.0010  -21.7070  -10.9550 C.3     1  UNL1        0.0480
      2  C         18.4940  -21.6790  -11.1120 C.2     1  UNL1       -0.0600
      3  C         19.0820  -20.9520  -12.1480 C.2     1  UNL1        0.0070
      4  C         20.4670  -20.9590  -12.3120 C.2     1  UNL1        0.0140
      5  C         21.2770  -21.7020  -11.4450 C.2     1  UNL1       -0.0080
      6  C         22.7250  -21.6890  -11.6200 C.2     1  UNL1        0.0280
      7  C         23.5310  -22.3970  -10.8130 C.2     1  UNL1        0.0290
      8  C         22.9430  -23.2740   -9.7580 C.2     1  UNL1        0.2560
      9  O         23.6620  -24.0530   -9.1340 O.2     1  UNL1       -0.2670
     10  N         21.5660  -23.2100   -9.5520 N.am    1  UNL1       -0.3040
     11  C         20.7070  -22.4460  -10.4020 C.2     1  UNL1        0.0480
     12  C         19.3100  -22.4300  -10.2510 C.2     1  UNL1        0.0370
     13  C         21.0080  -23.9850   -8.4360 C.3     1  UNL1        0.2350
     14  C         19.9870  -23.2340   -7.5680 C.2     1  UNL1        0.2400
     15  O         20.2970  -22.1630   -7.0480 O.2     1  UNL1       -0.2710
     16  N         18.7950  -23.9110   -7.3930 N.am    1  UNL1       -0.3260
     17  H         18.7290  -24.8040   -7.8630 H       1  UNL1        0.1690
     18  C         17.6600  -23.5070   -6.6630 C.2     1  UNL1        0.0350
     19  C         16.6540  -22.8410   -7.3680 C.2     1  UNL1        0.0300
     20  C         15.5010  -22.3950   -6.7160 C.2     1  UNL1        0.0090
     21  C         15.3280  -22.6080   -5.3420 C.2     1  UNL1       -0.0560
     22  C         14.0680  -22.1290   -4.6760 C.3     1  UNL1        0.0490
     23  C         16.3240  -23.3000   -4.6270 C.2     1  UNL1       -0.0540
     24  C         16.1850  -23.5770   -3.1530 C.3     1  UNL1        0.0490
     25  C         17.4870  -23.7330   -5.2960 C.2     1  UNL1        0.0370
     26  C         25.0310  -22.4060  -10.9550 C.3     1  UNL1        0.1640
     27  N         25.4350  -23.5500  -11.7720 N.pl3   1  UNL1       -0.3850
     28  H         26.2320  -24.0590  -11.4010 H       1  UNL1        0.1600
     29  C         25.5220  -23.4000  -13.1620 C.2     1  UNL1        0.0280
     30  C         25.7400  -22.1720  -13.7980 C.2     1  UNL1        0.0290
     31  C         25.7430  -22.0700  -15.1950 C.2     1  UNL1        0.0020
     32  C         25.5030  -23.1940  -15.9800 C.2     1  UNL1        0.0000
     33  C         25.2460  -24.4150  -15.3670 C.2     1  UNL1        0.0020
     34  C         25.2420  -24.5110  -13.9720 C.2     1  UNL1        0.0290
@<TRIPOS>BOND
     1    32    33    2
     2    32    31    1
     3    33    34    1
     4    31    30    2
     5    34    29    2
     6    30    29    1
     7    29    27    1
     8     4     3    1
     9     4     5    2
    10     3     2    2
    11    27    28    1
    12    27    26    1
    13     6     5    1
    14     6     7    2
    15     5    11    1
    16     2     1    1
    17     2    12    1
    18    26     7    1
    19     7     8    1
    20    11    12    2
    21    11    10    1
    22     8    10   am
    23     8     9    2
    24    10    13    1
    25    13    14    1
    26    17    16    1
    27    14    16   am
    28    14    15    2
    29    16    18    1
    30    19    20    1
    31    19    18    2
    32    20    21    2
    33    18    25    1
    34    21    22    1
    35    21    23    1
    36    25    23    2
    37    23    24    1
