@<TRIPOS>MOLECULE
82635_out_ligand_01.pdbqt
 30 33 0 0 0
SMALL
GASTEIGER

@<TRIPOS>ATOM
      1  C         25.0740  -21.9660  -13.2360 C.2     1  UNL1        0.0690
      2  C         25.0330  -22.9820  -12.2810 C.2     1  UNL1        0.0390
      3  C         23.8500  -23.2860  -11.5930 C.2     1  UNL1        0.0330
      4  C         22.7100  -22.5320  -11.8960 C.2     1  UNL1        0.0430
      5  N         21.4340  -22.6030  -11.3890 N.pl3   1  UNL1       -0.3520
      6  C         20.6330  -21.6540  -11.9730 C.2     1  UNL1        0.0890
      7  C         19.2630  -21.5040  -11.6150 C.2     1  UNL1        0.2230
      8  N         18.6500  -22.2810  -10.7430 N.2     1  UNL1       -0.2030
      9  C         17.3800  -21.7630  -10.7250 C.2     1  UNL1        0.1580
     10  N         17.1870  -20.7130  -11.5290 N.4     1  UNL1       -0.1110
     11  O         18.4350  -20.5410  -12.1300 O.2     1  UNL1       -0.1890
     12  C         21.4040  -20.9640  -12.8830 C.2     1  UNL1        0.0480
     13  C         22.7180  -21.5100  -12.8430 C.2     1  UNL1       -0.0040
     14  C         23.9180  -21.2270  -13.5220 C.2     1  UNL1        0.0500
     15  H         21.1230  -23.2500  -10.6760 H       1  UNL1        0.1660
     16  C         16.3130  -22.3160   -9.8570 C.3     1  UNL1        0.1030
     17  C         16.6410  -22.2150   -8.3640 C.3     1  UNL1        0.1330
     18  N         16.6310  -23.5020   -7.6500 N.am    1  UNL1       -0.3520
     19  C         15.3410  -23.9890   -7.1850 C.3     1  UNL1        0.1520
     20  C         17.7590  -24.0570   -7.0350 C.2     1  UNL1        0.2530
     21  O         17.7080  -24.9140   -6.1570 O.2     1  UNL1       -0.2670
     22  C         19.0990  -23.5950   -7.4500 C.2     1  UNL1        0.0320
     23  C         19.5890  -22.3880   -6.9370 C.2     1  UNL1        0.0200
     24  C         20.8620  -21.9520   -7.3050 C.2     1  UNL1        0.0430
     25  C         21.6340  -22.7320   -8.1610 C.2     1  UNL1        0.1160
     26  F         22.8570  -22.3150   -8.5090 F       1  UNL1       -0.2060
     27  C         21.1630  -23.9480   -8.6510 C.2     1  UNL1        0.0430
     28  C         19.8910  -24.3880   -8.2890 C.2     1  UNL1        0.0200
     29  O         26.1730  -21.5940  -13.9630 O.2     1  UNL1       -0.3560
     30  C         26.1610  -20.2890  -14.5300 C.3     1  UNL1        0.2100
@<TRIPOS>BOND
     1    30    29    1
     2    29     1    1
     3    14     1    2
     4    14    13    1
     5     1     2    1
     6    12    13    1
     7    12     6    2
     8    13     4    2
     9     2     3    2
    10    11     7    1
    11    11    10    1
    12     6     7    1
    13     6     5    1
    14     4     3    1
    15     4     5    1
    16     7     8    2
    17    10     9    1
    18     5    15    1
    19     8     9    2
    20     9    16    1
    21    16    17    1
    22    27    28    1
    23    27    25    2
    24    26    25    1
    25    17    18    1
    26    28    22    2
    27    25    24    1
    28    18    19    1
    29    18    20   am
    30    22    20    1
    31    22    23    1
    32    24    23    2
    33    20    21    2
