@<TRIPOS>MOLECULE
82669_out_ligand_01.pdbqt
 35 39 0 0 0
SMALL
GASTEIGER

@<TRIPOS>ATOM
      1  S         16.2280  -23.4950   -9.5500 S.3     1  UNL1       -0.0870
      2  C         16.5390  -21.7880  -10.0950 C.3     1  UNL1        0.1210
      3  C         17.9050  -21.6550  -10.7260 C.2     1  UNL1       -0.0480
      4  C         18.7460  -22.7740  -10.8400 C.2     1  UNL1        0.0090
      5  C         20.0130  -22.6510  -11.4190 C.2     1  UNL1        0.0170
      6  C         20.4610  -21.4060  -11.8730 C.2     1  UNL1        0.0320
      7  C         19.6250  -20.2870  -11.7700 C.2     1  UNL1        0.0170
      8  C         18.3570  -20.4140  -11.1960 C.2     1  UNL1        0.0090
      9  C         21.8160  -21.3210  -12.4800 C.2     1  UNL1        0.2520
     10  O         21.9540  -20.8830  -13.6150 O.2     1  UNL1       -0.2680
     11  N         22.8580  -21.7890  -11.7040 N.am    1  UNL1       -0.3520
     12  H         22.6700  -22.1550  -10.7810 H       1  UNL1        0.1630
     13  C         24.2490  -21.6720  -12.1280 C.3     1  UNL1        0.0840
     14  C         25.1730  -21.8320  -10.9100 C.3     1  UNL1        0.0250
     15  C         26.5360  -22.3910  -11.2990 C.3     1  UNL1        0.0020
     16  C         26.4210  -23.7740  -11.9410 C.3     1  UNL1        0.0000
     17  C         25.1110  -23.9860  -12.7020 C.3     1  UNL1        0.0020
     18  C         24.5580  -22.6770  -13.2500 C.3     1  UNL1        0.0250
     19  C         16.2610  -23.2760   -7.8320 C.ar    1  UNL1        0.1700
     20  N         15.3810  -22.5790   -7.1550 N.ar    1  UNL1       -0.2220
     21  C         15.7610  -22.6950   -5.8420 C.ar    1  UNL1        0.0890
     22  C         15.1650  -22.1640   -4.6990 C.2     1  UNL1        0.0530
     23  C         16.9060  -23.4720   -5.7220 C.ar    1  UNL1        0.0830
     24  C         15.7860  -22.4670   -3.5000 C.2     1  UNL1        0.1180
     25  N         16.9020  -23.2200   -3.3770 N.2     1  UNL1       -0.2710
     26  C         17.4800  -23.7360   -4.4860 C.2     1  UNL1        0.1480
     27  N         17.2230  -23.8240   -7.0190 N.ar    1  UNL1       -0.3190
     28  C         18.3480  -24.6570   -7.4160 C.3     1  UNL1        0.1700
     29  C         19.5930  -23.8500   -7.7010 C.2     1  UNL1       -0.0370
     30  C         19.6980  -22.5280   -7.2310 C.2     1  UNL1        0.0090
     31  C         20.8360  -21.7620   -7.4970 C.2     1  UNL1        0.0040
     32  C         21.8770  -22.3010   -8.2470 C.2     1  UNL1        0.0420
     33  C         21.7760  -23.6030   -8.7190 C.2     1  UNL1        0.1170
     34  F         22.7770  -24.1190   -9.4450 F       1  UNL1       -0.2060
     35  C         20.6500  -24.3790   -8.4570 C.2     1  UNL1        0.0510
@<TRIPOS>BOND
     1    10     9    2
     2    18    17    1
     3    18    13    1
     4    17    16    1
     5     9     6    1
     6     9    11   am
     7    13    11    1
     8    13    14    1
     9    16    15    1
    10     6     7    2
    11     6     5    1
    12     7     8    1
    13    11    12    1
    14     5     4    2
    15    15    14    1
    16     8     3    2
    17     4     3    1
    18     3     2    1
    19     2     1    1
    20     1    19    1
    21    34    33    1
    22    33    35    1
    23    33    32    2
    24    35    29    2
    25    32    31    1
    26    19    20   ar
    27    19    27   ar
    28    29    28    1
    29    29    30    1
    30    31    30    2
    31    28    27    1
    32    20    21   ar
    33    27    23   ar
    34    21    23   ar
    35    21    22    1
    36    23    26    1
    37    22    24    2
    38    26    25    2
    39    24    25    1
