@<TRIPOS>MOLECULE
82677_out_ligand_01.pdbqt
 27 30 0 0 0
SMALL
GASTEIGER

@<TRIPOS>ATOM
      1  C         17.9810  -22.9000   -9.1370 C.3     1  UNL1        0.1690
      2  C         19.4310  -22.5420   -8.8190 C.3     1  UNL1        0.0770
      3  C         20.1230  -22.2130  -10.1100 C.2     1  UNL1       -0.0380
      4  C         21.4930  -22.4530  -10.2860 C.2     1  UNL1        0.0250
      5  C         22.1230  -22.1110  -11.4920 C.2     1  UNL1        0.0320
      6  C         21.3750  -21.5380  -12.5290 C.2     1  UNL1        0.0180
      7  C         20.0110  -21.2820  -12.3480 C.2     1  UNL1        0.0190
      8  C         19.3860  -21.6160  -11.1400 C.2     1  UNL1        0.0450
      9  C         17.9440  -21.3010  -10.9540 C.2     1  UNL1        0.2940
     10  O         17.3480  -20.5820  -11.7440 O.2     1  UNL1       -0.2590
     11  O         17.3430  -21.8230   -9.8550 O.3     1  UNL1       -0.3070
     12  C         23.5760  -22.4010  -11.6360 C.2     1  UNL1        0.2520
     13  O         24.2820  -22.4940  -10.6390 O.2     1  UNL1       -0.2680
     14  N         24.0520  -22.5150  -12.9270 N.am    1  UNL1       -0.3520
     15  H         23.4790  -22.1630  -13.6800 H       1  UNL1        0.1630
     16  C         25.4700  -22.6900  -13.1830 C.3     1  UNL1        0.0840
     17  C         25.9270  -21.9180  -14.4230 C.3     1  UNL1        0.0250
     18  C         27.1210  -22.7130  -14.9220 C.3     1  UNL1        0.0020
     19  C         26.6590  -24.1500  -14.7550 C.3     1  UNL1        0.0020
     20  C         25.8620  -24.1540  -13.4520 C.3     1  UNL1        0.0250
     21  C         17.2070  -23.1920   -7.8660 C.2     1  UNL1       -0.0290
     22  C         16.0180  -22.5160   -7.5590 C.2     1  UNL1        0.0100
     23  C         15.3350  -22.7770   -6.3690 C.2     1  UNL1        0.0070
     24  C         15.8240  -23.7240   -5.4640 C.2     1  UNL1       -0.0620
     25  C         15.1070  -23.9820   -4.1710 C.3     1  UNL1        0.0480
     26  C         17.0210  -24.3870   -5.7550 C.2     1  UNL1        0.0070
     27  C         17.7040  -24.1270   -6.9450 C.2     1  UNL1        0.0100
@<TRIPOS>BOND
     1    18    19    1
     2    18    17    1
     3    19    20    1
     4    17    16    1
     5    15    14    1
     6    20    16    1
     7    16    14    1
     8    14    12   am
     9     6     7    2
    10     6     5    1
    11     7     8    1
    12    10     9    2
    13    12     5    1
    14    12    13    2
    15     5     4    2
    16     8     9    1
    17     8     3    2
    18     9    11    1
    19     4     3    1
    20     3     2    1
    21    11     1    1
    22     1     2    1
    23     1    21    1
    24    21    22    2
    25    21    27    1
    26    22    23    1
    27    27    26    2
    28    23    24    2
    29    26    24    1
    30    24    25    1
