@<TRIPOS>MOLECULE
82689_out_ligand_01.pdbqt
 34 37 0 0 0
SMALL
GASTEIGER

@<TRIPOS>ATOM
      1  N         18.5910  -22.3870   -9.3560 N.3     1  UNL1       -0.3060
      2  C         17.5490  -22.1480  -10.3740 C.3     1  UNL1        0.1350
      3  C         17.8830  -20.8860  -11.1570 C.3     1  UNL1        0.0210
      4  C         19.2150  -21.0040  -11.8970 C.3     1  UNL1        0.0150
      5  C         20.1350  -22.0840  -11.2970 C.3     1  UNL1        0.0740
      6  C         20.0000  -22.1220   -9.7700 C.3     1  UNL1        0.1470
      7  C         21.5510  -21.8730  -11.7340 C.ar    1  UNL1        0.1110
      8  N         22.0000  -21.7400  -12.9630 N.ar    1  UNL1       -0.2320
      9  C         23.3630  -21.5740  -12.8550 C.ar    1  UNL1        0.1010
     10  C         23.7700  -21.6770  -11.5350 C.ar    1  UNL1        0.1320
     11  N         22.5850  -21.8020  -10.8420 N.ar    1  UNL1       -0.3380
     12  H         22.5240  -21.8710   -9.8350 H       1  UNL1        0.1670
     13  C         24.1950  -21.3340  -14.0200 C.2     1  UNL1       -0.0050
     14  C         24.8880  -20.1300  -14.1800 C.2     1  UNL1        0.0140
     15  C         25.7050  -19.9260  -15.2940 C.2     1  UNL1        0.0010
     16  C         25.8210  -20.9160  -16.2650 C.2     1  UNL1        0.0000
     17  C         25.1120  -22.1060  -16.1290 C.2     1  UNL1        0.0010
     18  C         24.2960  -22.3140  -15.0140 C.2     1  UNL1        0.0140
     19  C         25.0270  -21.6720  -10.8390 C.2     1  UNL1        0.2680
     20  N         25.4640  -22.8500  -10.3180 N.am    1  UNL1       -0.3650
     21  H         24.8470  -23.6420  -10.2080 H       1  UNL1        0.1590
     22  H         26.2820  -22.8050   -9.7260 H       1  UNL1        0.1590
     23  O         25.6780  -20.6470  -10.6590 O.2     1  UNL1       -0.2660
     24  S         18.3150  -23.5940   -8.2020 S.O2    1  UNL1        0.2600
     25  O         19.4420  -24.5050   -8.2240 O.2     1  UNL1       -0.2000
     26  O         16.9590  -24.0770   -8.3610 O.2     1  UNL1       -0.2000
     27  C         18.3920  -22.6990   -6.6590 C.2     1  UNL1        0.0800
     28  C         17.4870  -23.0070   -5.6340 C.2     1  UNL1        0.0350
     29  C         17.5240  -22.2910   -4.4270 C.2     1  UNL1       -0.0220
     30  C         16.5450  -22.5870   -3.3320 C.3     1  UNL1        0.0510
     31  C         18.4490  -21.2510   -4.2920 C.2     1  UNL1        0.1220
     32  C         19.3340  -20.9260   -5.3200 C.2     1  UNL1        0.0440
     33  F         18.4920  -20.5390   -3.1530 F       1  UNL1       -0.2060
     34  C         19.3060  -21.6480   -6.5120 C.2     1  UNL1        0.0280
@<TRIPOS>BOND
     1    16    17    2
     2    16    15    1
     3    17    18    1
     4    15    14    2
     5    18    13    2
     6    14    13    1
     7    13     9    1
     8     8     9   ar
     9     8     7   ar
    10     9    10   ar
    11     4     5    1
    12     4     3    1
    13     7     5    1
    14     7    11   ar
    15    10    11   ar
    16    10    19    1
    17     5     6    1
    18     3     2    1
    19    11    12    1
    20    19    23    2
    21    19    20   am
    22     2     1    1
    23    20    21    1
    24    20    22    1
    25     6     1    1
    26     1    24    1
    27    26    24    2
    28    25    24    2
    29    24    27    1
    30    27    34    2
    31    27    28    1
    32    34    32    1
    33    28    29    2
    34    32    31    2
    35    29    31    1
    36    29    30    1
    37    31    33    1
