@<TRIPOS>MOLECULE
82694_out_ligand_01.pdbqt
 35 38 0 0 0
SMALL
GASTEIGER

@<TRIPOS>ATOM
      1  C         21.0330  -22.9130   -9.9880 C.3     1  UNL1        0.0910
      2  C         21.8540  -22.5990   -8.7270 C.3     1  UNL1        0.0510
      3  C         23.0910  -21.7840   -9.0640 C.3     1  UNL1        0.1700
      4  O         23.8430  -22.4340  -10.0860 O.3     1  UNL1       -0.3810
      5  C         23.1410  -22.6200  -11.3240 C.3     1  UNL1        0.1560
      6  C         21.6440  -22.2940  -11.2530 C.3     1  UNL1        0.0620
      7  N         19.5980  -22.5880   -9.8400 N.am    1  UNL1       -0.3470
      8  C         18.8030  -23.3850   -9.0150 C.2     1  UNL1        0.2240
      9  O         19.2490  -24.4150   -8.4930 O.2     1  UNL1       -0.2730
     10  C         19.1120  -21.4050  -10.5630 C.3     1  UNL1        0.1220
     11  C         18.2390  -21.7590  -11.7580 C.3     1  UNL1        0.0260
     12  C         17.3480  -23.0050   -8.7690 C.3     1  UNL1        0.1440
     13  C         16.9420  -23.0630   -7.3290 C.2     1  UNL1       -0.0210
     14  C         15.9030  -23.8150   -6.8090 C.2     1  UNL1        0.0970
     15  N         15.8480  -23.6020   -5.4580 N.pl3   1  UNL1       -0.3650
     16  C         16.8390  -22.7310   -5.0740 C.2     1  UNL1        0.0420
     17  H         15.1870  -24.0300   -4.8250 H       1  UNL1        0.1650
     18  C         17.1560  -22.2340   -3.8030 C.2     1  UNL1        0.0300
     19  C         17.5530  -22.3840   -6.2210 C.2     1  UNL1       -0.0010
     20  C         18.2360  -21.3540   -3.7000 C.2     1  UNL1        0.0020
     21  C         18.9740  -20.9920   -4.8240 C.2     1  UNL1        0.0010
     22  C         18.6450  -21.5010   -6.0860 C.2     1  UNL1        0.0140
     23  C         23.8270  -21.8660  -12.4530 C.2     1  UNL1       -0.0290
     24  C         23.1200  -21.4120  -13.5780 C.2     1  UNL1        0.0110
     25  C         23.7710  -20.7170  -14.6020 C.2     1  UNL1        0.0170
     26  C         25.1440  -20.4660  -14.5150 C.2     1  UNL1        0.0320
     27  C         25.8640  -20.9390  -13.4130 C.2     1  UNL1        0.0170
     28  C         25.2090  -21.6290  -12.3890 C.2     1  UNL1        0.0110
     29  C         25.8750  -19.7170  -15.5720 C.2     1  UNL1        0.2510
     30  O         26.3650  -20.3130  -16.5240 O.2     1  UNL1       -0.2680
     31  N         25.9970  -18.3550  -15.3720 N.am    1  UNL1       -0.3530
     32  H         25.8000  -17.9960  -14.4470 H       1  UNL1        0.1630
     33  C         26.8240  -17.5340  -16.2470 C.3     1  UNL1        0.0760
     34  C         27.1150  -16.1800  -15.6010 C.3     1  UNL1        0.0320
     35  C         26.1370  -17.3520  -17.5960 C.3     1  UNL1        0.0320
@<TRIPOS>BOND
     1    35    33    1
     2    30    29    2
     3    33    34    1
     4    33    31    1
     5    29    31   am
     6    29    26    1
     7    31    32    1
     8    25    26    2
     9    25    24    1
    10    26    27    1
    11    24    23    2
    12    27    28    2
    13    23    28    1
    14    23     5    1
    15    11    10    1
    16     5     6    1
    17     5     4    1
    18     6     1    1
    19    10     7    1
    20     4     3    1
    21     1     7    1
    22     1     2    1
    23     7     8   am
    24     3     2    1
    25     8    12    1
    26     8     9    2
    27    12    13    1
    28    13    14    2
    29    13    19    1
    30    14    15    1
    31    19    22    1
    32    19    16    2
    33    22    21    2
    34    15    16    1
    35    15    17    1
    36    16    18    1
    37    21    20    1
    38    18    20    2
