@<TRIPOS>MOLECULE
82718_out_ligand_01.pdbqt
 35 39 0 0 0
SMALL
GASTEIGER

@<TRIPOS>ATOM
      1  N         19.4440  -22.0360  -11.1030 N.3     1  UNL1        0.0970
      2  C         18.2400  -21.8290  -11.9330 C.3     1  UNL1        0.2990
      3  C         17.1330  -21.0460  -11.2130 C.3     1  UNL1        0.1990
      4  O         16.6460  -21.7120  -10.0430 O.3     1  UNL1       -0.3760
      5  C         17.6550  -22.5040   -9.3750 C.3     1  UNL1        0.2010
      6  C         19.0900  -21.9960   -9.6560 C.3     1  UNL1        0.3110
      7  C         17.3890  -22.5270   -7.8780 C.2     1  UNL1        0.0670
      8  C         18.2070  -21.8450   -6.9920 C.2     1  UNL1        0.0480
      9  C         17.9220  -21.9200   -5.6260 C.2     1  UNL1        0.0460
     10  C         16.8350  -22.6920   -5.1540 C.2     1  UNL1        0.0080
     11  C         16.4560  -22.8310   -3.7940 C.2     1  UNL1        0.0150
     12  C         16.0720  -23.3520   -6.1370 C.2     1  UNL1        0.0680
     13  C         15.3640  -23.6110   -3.4220 C.2     1  UNL1        0.0010
     14  C         14.6270  -24.2630   -4.3990 C.2     1  UNL1        0.0020
     15  C         14.9880  -24.1240   -5.7400 C.2     1  UNL1        0.0320
     16  N         16.3400  -23.2710   -7.4510 N.2     1  UNL1       -0.2500
     17  C         18.8170  -21.1810   -4.6990 C.2     1  UNL1        0.2500
     18  N         19.6350  -20.2450   -5.2700 N.am    1  UNL1       -0.3660
     19  H         19.5160  -19.9290   -6.2230 H       1  UNL1        0.1590
     20  H         20.1730  -19.6670   -4.6400 H       1  UNL1        0.1590
     21  O         18.8280  -21.3820   -3.4930 O.2     1  UNL1       -0.2680
     22  C         20.4910  -21.0370  -11.4150 C.3     1  UNL1        0.3140
     23  C         21.8140  -21.6450  -11.8250 C.2     1  UNL1        0.0110
     24  C         22.3030  -21.4390  -13.1240 C.2     1  UNL1        0.0260
     25  C         23.5190  -22.0000  -13.5200 C.2     1  UNL1       -0.0070
     26  C         24.0310  -21.8240  -14.8180 C.2     1  UNL1        0.0140
     27  C         24.2250  -22.7590  -12.5710 C.2     1  UNL1        0.0690
     28  C         25.2440  -22.4040  -15.1790 C.2     1  UNL1        0.0010
     29  C         25.9460  -23.1590  -14.2470 C.2     1  UNL1        0.0020
     30  C         25.4330  -23.3270  -12.9580 C.2     1  UNL1        0.0320
     31  N         23.7790  -22.9470  -11.3190 N.2     1  UNL1       -0.2360
     32  C         22.5980  -22.3970  -10.9420 C.2     1  UNL1        0.1130
     33  N         22.1680  -22.5730   -9.6010 N.pl3   1  UNL1       -0.2760
     34  C         22.9710  -21.7000   -8.7380 C.3     1  UNL1        0.1180
     35  C         22.2450  -23.9840   -9.2110 C.3     1  UNL1        0.1180
@<TRIPOS>BOND
     1    28    26    1
     2    28    29    2
     3    26    25    2
     4    29    30    1
     5    25    24    1
     6    25    27    1
     7    24    23    2
     8    30    27    2
     9    27    31    1
    10     2     3    1
    11     2     1    1
    12    23    22    1
    13    23    32    1
    14    22     1    1
    15    31    32    2
    16     3     4    1
    17     1     6    1
    18    32    33    1
    19     4     5    1
    20     6     5    1
    21    33    35    1
    22    33    34    1
    23     5     7    1
    24     7    16    2
    25     7     8    1
    26    16    12    1
    27     8     9    2
    28    19    18    1
    29    12    15    1
    30    12    10    2
    31    15    14    2
    32     9    10    1
    33     9    17    1
    34    18    17   am
    35    18    20    1
    36    10    11    1
    37    17    21    2
    38    14    13    1
    39    11    13    2
