@<TRIPOS>MOLECULE
82733_out_ligand_01.pdbqt
 35 39 0 0 0
SMALL
GASTEIGER

@<TRIPOS>ATOM
      1  C         21.8950  -23.1140   -8.3180 C.3     1  UNL1        0.0680
      2  C         22.6250  -21.7780   -8.1500 C.3     1  UNL1        0.0430
      3  C         23.1150  -21.3960   -9.5470 C.3     1  UNL1        0.2730
      4  N         22.7110  -22.4910  -10.4370 N.3     1  UNL1        0.0930
      5  C         22.5350  -23.6730   -9.5920 C.3     1  UNL1        0.2830
      6  C         20.3840  -23.0030   -8.4240 C.2     1  UNL1        0.0420
      7  C         19.5950  -23.4300   -7.3700 C.2     1  UNL1        0.0450
      8  C         18.2090  -23.3300   -7.4940 C.2     1  UNL1        0.0460
      9  C         17.6160  -22.7670   -8.6450 C.2     1  UNL1        0.0080
     10  C         16.2250  -22.5500   -8.8320 C.2     1  UNL1        0.0150
     11  C         18.5060  -22.3780   -9.6630 C.2     1  UNL1        0.0680
     12  C         15.7340  -22.0030  -10.0150 C.2     1  UNL1        0.0010
     13  C         16.6190  -21.6540  -11.0240 C.2     1  UNL1        0.0020
     14  C         17.9890  -21.8410  -10.8340 C.2     1  UNL1        0.0320
     15  N         19.8390  -22.4970   -9.5540 N.2     1  UNL1       -0.2520
     16  C         17.4210  -23.8540   -6.3560 C.2     1  UNL1        0.2520
     17  N         16.7660  -22.9030   -5.6000 N.am    1  UNL1       -0.3530
     18  H         16.8990  -21.9230   -5.8230 H       1  UNL1        0.1630
     19  O         17.3420  -25.0620   -6.1720 O.2     1  UNL1       -0.2680
     20  C         16.0100  -23.2560   -4.4070 C.3     1  UNL1        0.0760
     21  C         14.7900  -22.3500   -4.2690 C.3     1  UNL1        0.0320
     22  C         16.8940  -23.1680   -3.1660 C.3     1  UNL1        0.0320
     23  C         23.6290  -22.7150  -11.5550 C.3     1  UNL1        0.3150
     24  C         23.1960  -21.9140  -12.7400 C.2     1  UNL1        0.0180
     25  C         22.1400  -21.0230  -12.8040 C.2     1  UNL1        0.1200
     26  N         22.1570  -20.4950  -14.0550 N.pl3   1  UNL1       -0.2880
     27  N         23.1330  -20.9830  -14.8310 N.2     1  UNL1       -0.1740
     28  H         21.5400  -19.7930  -14.4470 H       1  UNL1        0.1880
     29  C         23.7740  -21.8700  -14.0490 C.2     1  UNL1        0.0960
     30  C         24.9160  -22.6180  -14.5640 C.2     1  UNL1       -0.0050
     31  C         25.2130  -23.8980  -14.0790 C.2     1  UNL1        0.0140
     32  C         26.3130  -24.6010  -14.5750 C.2     1  UNL1        0.0010
     33  C         27.1200  -24.0320  -15.5600 C.2     1  UNL1        0.0000
     34  C         26.8250  -22.7630  -16.0560 C.2     1  UNL1        0.0010
     35  C         25.7240  -22.0600  -15.5630 C.2     1  UNL1        0.0140
@<TRIPOS>BOND
     1    34    35    1
     2    34    33    2
     3    35    30    2
     4    33    32    1
     5    27    26    1
     6    27    29    2
     7    32    31    2
     8    30    31    1
     9    30    29    1
    10    28    26    1
    11    26    25    1
    12    29    24    1
    13    25    24    2
    14    24    23    1
    15    23     4    1
    16    13    14    2
    17    13    12    1
    18    14    11    1
    19     4     5    1
    20     4     3    1
    21    12    10    2
    22    11    15    1
    23    11     9    2
    24     5     1    1
    25    15     6    2
    26     3     2    1
    27    10     9    1
    28     9     8    1
    29     6     1    1
    30     6     7    1
    31     1     2    1
    32     8     7    2
    33     8    16    1
    34    16    19    2
    35    16    17   am
    36    18    17    1
    37    17    20    1
    38    20    21    1
    39    20    22    1
