@<TRIPOS>MOLECULE
82749_out_ligand_01.pdbqt
 30 34 0 0 0
SMALL
GASTEIGER

@<TRIPOS>ATOM
      1  C         21.5000  -22.2680  -11.6990 C.3     1  UNL1        0.0510
      2  C         20.6050  -21.0320  -11.5740 C.3     1  UNL1        0.0410
      3  C         19.4330  -21.5210  -10.7400 C.3     1  UNL1        0.2730
      4  N         20.0930  -22.3960   -9.7710 N.3     1  UNL1        0.0930
      5  C         21.0400  -23.2020  -10.5630 C.3     1  UNL1        0.2820
      6  C         22.9840  -21.9380  -11.7250 C.ar    1  UNL1       -0.0170
      7  C         23.7180  -21.5300  -12.9160 C.ar    1  UNL1        0.0080
      8  C         23.3390  -21.3580  -14.2690 C.2     1  UNL1        0.0160
      9  C         25.0500  -21.2600  -12.6260 C.ar    1  UNL1        0.1080
     10  C         24.2890  -20.9360  -15.1950 C.2     1  UNL1        0.0200
     11  C         25.5770  -20.6980  -14.7550 C.2     1  UNL1        0.1180
     12  N         26.0040  -20.8470  -13.4870 N.2     1  UNL1       -0.2530
     13  S         25.4290  -21.5100  -10.9980 S.2     1  UNL1       -0.0640
     14  C         23.8310  -22.0110  -10.6130 C.ar    1  UNL1        0.0820
     15  C         23.5270  -22.4560   -9.2540 C.2     1  UNL1        0.2570
     16  N         23.8790  -23.7370   -8.9280 N.am    1  UNL1       -0.3650
     17  H         23.6280  -24.0770   -8.0110 H       1  UNL1        0.1590
     18  H         24.2660  -24.3740   -9.6110 H       1  UNL1        0.1590
     19  O         22.9810  -21.7710   -8.3930 O.2     1  UNL1       -0.2670
     20  C         19.1320  -23.2270   -9.0310 C.3     1  UNL1        0.3130
     21  C         18.8190  -22.6660   -7.6570 C.2     1  UNL1       -0.0010
     22  C         19.7480  -21.7920   -7.0570 C.2     1  UNL1        0.0110
     23  C         19.5090  -21.2560   -5.7980 C.2     1  UNL1        0.0020
     24  C         18.3380  -21.5890   -5.1270 C.2     1  UNL1        0.0140
     25  C         17.4030  -22.4580   -5.7130 C.2     1  UNL1       -0.0070
     26  C         16.2230  -22.7970   -5.0390 C.2     1  UNL1        0.0150
     27  C         17.6310  -23.0110   -6.9950 C.2     1  UNL1        0.0740
     28  C         15.3090  -23.6590   -5.6300 C.2     1  UNL1        0.0200
     29  C         15.6080  -24.1540   -6.8820 C.2     1  UNL1        0.1170
     30  N         16.7350  -23.8480   -7.5620 N.2     1  UNL1       -0.2600
@<TRIPOS>BOND
     1    10    11    2
     2    10     8    1
     3    11    12    1
     4     8     7    2
     5    12     9    2
     6     7     9   ar
     7     7     6   ar
     8     9    13   ar
     9     6     1    1
    10     6    14   ar
    11     1     2    1
    12     1     5    1
    13     2     3    1
    14    13    14   ar
    15     3     4    1
    16    14    15    1
    17     5     4    1
    18     4    20    1
    19    18    16    1
    20    15    16   am
    21    15    19    2
    22    20    21    1
    23    16    17    1
    24    21    22    2
    25    21    27    1
    26    30    27    1
    27    30    29    2
    28    22    23    1
    29    27    25    2
    30    29    28    1
    31    23    24    2
    32    25    24    1
    33    25    26    1
    34    28    26    2
