@<TRIPOS>MOLECULE
82758_out_ligand_01.pdbqt
 31 34 0 0 0
SMALL
GASTEIGER

@<TRIPOS>ATOM
      1  C         16.6470  -23.4800   -9.5730 C.3     1  UNL1        0.0570
      2  C         15.6070  -22.5240  -10.1650 C.3     1  UNL1        0.0320
      3  C         16.4390  -21.3750  -10.7140 C.3     1  UNL1        0.1260
      4  N         17.6930  -21.9860  -11.1140 N.am    1  UNL1       -0.3510
      5  C         18.6490  -21.2460  -11.7740 C.2     1  UNL1        0.2200
      6  O         18.4190  -20.0970  -12.1590 O.2     1  UNL1       -0.2730
      7  C         17.8360  -23.3190  -10.5350 C.3     1  UNL1        0.1360
      8  C         16.9820  -23.1260   -8.1360 C.2     1  UNL1        0.0420
      9  C         18.1610  -22.4690   -7.8340 C.2     1  UNL1        0.0450
     10  C         18.4260  -22.1590   -6.4970 C.2     1  UNL1        0.0460
     11  C         17.5150  -22.5050   -5.4730 C.2     1  UNL1        0.0080
     12  C         17.6860  -22.2340   -4.0910 C.2     1  UNL1        0.0150
     13  C         16.3580  -23.1900   -5.8870 C.2     1  UNL1        0.0680
     14  C         16.7340  -22.6300   -3.1530 C.2     1  UNL1        0.0010
     15  C         15.5990  -23.3060   -3.5770 C.2     1  UNL1        0.0020
     16  C         15.4250  -23.5770   -4.9350 C.2     1  UNL1        0.0320
     17  N         16.1100  -23.4920   -7.1720 N.2     1  UNL1       -0.2520
     18  C         19.6840  -21.4350   -6.2010 C.2     1  UNL1        0.2500
     19  N         19.5920  -20.4340   -5.2730 N.am    1  UNL1       -0.3660
     20  H         18.7030  -20.0470   -4.9870 H       1  UNL1        0.1590
     21  H         20.4180  -19.8610   -5.1480 H       1  UNL1        0.1590
     22  O         20.7420  -21.7040   -6.7490 O.2     1  UNL1       -0.2680
     23  C         19.9680  -21.9370  -12.0840 C.3     1  UNL1        0.1070
     24  C         21.1760  -21.1650  -11.5490 C.3     1  UNL1        0.0470
     25  C         22.0760  -22.0270  -10.6930 C.2     1  UNL1       -0.0580
     26  C         21.5360  -23.0580   -9.9100 C.2     1  UNL1        0.0100
     27  C         22.3680  -23.8750   -9.1440 C.2     1  UNL1        0.0430
     28  C         23.7410  -23.6660   -9.1650 C.2     1  UNL1        0.1160
     29  F         24.5420  -24.4600   -8.4420 F       1  UNL1       -0.2060
     30  C         24.2970  -22.6520   -9.9360 C.2     1  UNL1        0.0430
     31  C         23.4660  -21.8330  -10.7000 C.2     1  UNL1        0.0100
@<TRIPOS>BOND
     1     6     5    2
     2    23     5    1
     3    23    24    1
     4     5     4   am
     5    24    25    1
     6     4     3    1
     7     4     7    1
     8     3     2    1
     9    31    25    2
    10    31    30    1
    11    25    26    1
    12     7     1    1
    13     2     1    1
    14    30    28    2
    15    26    27    2
    16     1     8    1
    17    28    27    1
    18    28    29    1
    19     8     9    2
    20     8    17    1
    21     9    10    1
    22    17    13    2
    23    22    18    2
    24    10    18    1
    25    10    11    2
    26    18    19   am
    27    13    11    1
    28    13    16    1
    29    11    12    1
    30    19    21    1
    31    19    20    1
    32    16    15    2
    33    12    14    2
    34    15    14    1
