@<TRIPOS>MOLECULE
82778_out_ligand_01.pdbqt
 33 36 0 0 0
SMALL
GASTEIGER

@<TRIPOS>ATOM
      1  C         19.1760  -22.2090   -9.5930 C.2     1  UNL1        0.0280
      2  C         20.5650  -22.3530   -9.8060 C.2     1  UNL1        0.0540
      3  C         21.1760  -22.0900  -11.0430 C.2     1  UNL1        0.0360
      4  C         20.3830  -21.6600  -12.1030 C.2     1  UNL1        0.0300
      5  C         19.0060  -21.5060  -11.9270 C.2     1  UNL1        0.0210
      6  C         18.4010  -21.7810  -10.6860 C.2     1  UNL1        0.0530
      7  N         22.5680  -22.2960  -11.1280 N.am    1  UNL1       -0.3270
      8  C         23.5500  -21.7800  -10.2960 C.2     1  UNL1        0.2260
      9  O         23.3670  -21.0810   -9.3010 O.2     1  UNL1       -0.2730
     10  H         22.8760  -22.8720  -11.9000 H       1  UNL1        0.1690
     11  C         24.9580  -22.1560  -10.7360 C.3     1  UNL1        0.1410
     12  C         25.6010  -21.0730  -11.5700 C.2     1  UNL1       -0.0470
     13  C         26.4940  -20.1660  -10.9720 C.2     1  UNL1        0.0100
     14  C         27.0910  -19.1270  -11.6980 C.2     1  UNL1        0.0320
     15  C         26.7450  -19.0280  -13.0470 C.2     1  UNL1        0.0620
     16  N         27.1180  -18.1530  -14.0350 N.pl3   1  UNL1       -0.3490
     17  C         25.8610  -19.8980  -13.6760 C.2     1  UNL1        0.0850
     18  C         26.4680  -18.5110  -15.1830 C.2     1  UNL1        0.2080
     19  H         27.7620  -17.3810  -13.9300 H       1  UNL1        0.1670
     20  N         25.7010  -19.5630  -15.0000 N.2     1  UNL1       -0.2420
     21  C         25.2760  -20.9380  -12.9340 C.2     1  UNL1        0.0410
     22  N         18.7320  -22.5200   -8.2930 N.pl3   1  UNL1       -0.2820
     23  C         19.5090  -21.9760   -7.1720 C.3     1  UNL1        0.0960
     24  C         18.6720  -22.0960   -5.8950 C.3     1  UNL1        0.0190
     25  C         18.2550  -23.5550   -5.6410 C.3     1  UNL1       -0.0160
     26  C         17.3500  -23.6550   -4.4150 C.3     1  UNL1        0.0100
     27  C         17.5600  -24.1370   -6.8830 C.3     1  UNL1        0.0190
     28  C         18.4110  -23.9520   -8.1430 C.3     1  UNL1        0.0960
     29  C         16.9410  -21.5510  -10.6120 C.2     1  UNL1        0.2510
     30  N         16.5200  -20.3270  -11.0540 N.am    1  UNL1       -0.3660
     31  H         15.5270  -20.1400  -11.0500 H       1  UNL1        0.1590
     32  H         17.1460  -19.6520  -11.4710 H       1  UNL1        0.1590
     33  O         16.1580  -22.3830  -10.1760 O.2     1  UNL1       -0.2680
@<TRIPOS>BOND
     1    18    20    2
     2    18    16    1
     3    20    17    1
     4    16    19    1
     5    16    15    1
     6    17    15    2
     7    17    21    1
     8    15    14    1
     9    21    12    2
    10     4     5    2
    11     4     3    1
    12     5     6    1
    13    10     7    1
    14    14    13    2
    15    12    13    1
    16    12    11    1
    17    32    30    1
    18     7     3    1
    19     7     8   am
    20    30    31    1
    21    30    29   am
    22     3     2    2
    23    11     8    1
    24     6    29    1
    25     6     1    2
    26    29    33    2
    27     8     9    2
    28     2     1    1
    29     1    22    1
    30    22    28    1
    31    22    23    1
    32    28    27    1
    33    23    24    1
    34    27    25    1
    35    24    25    1
    36    25    26    1
