@<TRIPOS>MOLECULE
82800_out_ligand_01.pdbqt
 37 41 0 0 0
SMALL
GASTEIGER

@<TRIPOS>ATOM
      1  N         18.3490  -23.3990   -8.7790 N.3     1  UNL1        0.0970
      2  C         19.0460  -24.2010   -7.7450 C.3     1  UNL1        0.2790
      3  C         20.1640  -25.1100   -8.2710 C.3     1  UNL1        0.0900
      4  C         21.1380  -24.2470   -9.0270 C.2     1  UNL1        0.0460
      5  N         22.4670  -24.4280   -8.8390 N.2     1  UNL1       -0.2400
      6  C         23.3110  -23.6090   -9.5020 C.2     1  UNL1        0.1170
      7  C         22.8580  -22.6140  -10.3780 C.2     1  UNL1        0.0720
      8  C         21.4790  -22.4480  -10.5620 C.2     1  UNL1        0.0310
      9  C         20.6000  -23.2780   -9.8710 C.2     1  UNL1       -0.0040
     10  C         19.1060  -23.2290  -10.0300 C.3     1  UNL1        0.3130
     11  C         17.8890  -22.1040   -8.2500 C.3     1  UNL1        0.3140
     12  C         17.8210  -22.1340   -6.7480 C.ar    1  UNL1        0.0050
     13  C         16.7670  -22.7050   -5.9580 C.ar    1  UNL1        0.0030
     14  C         15.5540  -23.3570   -6.2620 C.2     1  UNL1        0.0560
     15  C         17.1030  -22.5240   -4.6150 C.ar    1  UNL1        0.0430
     16  C         14.7400  -23.7910   -5.2160 C.2     1  UNL1        0.1170
     17  C         15.0950  -23.6000   -3.8870 C.2     1  UNL1        0.0440
     18  F         13.5850  -24.4080   -5.5030 F       1  UNL1       -0.2060
     19  C         16.2910  -22.9590   -3.5590 C.2     1  UNL1        0.0330
     20  N         18.3120  -21.8710   -4.5870 N.ar    1  UNL1       -0.3590
     21  C         18.7650  -21.6350   -5.8600 C.ar    1  UNL1        0.0140
     22  H         18.7970  -21.6060   -3.7420 H       1  UNL1        0.1660
     23  C         20.0500  -20.9320   -6.1030 C.3     1  UNL1        0.0680
     24  C         23.8170  -21.7030  -11.0430 C.2     1  UNL1        0.2550
     25  O         24.5250  -20.9510  -10.3800 O.2     1  UNL1       -0.2680
     26  N         23.8410  -21.7550  -12.4210 N.am    1  UNL1       -0.3510
     27  H         23.4490  -22.5640  -12.8850 H       1  UNL1        0.1630
     28  C         24.8360  -21.0220  -13.1790 C.3     1  UNL1        0.1820
     29  C         24.9490  -21.5420  -14.5930 C.2     1  UNL1        0.0510
     30  C         25.0040  -22.9140  -14.8350 C.2     1  UNL1        0.0290
     31  C         25.0780  -23.3630  -16.1500 C.2     1  UNL1        0.0030
     32  C         25.0860  -22.4360  -17.1860 C.2     1  UNL1        0.0190
     33  C         25.0160  -21.0910  -16.8620 C.2     1  UNL1        0.1170
     34  N         24.9410  -20.6230  -15.5960 N.2     1  UNL1       -0.2640
     35  N         24.6630  -23.8950   -9.3220 N.pl3   1  UNL1       -0.2860
     36  H         24.8340  -24.8450   -9.6300 H       1  UNL1        0.1250
     37  H         24.9500  -23.7120   -8.3600 H       1  UNL1        0.1250
@<TRIPOS>BOND
     1    32    33    2
     2    32    31    1
     3    33    34    1
     4    31    30    2
     5    34    29    2
     6    30    29    1
     7    29    28    1
     8    28    26    1
     9    27    26    1
    10    26    24   am
    11    24    25    2
    12    24     7    1
    13     8     7    2
    14     8     9    1
    15     7     6    1
    16    10     9    1
    17    10     1    1
    18     9     4    2
    19    36    35    1
    20     6    35    1
    21     6     5    2
    22    35    37    1
    23     4     5    1
    24     4     3    1
    25     1    11    1
    26     1     2    1
    27     3     2    1
    28    11    12    1
    29    12    13   ar
    30    12    21   ar
    31    14    13    2
    32    14    16    1
    33    23    21    1
    34    13    15   ar
    35    21    20   ar
    36    18    16    1
    37    16    17    2
    38    15    20   ar
    39    15    19    2
    40    20    22    1
    41    17    19    1
