@<TRIPOS>MOLECULE
82816_out_ligand_01.pdbqt
 31 33 0 0 0
SMALL
GASTEIGER

@<TRIPOS>ATOM
      1  C         21.1460  -21.7080  -11.2830 C.2     1  UNL1        0.2590
      2  O         20.8000  -20.5570  -11.5240 O.2     1  UNL1       -0.2670
      3  N         20.3840  -22.6730  -10.6510 N.am    1  UNL1       -0.3220
      4  H         20.8200  -23.5800  -10.5330 H       1  UNL1        0.1690
      5  C         19.0540  -22.5680  -10.1700 C.2     1  UNL1        0.0420
      6  C         18.0530  -21.8940  -10.8850 C.2     1  UNL1        0.0300
      7  C         16.7390  -21.8320  -10.4180 C.2     1  UNL1        0.0030
      8  C         16.4010  -22.4450   -9.2210 C.2     1  UNL1        0.0180
      9  C         17.3890  -23.1070   -8.4820 C.2     1  UNL1        0.0400
     10  C         18.7250  -23.1790   -8.9330 C.2     1  UNL1       -0.0190
     11  C         19.7660  -23.9070   -8.1180 C.3     1  UNL1        0.0520
     12  C         16.9620  -23.7600   -7.2250 C.2     1  UNL1        0.2540
     13  O         16.4500  -24.8720   -7.2850 O.2     1  UNL1       -0.2670
     14  N         17.1740  -23.0730   -6.0470 N.am    1  UNL1       -0.3480
     15  C         17.8850  -21.8140   -5.8760 C.3     1  UNL1        0.1260
     16  C         16.7870  -23.6420   -4.7710 C.3     1  UNL1        0.1260
     17  C         18.1690  -21.7440   -4.3810 C.3     1  UNL1        0.0210
     18  C         17.0010  -22.5110   -3.7740 C.3     1  UNL1        0.0210
     19  C         22.5220  -22.1150  -11.7090 C.2     1  UNL1        0.0720
     20  C         23.3830  -22.8660  -10.9030 C.2     1  UNL1        0.1320
     21  C         24.6530  -23.2390  -11.3460 C.2     1  UNL1        0.0450
     22  F         23.0150  -23.2480   -9.6690 F       1  UNL1       -0.2050
     23  C         25.0820  -22.8680  -12.6180 C.2     1  UNL1        0.0280
     24  C         24.2310  -22.1230  -13.4390 C.2     1  UNL1        0.0800
     25  C         22.9630  -21.7340  -12.9880 C.2     1  UNL1        0.0450
     26  S         24.7880  -21.6140  -15.0480 S.O2    1  UNL1        0.2580
     27  O         23.7740  -22.0050  -16.0030 O.2     1  UNL1       -0.2010
     28  O         26.1690  -22.0120  -15.1960 O.2     1  UNL1       -0.2010
     29  N         24.7150  -19.9540  -14.9390 N.3     1  UNL1       -0.3200
     30  C         25.8930  -19.1470  -14.6800 C.3     1  UNL1        0.1590
     31  H         23.7940  -19.5280  -15.0090 H       1  UNL1        0.1710
@<TRIPOS>BOND
     1    27    26    2
     2    28    26    2
     3    26    29    1
     4    26    24    1
     5    31    29    1
     6    29    30    1
     7    24    25    1
     8    24    23    2
     9    25    19    2
    10    23    21    1
    11    19     1    1
    12    19    20    1
    13     2     1    2
    14    21    20    2
    15     1     3   am
    16    20    22    1
    17     6     7    1
    18     6     5    2
    19     3     4    1
    20     3     5    1
    21     7     8    2
    22     5    10    1
    23     8     9    1
    24    10     9    2
    25    10    11    1
    26     9    12    1
    27    13    12    2
    28    12    14   am
    29    14    15    1
    30    14    16    1
    31    15    17    1
    32    16    18    1
    33    17    18    1
