@<TRIPOS>MOLECULE
82847_out_ligand_01.pdbqt
 30 34 0 0 0
SMALL
GASTEIGER

@<TRIPOS>ATOM
      1  N         21.3710  -23.3250   -9.7950 N.3     1  UNL1        0.0930
      2  C         21.9050  -22.5990   -8.6390 C.3     1  UNL1        0.2730
      3  C         22.9370  -21.5260   -9.0040 C.3     1  UNL1        0.0310
      4  C         23.8520  -21.9380  -10.1600 C.3     1  UNL1        0.0160
      5  C         23.0670  -22.5310  -11.3480 C.3     1  UNL1        0.0860
      6  C         21.5570  -22.6370  -11.0730 C.3     1  UNL1        0.2850
      7  C         20.0200  -23.8520   -9.5930 C.3     1  UNL1        0.3110
      8  C         18.9540  -22.8890  -10.0940 C.2     1  UNL1       -0.0190
      9  C         19.0800  -22.3470  -11.3890 C.2     1  UNL1        0.0100
     10  C         18.1400  -21.4460  -11.8790 C.2     1  UNL1        0.0010
     11  C         17.0570  -21.0740  -11.0880 C.2     1  UNL1        0.0010
     12  C         16.9190  -21.5910   -9.8060 C.2     1  UNL1        0.0130
     13  C         17.8560  -22.5030   -9.2870 C.2     1  UNL1       -0.0150
     14  C         17.6740  -23.0050   -7.9150 C.2     1  UNL1        0.0130
     15  C         16.7370  -24.0180   -7.6470 C.2     1  UNL1        0.0150
     16  C         16.5060  -24.4490   -6.3370 C.2     1  UNL1        0.0010
     17  C         17.2210  -23.9000   -5.2790 C.2     1  UNL1        0.0030
     18  C         18.1760  -22.9180   -5.5330 C.2     1  UNL1        0.0430
     19  C         18.3920  -22.4800   -6.8410 C.2     1  UNL1        0.1270
     20  F         19.3020  -21.5100   -7.0470 F       1  UNL1       -0.2050
     21  C         23.3650  -21.8910  -12.6680 C.ar    1  UNL1        0.1360
     22  N         22.4780  -21.2380  -13.4010 N.ar    1  UNL1       -0.1340
     23  N         23.1040  -20.7430  -14.5150 N.ar    1  UNL1       -0.1330
     24  C         24.3680  -21.0920  -14.4470 C.ar    1  UNL1        0.1580
     25  N         24.5680  -21.8400  -13.3190 N.ar    1  UNL1       -0.3170
     26  C         25.4310  -20.8430  -15.4530 C.3     1  UNL1        0.3490
     27  C         25.8460  -22.4490  -13.0330 C.3     1  UNL1        0.1620
     28  C         26.6280  -22.6640  -14.3390 C.3     1  UNL1        0.2900
     29  N         26.7580  -21.4070  -15.0970 N.3     1  UNL1        0.0920
     30  H         27.2440  -21.5920  -15.9850 H       1  UNL1        0.3160
@<TRIPOS>BOND
     1    30    29    1
     2    26    29    1
     3    26    24    1
     4    29    28    1
     5    23    24   ar
     6    23    22   ar
     7    24    25   ar
     8    28    27    1
     9    22    21   ar
    10    25    27    1
    11    25    21   ar
    12    21     5    1
    13    10     9    1
    14    10    11    2
    15     9     8    2
    16     5     6    1
    17     5     4    1
    18    11    12    1
    19     6     1    1
    20     4     3    1
    21     8     7    1
    22     8    13    1
    23    12    13    2
    24     1     7    1
    25     1     2    1
    26    13    14    1
    27     3     2    1
    28    14    15    2
    29    14    19    1
    30    15    16    1
    31    20    19    1
    32    19    18    2
    33    16    17    2
    34    18    17    1
