@<TRIPOS>MOLECULE
82879_out_ligand_01.pdbqt
 29 33 0 0 0
SMALL
GASTEIGER

@<TRIPOS>ATOM
      1  N         21.4850  -23.8690   -8.4050 N.3     1  UNL1        0.0930
      2  C         21.1520  -22.5190   -7.9310 C.3     1  UNL1        0.2730
      3  C         22.3790  -21.6140   -7.8710 C.3     1  UNL1        0.0310
      4  C         22.9950  -21.4090   -9.2570 C.3     1  UNL1        0.0160
      5  C         22.7070  -22.5850  -10.2070 C.3     1  UNL1        0.0860
      6  C         22.5670  -23.8970   -9.4120 C.3     1  UNL1        0.2850
      7  C         20.2760  -24.5910   -8.8250 C.3     1  UNL1        0.3110
      8  C         19.0620  -23.6990   -8.9740 C.2     1  UNL1       -0.0280
      9  C         18.7020  -23.1780  -10.2220 C.2     1  UNL1        0.0090
     10  C         17.5910  -22.3430  -10.3420 C.2     1  UNL1        0.0030
     11  C         16.8280  -22.0170   -9.2170 C.2     1  UNL1        0.0370
     12  C         17.1710  -22.5260   -7.9660 C.2     1  UNL1        0.0690
     13  C         18.2900  -23.3570   -7.8520 C.2     1  UNL1        0.0450
     14  O         16.5230  -22.2780   -6.7890 O.2     1  UNL1       -0.3460
     15  C         15.2050  -22.8040   -6.6170 C.3     1  UNL1        0.1290
     16  C         14.3770  -21.9210   -5.6860 C.3     1  UNL1        0.0320
     17  C         14.9120  -22.2300   -4.2900 C.3     1  UNL1        0.0020
     18  C         15.4910  -23.6410   -4.3630 C.3     1  UNL1        0.0020
     19  C         15.3170  -24.0970   -5.8100 C.3     1  UNL1        0.0320
     20  C         23.7660  -22.6840  -11.2590 C.ar    1  UNL1        0.1360
     21  N         24.9300  -23.2950  -11.1560 N.ar    1  UNL1       -0.1340
     22  N         25.6040  -23.1570  -12.3490 N.ar    1  UNL1       -0.1330
     23  C         24.8430  -22.4580  -13.1590 C.ar    1  UNL1        0.1580
     24  N         23.6840  -22.1360  -12.5080 N.ar    1  UNL1       -0.3170
     25  C         25.1140  -22.0070  -14.5500 C.3     1  UNL1        0.3490
     26  C         22.6010  -21.4060  -13.1260 C.3     1  UNL1        0.1620
     27  C         23.0470  -20.7540  -14.4430 C.3     1  UNL1        0.2900
     28  N         23.8750  -21.6440  -15.2720 N.3     1  UNL1        0.0920
     29  H         23.3670  -22.5060  -15.4700 H       1  UNL1        0.3160
@<TRIPOS>BOND
     1    29    28    1
     2    28    25    1
     3    28    27    1
     4    25    23    1
     5    27    26    1
     6    23    24   ar
     7    23    22   ar
     8    26    24    1
     9    24    20   ar
    10    22    21   ar
    11    20    21   ar
    12    20     5    1
    13    10     9    1
    14    10    11    2
    15     9     8    2
    16     5     6    1
    17     5     4    1
    18     6     1    1
    19     4     3    1
    20    11    12    1
    21     8     7    1
    22     8    13    1
    23     7     1    1
    24     1     2    1
    25    12    13    2
    26    12    14    1
    27     2     3    1
    28    14    15    1
    29    15    19    1
    30    15    16    1
    31    19    18    1
    32    16    17    1
    33    18    17    1
