@<TRIPOS>MOLECULE
828_out_ligand_01.pdbqt
 34 36 0 0 0
SMALL
GASTEIGER

@<TRIPOS>ATOM
      1  C         22.3690  -23.3050   -8.7170 C.2     1  UNL1        0.0320
      2  C         21.8080  -22.2080   -8.0480 C.2     1  UNL1        0.0180
      3  C         20.4790  -22.2530   -7.6200 C.2     1  UNL1        0.0260
      4  C         19.7100  -23.3940   -7.8770 C.2     1  UNL1        0.0740
      5  C         20.2570  -24.4920   -8.5460 C.2     1  UNL1        0.0260
      6  C         21.5860  -24.4410   -8.9730 C.2     1  UNL1        0.0180
      7  S         18.0210  -23.4330   -7.3240 S.O2    1  UNL1        0.2450
      8  O         17.7160  -22.1240   -6.7940 O.2     1  UNL1       -0.2060
      9  O         17.8240  -24.6450   -6.5580 O.2     1  UNL1       -0.2060
     10  N         17.2190  -23.6670   -8.8140 N.pl3   1  UNL1       -0.1810
     11  H         16.2170  -23.6640   -8.6110 H       1  UNL1        0.1460
     12  C         17.5340  -22.6750   -9.7990 C.2     1  UNL1        0.0230
     13  C         16.5710  -21.7530  -10.2040 C.2     1  UNL1        0.0240
     14  C         16.9050  -20.7640  -11.1310 C.2     1  UNL1        0.0030
     15  C         18.2030  -20.6930  -11.6400 C.2     1  UNL1        0.0160
     16  C         19.1830  -21.6070  -11.2250 C.2     1  UNL1        0.0490
     17  C         18.8370  -22.5940  -10.2900 C.2     1  UNL1        0.0400
     18  C         20.5950  -21.5330  -11.7510 C.3     1  UNL1        0.4170
     19  F         21.2050  -22.7520  -11.7770 F       1  UNL1       -0.1660
     20  F         21.3950  -20.7310  -10.9950 F       1  UNL1       -0.1660
     21  F         20.6760  -21.0500  -13.0230 F       1  UNL1       -0.1660
     22  C         23.7780  -23.2920   -9.1980 C.2     1  UNL1        0.2510
     23  O         24.5690  -24.1420   -8.8070 O.2     1  UNL1       -0.2680
     24  N         24.1160  -22.2690  -10.0620 N.am    1  UNL1       -0.3570
     25  H         23.5150  -21.4550  -10.0740 H       1  UNL1        0.1620
     26  C         25.4890  -22.0870  -10.4900 C.3     1  UNL1        0.1240
     27  C         25.5780  -21.6030  -11.9360 C.3     1  UNL1        0.0500
     28  C         24.2910  -21.9110  -12.7170 C.3     1  UNL1        0.2740
     29  N         24.4120  -22.8020  -13.8770 N.3     1  UNL1        0.0920
     30  C         25.4080  -23.8750  -13.7000 C.3     1  UNL1        0.2980
     31  C         25.4170  -24.8190  -14.9140 C.3     1  UNL1        0.1980
     32  O         25.6870  -24.1000  -16.1270 O.3     1  UNL1       -0.3880
     33  C         24.6950  -23.0830  -16.3250 C.3     1  UNL1        0.1980
     34  C         24.6690  -22.0960  -15.1450 C.3     1  UNL1        0.2980
@<TRIPOS>BOND
     1    33    32    1
     2    33    34    1
     3    32    31    1
     4    34    29    1
     5    31    30    1
     6    29    30    1
     7    29    28    1
     8    21    18    1
     9    28    27    1
    10    27    26    1
    11    19    18    1
    12    18    16    1
    13    18    20    1
    14    15    16    2
    15    15    14    1
    16    16    17    1
    17    14    13    2
    18    26    24    1
    19    17    12    2
    20    13    12    1
    21    25    24    1
    22    24    22   am
    23    12    10    1
    24    22    23    2
    25    22     1    1
    26     6     1    2
    27     6     5    1
    28    10    11    1
    29    10     7    1
    30     1     2    1
    31     5     4    2
    32     2     3    2
    33     4     3    1
    34     4     7    1
    35     7     8    2
    36     7     9    2
