@<TRIPOS>MOLECULE
82925_out_ligand_01.pdbqt
 30 34 0 0 0
SMALL
GASTEIGER

@<TRIPOS>ATOM
      1  N         22.4580  -22.3950  -11.5250 N.3     1  UNL1        0.0930
      2  C         23.5150  -23.1040  -10.7870 C.3     1  UNL1        0.2730
      3  C         24.9300  -22.6290  -11.1090 C.3     1  UNL1        0.0310
      4  C         25.2470  -22.7870  -12.5960 C.3     1  UNL1        0.0160
      5  C         24.0120  -22.5660  -13.4860 C.3     1  UNL1        0.0860
      6  C         22.9500  -21.7280  -12.7510 C.3     1  UNL1        0.2850
      7  C         21.7380  -21.4460  -10.6570 C.3     1  UNL1        0.3110
      8  C         20.2380  -21.6480  -10.6710 C.2     1  UNL1       -0.0290
      9  C         19.4810  -21.3310  -11.8050 C.2     1  UNL1        0.0090
     10  C         18.1010  -21.5250  -11.8060 C.2     1  UNL1        0.0010
     11  C         17.4650  -22.0360  -10.6730 C.2     1  UNL1        0.0120
     12  C         18.1930  -22.3660   -9.5190 C.2     1  UNL1       -0.0250
     13  C         19.5840  -22.1660   -9.5400 C.2     1  UNL1        0.0210
     14  C         17.5240  -22.9090   -8.3240 C.2     1  UNL1       -0.0260
     15  C         18.1180  -23.9320   -7.5630 C.2     1  UNL1        0.0150
     16  C         17.4840  -24.4470   -6.4280 C.2     1  UNL1        0.0430
     17  C         16.2500  -23.9380   -6.0450 C.2     1  UNL1        0.1160
     18  F         15.6440  -24.4280   -4.9570 F       1  UNL1       -0.2060
     19  C         15.6380  -22.9270   -6.7740 C.2     1  UNL1        0.0430
     20  C         16.2720  -22.4150   -7.9090 C.2     1  UNL1        0.0150
     21  C         24.3960  -21.9150  -14.7780 C.ar    1  UNL1        0.1360
     22  N         24.1300  -22.3640  -15.9910 N.ar    1  UNL1       -0.1340
     23  N         24.6270  -21.4650  -16.9080 N.ar    1  UNL1       -0.1330
     24  C         25.1840  -20.4790  -16.2380 C.ar    1  UNL1        0.1580
     25  N         25.0840  -20.7430  -14.8990 N.ar    1  UNL1       -0.3170
     26  C         25.8820  -19.2710  -16.7510 C.3     1  UNL1        0.3490
     27  C         25.6040  -19.8620  -13.8780 C.3     1  UNL1        0.1620
     28  C         26.5860  -18.8380  -14.4720 C.3     1  UNL1        0.2900
     29  N         26.0640  -18.2400  -15.7080 N.3     1  UNL1        0.0920
     30  H         26.7140  -17.5390  -16.0610 H       1  UNL1        0.3160
@<TRIPOS>BOND
     1    23    24   ar
     2    23    22   ar
     3    26    24    1
     4    26    29    1
     5    24    25   ar
     6    30    29    1
     7    22    21   ar
     8    29    28    1
     9    25    21   ar
    10    25    27    1
    11    21     5    1
    12    28    27    1
    13     5     6    1
    14     5     4    1
    15     6     1    1
    16     4     3    1
    17    10     9    1
    18    10    11    2
    19     9     8    2
    20     1     2    1
    21     1     7    1
    22     3     2    1
    23    11    12    1
    24     8     7    1
    25     8    13    1
    26    13    12    2
    27    12    14    1
    28    14    20    2
    29    14    15    1
    30    20    19    1
    31    15    16    2
    32    19    17    2
    33    16    17    1
    34    17    18    1
