@<TRIPOS>MOLECULE
83001_out_ligand_01.pdbqt
 35 38 0 0 0
SMALL
GASTEIGER

@<TRIPOS>ATOM
      1  N         21.0460  -22.5740  -10.6570 N.am    1  UNL1       -0.3150
      2  C         19.9420  -22.8570   -9.8610 C.2     1  UNL1        0.1110
      3  C         18.7210  -22.3920  -10.1710 C.2     1  UNL1        0.0470
      4  C         18.5540  -21.5440  -11.3320 C.2     1  UNL1        0.0240
      5  C         19.6020  -21.2380  -12.1080 C.2     1  UNL1        0.0750
      6  C         20.9580  -21.7570  -11.7800 C.2     1  UNL1        0.2470
      7  O         21.9200  -21.4240  -12.4670 O.2     1  UNL1       -0.2680
      8  C         17.5940  -22.7550   -9.2600 C.2     1  UNL1        0.2530
      9  O         16.4610  -22.9340   -9.6890 O.2     1  UNL1       -0.2680
     10  N         17.9550  -22.8160   -7.9310 N.am    1  UNL1       -0.3430
     11  H         18.8410  -22.3970   -7.6880 H       1  UNL1        0.1640
     12  C         16.9680  -22.8740   -6.8490 C.3     1  UNL1        0.0600
     13  C         15.6230  -22.2100   -7.2410 C.3     1  UNL1        0.0360
     14  C         14.5710  -22.8490   -6.3370 C.3     1  UNL1        0.0030
     15  C         15.1250  -24.2220   -5.9700 C.3     1  UNL1        0.0030
     16  C         16.4580  -24.3340   -6.7030 C.3     1  UNL1        0.0360
     17  C         17.6290  -22.3690   -5.5560 C.2     1  UNL1       -0.0300
     18  C         17.4590  -23.0230   -4.3240 C.2     1  UNL1        0.0100
     19  C         18.0480  -22.5350   -3.1530 C.2     1  UNL1        0.0010
     20  C         18.8090  -21.3720   -3.1840 C.2     1  UNL1        0.0000
     21  C         18.9700  -20.6880   -4.3830 C.2     1  UNL1        0.0010
     22  C         18.3800  -21.1760   -5.5530 C.2     1  UNL1        0.0100
     23  C         22.3490  -23.1370  -10.2950 C.3     1  UNL1        0.2340
     24  C         23.4360  -22.0680  -10.1500 C.2     1  UNL1        0.2360
     25  O         23.3320  -21.1410   -9.3490 O.2     1  UNL1       -0.2720
     26  N         24.5630  -22.2860  -10.9120 N.am    1  UNL1       -0.3550
     27  H         24.6560  -23.1940  -11.3630 H       1  UNL1        0.1620
     28  C         25.7500  -21.4780  -10.7770 C.3     1  UNL1        0.1610
     29  C         25.9670  -20.6310  -12.0040 C.2     1  UNL1       -0.0400
     30  C         25.3060  -20.9410  -13.2040 C.2     1  UNL1        0.0120
     31  C         25.4860  -20.1460  -14.3370 C.2     1  UNL1        0.0430
     32  C         26.3200  -19.0370  -14.2680 C.2     1  UNL1        0.1160
     33  F         26.4920  -18.2720  -15.3550 F       1  UNL1       -0.2060
     34  C         26.9740  -18.7040  -13.0880 C.2     1  UNL1        0.0430
     35  C         26.7960  -19.4980  -11.9540 C.2     1  UNL1        0.0120
@<TRIPOS>BOND
     1    33    32    1
     2    31    32    2
     3    31    30    1
     4    32    34    1
     5    30    29    2
     6    34    35    2
     7     7     6    2
     8     5     6    1
     9     5     4    2
    10    29    35    1
    11    29    28    1
    12     6     1   am
    13    27    26    1
    14     4     3    1
    15    26    28    1
    16    26    24   am
    17     1    23    1
    18     1     2    1
    19    23    24    1
    20     3     2    2
    21     3     8    1
    22    24    25    2
    23     9     8    2
    24     8    10   am
    25    10    11    1
    26    10    12    1
    27    13    12    1
    28    13    14    1
    29    12    16    1
    30    12    17    1
    31    16    15    1
    32    14    15    1
    33    17    22    2
    34    17    18    1
    35    22    21    1
    36    21    20    2
    37    18    19    2
    38    20    19    1
