@<TRIPOS>MOLECULE
83024_out_ligand_01.pdbqt
 33 36 0 0 0
SMALL
GASTEIGER

@<TRIPOS>ATOM
      1  N         23.4070  -22.8550  -10.7200 N.am    1  UNL1       -0.3150
      2  C         22.3710  -23.6370  -10.2290 C.2     1  UNL1        0.1110
      3  C         21.7450  -23.3310   -9.0790 C.2     1  UNL1        0.0470
      4  C         22.1220  -22.1200   -8.3740 C.2     1  UNL1        0.0240
      5  C         23.1190  -21.3450   -8.8220 C.2     1  UNL1        0.0750
      6  C         23.8400  -21.7040  -10.0700 C.2     1  UNL1        0.2470
      7  O         24.7320  -20.9760  -10.4970 O.2     1  UNL1       -0.2680
      8  C         20.6500  -24.2480   -8.6300 C.2     1  UNL1        0.2530
      9  O         20.6620  -25.4480   -8.8850 O.2     1  UNL1       -0.2680
     10  N         19.6590  -23.6450   -7.8940 N.am    1  UNL1       -0.3560
     11  H         19.7100  -22.6620   -7.6760 H       1  UNL1        0.1620
     12  C         18.4830  -24.3830   -7.4650 C.3     1  UNL1        0.1370
     13  C         17.3310  -23.4720   -6.9460 C.3     1  UNL1        0.0030
     14  C         16.9440  -22.4390   -8.0310 C.3     1  UNL1        0.0160
     15  C         16.0670  -23.1920   -9.0310 C.3     1  UNL1        0.0010
     16  C         15.4870  -24.3830   -8.2740 C.3     1  UNL1        0.0010
     17  C         16.0020  -24.2560   -6.8430 C.3     1  UNL1        0.0160
     18  C         17.7730  -22.7830   -5.6480 C.2     1  UNL1       -0.0480
     19  C         17.4700  -23.3690   -4.4030 C.2     1  UNL1        0.0080
     20  C         17.8180  -22.7430   -3.2030 C.2     1  UNL1        0.0010
     21  C         18.4720  -21.5170   -3.2220 C.2     1  UNL1        0.0000
     22  C         18.7800  -20.9170   -4.4390 C.2     1  UNL1        0.0010
     23  C         18.4320  -21.5420   -5.6410 C.2     1  UNL1        0.0080
     24  C         24.0530  -23.2210  -11.9790 C.3     1  UNL1        0.2340
     25  C         24.0270  -22.0510  -12.9660 C.2     1  UNL1        0.2410
     26  O         22.9590  -21.5500  -13.3090 O.2     1  UNL1       -0.2710
     27  N         25.2900  -21.6780  -13.3750 N.am    1  UNL1       -0.3040
     28  H         26.0990  -22.1460  -12.9670 H       1  UNL1        0.1710
     29  C         25.6240  -20.6900  -14.2610 C.2     1  UNL1        0.1720
     30  N         25.9040  -19.4750  -13.8430 N.2     1  UNL1       -0.2360
     31  C         26.2280  -18.6760  -14.9210 C.2     1  UNL1        0.1260
     32  C         26.1790  -19.2960  -16.1510 C.2     1  UNL1        0.0720
     33  S         25.7160  -20.9330  -15.9440 S.3     1  UNL1       -0.0620
@<TRIPOS>BOND
     1    32    33    1
     2    32    31    2
     3    33    29    1
     4    31    30    1
     5    29    30    2
     6    29    27    1
     7    27    28    1
     8    27    25   am
     9    26    25    2
    10    25    24    1
    11    24     1    1
    12     1     2    1
    13     1     6   am
    14     7     6    2
    15     2     3    2
    16     6     5    1
    17     3     8    1
    18     3     4    1
    19    15    16    1
    20    15    14    1
    21     9     8    2
    22     5     4    2
    23     8    10   am
    24    16    17    1
    25    14    13    1
    26    10    11    1
    27    10    12    1
    28    12    13    1
    29    13    17    1
    30    13    18    1
    31    18    23    2
    32    18    19    1
    33    23    22    1
    34    22    21    2
    35    19    20    2
    36    21    20    1
