@<TRIPOS>MOLECULE
83036_out_ligand_01.pdbqt
 34 37 0 0 0
SMALL
GASTEIGER

@<TRIPOS>ATOM
      1  N         20.0850  -22.1580  -11.0500 N.am    1  UNL1       -0.3150
      2  C         19.6710  -21.0380  -11.7540 C.2     1  UNL1        0.0950
      3  C         18.3900  -20.6540  -11.7460 C.2     1  UNL1        0.0180
      4  C         17.4190  -21.3940  -10.9790 C.2     1  UNL1        0.0240
      5  C         17.7680  -22.4750  -10.2560 C.2     1  UNL1        0.1000
      6  C         19.2020  -22.9120  -10.2700 C.2     1  UNL1        0.2630
      7  O         19.5600  -23.8990   -9.6230 O.2     1  UNL1       -0.2670
      8  C         21.5070  -22.5200  -11.0510 C.3     1  UNL1        0.2340
      9  C         22.4130  -21.7770  -12.0440 C.2     1  UNL1        0.2380
     10  N         23.7770  -21.7650  -11.8200 N.am    1  UNL1       -0.3420
     11  C         24.4200  -22.0290  -10.5370 C.3     1  UNL1        0.1270
     12  C         24.6770  -21.0340  -12.7130 C.3     1  UNL1        0.1200
     13  C         25.6310  -21.1050  -10.5220 C.3     1  UNL1        0.0220
     14  C         26.0350  -21.0620  -11.9880 C.3     1  UNL1        0.0320
     15  O         21.9000  -21.1390  -12.9670 O.2     1  UNL1       -0.2720
     16  C         24.7480  -21.6070  -14.1150 C.2     1  UNL1       -0.0350
     17  C         24.8020  -22.9860  -14.3580 C.2     1  UNL1        0.0100
     18  C         24.9030  -23.4760  -15.6620 C.2     1  UNL1        0.0080
     19  C         24.9310  -22.6020  -16.7600 C.2     1  UNL1       -0.0560
     20  C         25.0620  -23.1650  -18.1520 C.3     1  UNL1        0.0490
     21  C         24.8370  -21.2160  -16.5380 C.2     1  UNL1       -0.0560
     22  C         24.7560  -20.7370  -15.2190 C.2     1  UNL1        0.0160
     23  C         24.8380  -20.2320  -17.6780 C.3     1  UNL1        0.0490
     24  C         16.6950  -23.1620   -9.4690 C.2     1  UNL1        0.2570
     25  O         15.5340  -23.2060   -9.8660 O.2     1  UNL1       -0.2670
     26  N         17.1040  -23.7270   -8.2880 N.am    1  UNL1       -0.3520
     27  H         18.0640  -23.5670   -7.9880 H       1  UNL1        0.1630
     28  C         16.1830  -24.2570   -7.3110 C.3     1  UNL1        0.1610
     29  C         16.3520  -23.5670   -5.9810 C.2     1  UNL1       -0.0410
     30  C         17.6260  -23.1720   -5.5360 C.2     1  UNL1        0.0090
     31  C         17.7800  -22.5270   -4.3080 C.2     1  UNL1        0.0010
     32  C         16.6640  -22.2750   -3.5100 C.2     1  UNL1        0.0000
     33  C         15.3920  -22.6610   -3.9430 C.2     1  UNL1        0.0010
     34  C         15.2360  -23.2960   -5.1760 C.2     1  UNL1        0.0090
@<TRIPOS>BOND
     1    20    19    1
     2    23    21    1
     3    19    21    2
     4    19    18    1
     5    21    22    1
     6    18    17    2
     7    22    16    2
     8    17    16    1
     9    16    12    1
    10    15     9    2
    11    12    14    1
    12    12    10    1
    13     9    10   am
    14     9     8    1
    15    14    13    1
    16    10    11    1
    17     2     3    2
    18     2     1    1
    19     3     4    1
    20     8     1    1
    21     1     6   am
    22     4     5    2
    23    11    13    1
    24     6     5    1
    25     6     7    2
    26     5    24    1
    27    25    24    2
    28    24    26   am
    29    26    27    1
    30    26    28    1
    31    28    29    1
    32    29    30    2
    33    29    34    1
    34    30    31    1
    35    34    33    2
    36    31    32    2
    37    33    32    1
