@<TRIPOS>MOLECULE
83064_out_ligand_01.pdbqt
 34 38 0 0 0
SMALL
GASTEIGER

@<TRIPOS>ATOM
      1  C         25.4660  -23.0510  -12.8050 C.3     1  UNL1        0.0710
      2  C         24.0730  -22.5070  -12.6870 C.2     1  UNL1        0.0500
      3  N         23.3800  -22.9070  -11.5930 N.2     1  UNL1       -0.2370
      4  C         22.1460  -22.3910  -11.4030 C.2     1  UNL1        0.1310
      5  N         21.5620  -21.5100  -12.2370 N.2     1  UNL1       -0.2440
      6  C         22.2730  -21.1450  -13.3240 C.2     1  UNL1        0.1370
      7  C         23.5270  -21.6370  -13.6150 C.2     1  UNL1        0.0740
      8  C         21.3700  -22.8120  -10.1770 C.3     1  UNL1        0.0850
      9  C         21.9800  -24.0600   -9.5170 C.3     1  UNL1        0.0160
     10  C         20.9510  -24.8480   -8.6970 C.3     1  UNL1        0.0310
     11  C         19.8060  -23.9570   -8.2150 C.3     1  UNL1        0.2730
     12  N         19.0650  -23.3790   -9.3390 N.3     1  UNL1        0.0930
     13  C         19.8880  -23.0410  -10.5090 C.3     1  UNL1        0.2850
     14  C         18.0830  -22.3580   -8.9530 C.3     1  UNL1        0.3110
     15  C         17.7510  -22.2580   -7.4780 C.2     1  UNL1       -0.0290
     16  C         18.7050  -21.7760   -6.5700 C.2     1  UNL1        0.0110
     17  C         18.4290  -21.6570   -5.2020 C.2     1  UNL1        0.0310
     18  C         17.1590  -22.0410   -4.7640 C.2     1  UNL1        0.0420
     19  N         16.6130  -22.0290   -3.5000 N.pl3   1  UNL1       -0.3650
     20  C         16.1840  -22.5350   -5.6270 C.2     1  UNL1       -0.0080
     21  C         15.3270  -22.4980   -3.5360 C.2     1  UNL1        0.0890
     22  H         17.0950  -21.7130   -2.6700 H       1  UNL1        0.1650
     23  C         15.0340  -22.8210   -4.8410 C.2     1  UNL1        0.0300
     24  C         16.4870  -22.6500   -6.9980 C.2     1  UNL1        0.0220
     25  C         24.1970  -21.1840  -14.8430 C.2     1  UNL1        0.2590
     26  O         24.0620  -21.8700  -15.8490 O.2     1  UNL1       -0.2670
     27  N         24.9570  -20.0400  -14.6980 N.am    1  UNL1       -0.3230
     28  H         25.0670  -19.6690  -13.7610 H       1  UNL1        0.1690
     29  C         25.6690  -19.3550  -15.7060 C.2     1  UNL1        0.0350
     30  C         26.3970  -18.2210  -15.3190 C.2     1  UNL1        0.0290
     31  C         27.1200  -17.4820  -16.2590 C.2     1  UNL1        0.0020
     32  C         27.1210  -17.8680  -17.5960 C.2     1  UNL1        0.0000
     33  C         26.3980  -18.9910  -17.9900 C.2     1  UNL1        0.0020
     34  C         25.6740  -19.7310  -17.0500 C.2     1  UNL1        0.0290
@<TRIPOS>BOND
     1    33    32    2
     2    33    34    1
     3    32    31    1
     4    34    29    2
     5    31    30    2
     6    26    25    2
     7    29    30    1
     8    29    27    1
     9    25    27   am
    10    25     7    1
    11    27    28    1
    12     7     6    1
    13     7     2    2
    14     6     5    2
    15     1     2    1
    16     2     3    1
    17     5     4    1
    18     3     4    2
    19     4     8    1
    20    13     8    1
    21    13    12    1
    22     8     9    1
    23     9    10    1
    24    12    14    1
    25    12    11    1
    26    14    15    1
    27    10    11    1
    28    15    24    2
    29    15    16    1
    30    24    20    1
    31    16    17    2
    32    20    23    1
    33    20    18    2
    34    17    18    1
    35    23    21    2
    36    18    19    1
    37    21    19    1
    38    19    22    1
