@<TRIPOS>MOLECULE
83070_out_ligand_01.pdbqt
 29 31 0 0 0
SMALL
GASTEIGER

@<TRIPOS>ATOM
      1  C         21.5020  -22.0440   -8.0970 C.2     1  UNL1        0.2510
      2  O         22.3530  -21.4760   -7.4180 O.2     1  UNL1       -0.2700
      3  N         20.1740  -22.2410   -7.7600 N.am    1  UNL1       -0.3250
      4  H         19.5980  -22.6430   -8.4960 H       1  UNL1        0.1690
      5  C         21.8690  -22.6680   -9.4540 C.3     1  UNL1        0.2170
      6  C         22.9910  -23.6800   -9.2320 C.3     1  UNL1        0.0500
      7  O         20.7820  -23.3850  -10.0460 O.2     1  UNL1       -0.3370
      8  C         19.7150  -22.6550  -10.4920 C.2     1  UNL1        0.0700
      9  C         19.7720  -21.5980  -11.4000 C.2     1  UNL1        0.0370
     10  C         18.6040  -20.9180  -11.7570 C.2     1  UNL1        0.0040
     11  C         17.3760  -21.2860  -11.2050 C.2     1  UNL1        0.0160
     12  C         17.3020  -22.3420  -10.2860 C.2     1  UNL1        0.0500
     13  C         18.4850  -23.0130   -9.9290 C.2     1  UNL1        0.0520
     14  C         15.9720  -22.7370   -9.6920 C.3     1  UNL1        0.4170
     15  F         15.8830  -22.4360   -8.3670 F       1  UNL1       -0.1660
     16  F         14.9260  -22.1000  -10.2910 F       1  UNL1       -0.1660
     17  F         15.7010  -24.0680   -9.7920 F       1  UNL1       -0.1660
     18  C         19.5200  -21.8740   -6.5700 C.2     1  UNL1        0.0350
     19  C         19.9040  -20.8000   -5.7690 C.2     1  UNL1        0.0290
     20  C         19.2050  -20.5110   -4.5940 C.2     1  UNL1        0.0030
     21  C         18.1160  -21.2950   -4.2080 C.2     1  UNL1        0.0150
     22  C         17.7120  -22.3810   -4.9940 C.2     1  UNL1        0.0140
     23  C         18.4250  -22.6550   -6.1740 C.2     1  UNL1        0.0440
     24  C         16.5800  -23.2370   -4.6330 C.2     1  UNL1        0.1610
     25  N         16.5360  -24.1110   -3.6400 N.2     1  UNL1       -0.1300
     26  N         15.2950  -24.7050   -3.6270 N.2     1  UNL1       -0.1430
     27  C         14.5990  -24.1850   -4.6100 C.2     1  UNL1        0.2330
     28  N         15.3600  -23.2660   -5.2660 N.pl3   1  UNL1       -0.3320
     29  H         15.0750  -22.7060   -6.0560 H       1  UNL1        0.1680
@<TRIPOS>BOND
     1    10     9    1
     2    10    11    2
     3     9     8    2
     4    11    12    1
     5     8     7    1
     6     8    13    1
     7    16    14    1
     8    12    13    2
     9    12    14    1
    10     7     5    1
    11    17    14    1
    12    14    15    1
    13     5     6    1
    14     5     1    1
    15     4     3    1
    16     1     3   am
    17     1     2    2
    18     3    18    1
    19    18    23    2
    20    18    19    1
    21    23    22    1
    22    29    28    1
    23    19    20    2
    24    28    24    1
    25    28    27    1
    26    22    24    1
    27    22    21    2
    28    24    25    2
    29    27    26    2
    30    20    21    1
    31    25    26    1
