@<TRIPOS>MOLECULE
83089_out_ligand_01.pdbqt
 33 36 0 0 0
SMALL
GASTEIGER

@<TRIPOS>ATOM
      1  C         20.1840  -24.0260   -8.7910 C.3     1  UNL1        0.0710
      2  C         20.6260  -23.1960   -9.9610 C.2     1  UNL1        0.0500
      3  N         21.9400  -23.2940  -10.2860 N.2     1  UNL1       -0.2370
      4  C         22.3700  -22.6180  -11.3730 C.2     1  UNL1        0.1310
      5  N         21.5820  -21.8560  -12.1520 N.2     1  UNL1       -0.2440
      6  C         20.2830  -21.7690  -11.7910 C.2     1  UNL1        0.1370
      7  C         19.7570  -22.3950  -10.6820 C.2     1  UNL1        0.0730
      8  C         23.8260  -22.7270  -11.7530 C.3     1  UNL1        0.0750
      9  C         24.7370  -22.6920  -10.5120 C.3     1  UNL1        0.0150
     10  C         26.2150  -22.7140  -10.9130 C.3     1  UNL1        0.0210
     11  C         26.5230  -21.6120  -11.9260 C.3     1  UNL1        0.1260
     12  N         25.6400  -21.7050  -13.0850 N.am    1  UNL1       -0.3470
     13  C         26.0920  -22.4480  -14.1840 C.2     1  UNL1        0.2560
     14  C         24.2110  -21.6170  -12.7450 C.3     1  UNL1        0.1380
     15  O         27.1200  -23.1200  -14.1340 O.2     1  UNL1       -0.2670
     16  C         25.3150  -22.3850  -15.4110 C.2     1  UNL1        0.0680
     17  C         25.0450  -21.2960  -16.2700 C.2     1  UNL1        0.1570
     18  N         24.2890  -21.6340  -17.3180 N.2     1  UNL1       -0.1850
     19  N         24.1250  -22.9600  -17.1690 N.pl3   1  UNL1       -0.2850
     20  C         23.3550  -23.6970  -18.1400 C.3     1  UNL1        0.1790
     21  C         24.7240  -23.4580  -16.0520 C.2     1  UNL1        0.1300
     22  C         18.3320  -22.2040  -10.3800 C.2     1  UNL1        0.2550
     23  O         17.5590  -21.9140  -11.2850 O.2     1  UNL1       -0.2680
     24  N         17.9730  -22.3300   -9.0600 N.am    1  UNL1       -0.3530
     25  H         18.6680  -22.5370   -8.3570 H       1  UNL1        0.1630
     26  C         16.5920  -22.2880   -8.6380 C.3     1  UNL1        0.1610
     27  C         16.4670  -22.7280   -7.2010 C.2     1  UNL1       -0.0400
     28  C         17.4880  -23.4650   -6.5830 C.2     1  UNL1        0.0120
     29  C         17.3470  -23.8910   -5.2620 C.2     1  UNL1        0.0430
     30  C         16.1860  -23.5870   -4.5620 C.2     1  UNL1        0.1160
     31  F         16.0530  -24.0000   -3.2950 F       1  UNL1       -0.2060
     32  C         15.1580  -22.8680   -5.1580 C.2     1  UNL1        0.0430
     33  C         15.2970  -22.4410   -6.4790 C.2     1  UNL1        0.0120
@<TRIPOS>BOND
     1    20    19    1
     2    18    19    1
     3    18    17    2
     4    19    21    1
     5    17    16    1
     6    21    16    2
     7    16    13    1
     8    13    15    2
     9    13    12   am
    10    12    14    1
    11    12    11    1
    12    14     8    1
    13     5     6    2
    14     5     4    1
    15    11    10    1
    16     6     7    1
    17     8     4    1
    18     8     9    1
    19     4     3    2
    20    23    22    2
    21    10     9    1
    22     7    22    1
    23     7     2    2
    24    22    24   am
    25     3     2    1
    26     2     1    1
    27    24    26    1
    28    24    25    1
    29    26    27    1
    30    27    28    2
    31    27    33    1
    32    28    29    1
    33    33    32    2
    34    29    30    2
    35    32    30    1
    36    30    31    1
