@<TRIPOS>MOLECULE
83127_out_ligand_01.pdbqt
 37 40 0 0 0
SMALL
GASTEIGER

@<TRIPOS>ATOM
      1  C         20.4310  -22.6240   -9.8880 C.2     1  UNL1        0.0340
      2  C         19.8910  -21.7030  -10.7960 C.2     1  UNL1        0.0170
      3  C         20.6080  -21.3590  -11.9450 C.2     1  UNL1        0.0030
      4  C         21.8670  -21.9150  -12.1790 C.2     1  UNL1        0.0300
      5  C         22.4060  -22.8260  -11.2730 C.2     1  UNL1        0.0430
      6  C         21.6890  -23.1870  -10.1320 C.2     1  UNL1        0.0470
      7  C         19.7460  -22.9750   -8.6120 C.2     1  UNL1        0.2560
      8  N         18.8490  -22.0330   -8.1400 N.am    1  UNL1       -0.3230
      9  H         18.6100  -21.2750   -8.7650 H       1  UNL1        0.1690
     10  O         19.9940  -24.0620   -8.1060 O.2     1  UNL1       -0.2670
     11  C         18.1470  -22.0710   -6.9160 C.2     1  UNL1        0.0360
     12  C         16.7900  -22.3890   -6.8020 C.2     1  UNL1        0.0490
     13  C         16.1590  -22.4240   -5.5450 C.2     1  UNL1        0.0720
     14  C         16.9100  -22.1330   -4.4050 C.2     1  UNL1        0.1320
     15  C         18.2620  -21.8200   -4.5030 C.2     1  UNL1        0.0450
     16  F         16.3580  -22.1510   -3.1810 F       1  UNL1       -0.2050
     17  C         18.8810  -21.7940   -5.7540 C.2     1  UNL1        0.0320
     18  C         14.7160  -22.7850   -5.4880 C.2     1  UNL1        0.2520
     19  N         13.7960  -21.8020   -5.7190 N.am    1  UNL1       -0.3660
     20  H         12.8170  -22.0550   -5.6880 H       1  UNL1        0.1590
     21  H         14.0450  -20.8430   -5.9300 H       1  UNL1        0.1590
     22  O         14.3460  -23.9260   -5.2400 O.2     1  UNL1       -0.2680
     23  N         23.7370  -23.3080  -11.4390 N.pl3   1  UNL1       -0.2810
     24  H         23.9440  -24.2420  -11.0860 H       1  UNL1        0.1790
     25  S         25.0130  -22.2390  -11.0930 S.O2    1  UNL1        0.2630
     26  O         24.4410  -21.1580  -10.3190 O.2     1  UNL1       -0.2000
     27  O         26.1400  -23.0040  -10.6040 O.2     1  UNL1       -0.2000
     28  C         25.4290  -21.5910  -12.6940 C.2     1  UNL1        0.0820
     29  C         25.0480  -22.2830  -13.8500 C.2     1  UNL1        0.0280
     30  C         25.2930  -21.7130  -15.1000 C.2     1  UNL1        0.0410
     31  C         25.9070  -20.4640  -15.1870 C.2     1  UNL1        0.1020
     32  C         26.2840  -19.7810  -14.0240 C.2     1  UNL1        0.1030
     33  O         26.0900  -19.9590  -16.4500 O.2     1  UNL1       -0.3460
     34  C         26.0800  -20.3560  -12.7740 C.2     1  UNL1        0.0650
     35  O         26.8450  -18.5300  -14.0390 O.2     1  UNL1       -0.3460
     36  C         26.5850  -17.8730  -15.2870 C.3     1  UNL1        0.2020
     37  C         26.9290  -18.7960  -16.4450 C.3     1  UNL1        0.2020
@<TRIPOS>BOND
     1    33    37    1
     2    33    31    1
     3    37    36    1
     4    36    35    1
     5    31    30    2
     6    31    32    1
     7    30    29    1
     8    35    32    1
     9    32    34    2
    10    29    28    2
    11    34    28    1
    12    28    25    1
    13     4     3    2
    14     4     5    1
    15     3     2    1
    16    23     5    1
    17    23    25    1
    18    23    24    1
    19     5     6    2
    20    25    27    2
    21    25    26    2
    22     2     1    2
    23     6     1    1
    24     1     7    1
    25     9     8    1
    26     7     8   am
    27     7    10    2
    28     8    11    1
    29    11    12    2
    30    11    17    1
    31    12    13    1
    32    21    19    1
    33    17    15    2
    34    19    20    1
    35    19    18   am
    36    13    18    1
    37    13    14    2
    38    18    22    2
    39    15    14    1
    40    14    16    1
