@<TRIPOS>MOLECULE
83135_out_ligand_01.pdbqt
 26 28 0 0 0
SMALL
GASTEIGER

@<TRIPOS>ATOM
      1  C         21.1950  -23.0760   -9.2230 C.2     1  UNL1        0.0290
      2  C         21.1360  -22.4100  -10.3870 C.2     1  UNL1        0.0450
      3  C         20.0170  -21.5410  -10.9130 C.2     1  UNL1        0.2570
      4  O         18.9480  -21.2740  -10.4020 O.2     1  UNL1       -0.2670
      5  N         20.4690  -21.0880  -12.1440 N.am    1  UNL1       -0.3220
      6  C         21.7390  -21.5730  -12.4350 C.2     1  UNL1        0.0460
      7  C         22.4780  -21.3200  -13.5750 C.2     1  UNL1        0.0320
      8  C         23.7390  -21.9110  -13.6640 C.2     1  UNL1        0.0270
      9  C         24.2200  -22.7240  -12.6150 C.2     1  UNL1        0.0750
     10  C         23.4520  -22.9800  -11.4710 C.2     1  UNL1        0.0390
     11  C         22.2030  -22.3870  -11.3960 C.2     1  UNL1        0.0080
     12  H         19.9130  -20.4830  -12.7300 H       1  UNL1        0.1690
     13  C         20.1590  -23.1310   -8.1860 C.2     1  UNL1       -0.0350
     14  C         19.2450  -24.1860   -8.1910 C.2     1  UNL1        0.0120
     15  C         18.2200  -24.2390   -7.2450 C.2     1  UNL1        0.0080
     16  C         18.0820  -23.2320   -6.2790 C.2     1  UNL1       -0.0560
     17  C         16.9710  -23.3250   -5.2700 C.3     1  UNL1        0.0490
     18  C         18.9910  -22.1560   -6.2730 C.2     1  UNL1       -0.0550
     19  C         20.0170  -22.1150   -7.2340 C.2     1  UNL1        0.0180
     20  C         18.8970  -21.0530   -5.2550 C.3     1  UNL1        0.0490
     21  S         25.8250  -23.4680  -12.7740 S.O2    1  UNL1        0.2390
     22  O         26.7520  -22.4520  -13.2090 O.2     1  UNL1       -0.2060
     23  O         25.6740  -24.7330  -13.4550 O.2     1  UNL1       -0.2060
     24  N         26.1780  -23.8520  -11.1750 N.3     1  UNL1       -0.2250
     25  H         26.4910  -23.0080  -10.6910 H       1  UNL1        0.1360
     26  H         26.8410  -24.6190  -11.0710 H       1  UNL1        0.1360
@<TRIPOS>BOND
     1     8     7    1
     2     8     9    2
     3     7     6    2
     4    23    21    2
     5    22    21    2
     6    21     9    1
     7    21    24    1
     8    12     5    1
     9     9    10    1
    10     6     5    1
    11     6    11    1
    12     5     3   am
    13    10    11    2
    14    11     2    1
    15    24    26    1
    16    24    25    1
    17     3     4    2
    18     3     2    1
    19     2     1    2
    20     1    13    1
    21    14    13    2
    22    14    15    1
    23    13    19    1
    24    15    16    2
    25    19    18    2
    26    16    18    1
    27    16    17    1
    28    18    20    1
