@<TRIPOS>MOLECULE
83136_out_ligand_01.pdbqt
 33 36 0 0 0
SMALL
GASTEIGER

@<TRIPOS>ATOM
      1  O         23.0390  -21.2780  -10.0800 O.2     1  UNL1       -0.2680
      2  C         22.6090  -22.0750  -10.9070 C.2     1  UNL1        0.2530
      3  N         21.5270  -22.8930  -10.6690 N.am    1  UNL1       -0.3520
      4  H         21.1730  -23.5230  -11.3730 H       1  UNL1        0.1630
      5  C         20.7600  -22.8000   -9.4440 C.3     1  UNL1        0.1660
      6  C         19.3250  -22.4620   -9.7270 C.2     1  UNL1        0.0130
      7  C         18.9760  -21.7900  -10.9050 C.2     1  UNL1        0.0140
      8  C         17.6420  -21.5010  -11.1720 C.2     1  UNL1        0.0200
      9  C         16.6900  -21.9070  -10.2540 C.2     1  UNL1        0.1190
     10  N         16.9820  -22.5660   -9.1140 N.2     1  UNL1       -0.2360
     11  C         18.2890  -22.8230   -8.8680 C.2     1  UNL1        0.1770
     12  O         18.6270  -23.5560   -7.7350 O.2     1  UNL1       -0.2910
     13  C         18.5050  -22.9340   -6.5160 C.2     1  UNL1        0.0800
     14  C         17.7640  -23.4860   -5.4650 C.2     1  UNL1        0.0370
     15  C         17.6190  -22.7820   -4.2680 C.2     1  UNL1        0.0060
     16  C         18.1970  -21.5210   -4.1300 C.2     1  UNL1        0.0420
     17  C         18.9130  -20.9730   -5.1920 C.2     1  UNL1        0.1190
     18  F         19.4560  -19.7560   -5.0600 F       1  UNL1       -0.2060
     19  C         19.0660  -21.6640   -6.3880 C.2     1  UNL1        0.0790
     20  C         23.2820  -22.1850  -12.2260 C.2     1  UNL1        0.0500
     21  C         22.8100  -21.3920  -13.2730 C.2     1  UNL1        0.1360
     22  N         23.3300  -21.3870  -14.5310 N.2     1  UNL1       -0.2410
     23  C         24.3650  -22.2170  -14.7580 C.ar    1  UNL1        0.1460
     24  N         24.9030  -22.2200  -16.0350 N.ar    1  UNL1       -0.2920
     25  C         24.8950  -23.0480  -13.7820 C.ar    1  UNL1        0.0790
     26  C         25.9460  -23.0080  -16.4090 C.ar    1  UNL1        0.3280
     27  H         24.4920  -21.6010  -16.7210 H       1  UNL1        0.1720
     28  O         26.4040  -22.9860  -17.5450 O.2     1  UNL1       -0.2470
     29  N         26.4600  -23.8290  -15.4430 N.ar    1  UNL1       -0.2750
     30  C         26.0250  -23.9120  -14.1440 C.ar    1  UNL1        0.2630
     31  H         27.2390  -24.4120  -15.7130 H       1  UNL1        0.1730
     32  O         26.5420  -24.6530  -13.3170 O.2     1  UNL1       -0.2670
     33  C         24.3490  -23.0420  -12.4970 C.2     1  UNL1        0.0390
@<TRIPOS>BOND
     1    28    26    2
     2    27    24    1
     3    26    24   ar
     4    26    29   ar
     5    24    23   ar
     6    31    29    1
     7    29    30   ar
     8    23    22    2
     9    23    25   ar
    10    22    21    1
    11    30    25   ar
    12    30    32    2
    13    25    33    2
    14    21    20    2
    15    33    20    1
    16    20     2    1
    17     4     3    1
    18     8     7    1
    19     8     9    2
    20     2     3   am
    21     2     1    2
    22     7     6    2
    23     3     5    1
    24     9    10    1
    25     6     5    1
    26     6    11    1
    27    10    11    2
    28    11    12    1
    29    12    13    1
    30    13    19    2
    31    13    14    1
    32    19    17    1
    33    14    15    2
    34    17    18    1
    35    17    16    2
    36    15    16    1
