@<TRIPOS>MOLECULE
83146_out_ligand_01.pdbqt
 37 40 0 0 0
SMALL
GASTEIGER

@<TRIPOS>ATOM
      1  C         21.1170  -22.9950   -9.2500 C.2     1  UNL1        0.0320
      2  C         21.1050  -22.8760  -10.6460 C.2     1  UNL1        0.0190
      3  C         22.1860  -22.2850  -11.3040 C.2     1  UNL1        0.0310
      4  C         23.2740  -21.8020  -10.5760 C.2     1  UNL1        0.0420
      5  C         23.2840  -21.9040   -9.1850 C.2     1  UNL1        0.0310
      6  C         22.2050  -22.4940   -8.5220 C.2     1  UNL1        0.0190
      7  C         19.9880  -23.6140   -8.4990 C.2     1  UNL1        0.2560
      8  N         19.0230  -22.7280   -8.0570 N.am    1  UNL1       -0.3230
      9  H         19.1250  -21.7620   -8.3400 H       1  UNL1        0.1690
     10  O         19.9870  -24.8300   -8.3620 O.2     1  UNL1       -0.2670
     11  C         17.8580  -23.0280   -7.3170 C.2     1  UNL1        0.0360
     12  C         17.5730  -22.5100   -6.0520 C.2     1  UNL1        0.0480
     13  C         16.3790  -22.8460   -5.3790 C.2     1  UNL1        0.0550
     14  C         15.4750  -23.7280   -5.9830 C.2     1  UNL1        0.0490
     15  C         15.7590  -24.2490   -7.2480 C.2     1  UNL1        0.0270
     16 CL         14.0130  -24.2690   -5.2360 Cl      1  UNL1       -0.0830
     17  C         16.9400  -23.8990   -7.9100 C.2     1  UNL1        0.0310
     18  C         16.1860  -22.2310   -4.0400 C.2     1  UNL1        0.2510
     19  N         17.2890  -21.7820   -3.3730 N.am    1  UNL1       -0.3660
     20  H         17.1320  -21.3050   -2.4940 H       1  UNL1        0.1590
     21  H         18.1970  -21.6980   -3.8090 H       1  UNL1        0.1590
     22  O         15.0770  -22.1620   -3.5250 O.2     1  UNL1       -0.2680
     23  N         24.3670  -21.1710  -11.2290 N.pl3   1  UNL1       -0.2810
     24  H         24.1610  -20.5130  -11.9800 H       1  UNL1        0.1790
     25  S         25.7700  -22.0590  -11.5460 S.O2    1  UNL1        0.2630
     26  O         26.8710  -21.1220  -11.4580 O.2     1  UNL1       -0.2000
     27  O         25.7540  -23.2740  -10.7600 O.2     1  UNL1       -0.2000
     28  C         25.5810  -22.5010  -13.2570 C.2     1  UNL1        0.0820
     29  C         25.4390  -23.8440  -13.6200 C.2     1  UNL1        0.0280
     30  C         25.2930  -24.1790  -14.9670 C.2     1  UNL1        0.0410
     31  C         25.2990  -23.1770  -15.9370 C.2     1  UNL1        0.1020
     32  C         25.4270  -21.8340  -15.5630 C.2     1  UNL1        0.1030
     33  O         25.1720  -23.5840  -17.2400 O.2     1  UNL1       -0.3460
     34  C         25.5920  -21.4920  -14.2240 C.2     1  UNL1        0.0650
     35  O         25.4040  -20.7990  -16.4620 O.2     1  UNL1       -0.3460
     36  C         24.9030  -21.2230  -17.7360 C.3     1  UNL1        0.2020
     37  C         25.5360  -22.5410  -18.1510 C.3     1  UNL1        0.2020
@<TRIPOS>BOND
     1    37    36    1
     2    37    33    1
     3    36    35    1
     4    33    31    1
     5    35    32    1
     6    31    32    2
     7    31    30    1
     8    32    34    1
     9    30    29    2
    10    34    28    2
    11    29    28    1
    12    28    25    1
    13    24    23    1
    14    25    26    2
    15    25    23    1
    16    25    27    2
    17     3     2    1
    18     3     4    2
    19    23     4    1
    20     2     1    2
    21     4     5    1
    22     1     6    1
    23     1     7    1
    24     5     6    2
    25     7    10    2
    26     7     8   am
    27     9     8    1
    28     8    11    1
    29    17    11    2
    30    17    15    1
    31    11    12    1
    32    15    14    2
    33    12    13    2
    34    14    13    1
    35    14    16    1
    36    13    18    1
    37    18    22    2
    38    18    19   am
    39    21    19    1
    40    19    20    1
