@<TRIPOS>MOLECULE
83177_out_ligand_01.pdbqt
 35 38 0 0 0
SMALL
GASTEIGER

@<TRIPOS>ATOM
      1  C         25.2530  -20.9310  -12.9880 C.2     1  UNL1        0.0160
      2  C         25.8560  -19.9450  -13.7830 C.2     1  UNL1        0.0190
      3  C         26.7850  -19.0550  -13.2380 C.2     1  UNL1        0.0010
      4  C         27.1200  -19.1310  -11.8880 C.2     1  UNL1        0.0010
      5  C         26.5240  -20.0980  -11.0800 C.2     1  UNL1        0.0180
      6  C         25.5880  -20.9930  -11.6250 C.2     1  UNL1        0.0480
      7  C         24.9970  -22.0040  -10.7180 C.2     1  UNL1        0.2530
      8  O         25.3840  -23.1650  -10.7380 O.2     1  UNL1       -0.2680
      9  N         24.0310  -21.5180   -9.8660 N.am    1  UNL1       -0.3570
     10  H         23.8740  -20.5180   -9.8230 H       1  UNL1        0.1620
     11  C         23.5110  -22.3220   -8.7750 C.3     1  UNL1        0.1270
     12  C         22.1590  -21.8200   -8.2630 C.3     1  UNL1        0.0600
     13  C         21.1130  -22.8940   -8.1860 C.2     1  UNL1       -0.0290
     14  C         21.1730  -24.1370   -8.7870 C.2     1  UNL1        0.0960
     15  N         20.0290  -24.8210   -8.4790 N.pl3   1  UNL1       -0.3650
     16  C         19.2120  -24.0480   -7.6880 C.2     1  UNL1        0.0420
     17  H         19.8120  -25.7610   -8.7790 H       1  UNL1        0.1650
     18  C         17.9550  -24.3350   -7.1420 C.2     1  UNL1        0.0300
     19  C         19.8670  -22.8350   -7.4800 C.2     1  UNL1       -0.0020
     20  C         17.3490  -23.3490   -6.3590 C.2     1  UNL1        0.0020
     21  C         17.9770  -22.1280   -6.1300 C.2     1  UNL1        0.0010
     22  C         19.2350  -21.8590   -6.6820 C.2     1  UNL1        0.0140
     23  S         24.0450  -22.0010  -13.7630 S.3     1  UNL1       -0.1200
     24  C         22.5560  -20.9660  -13.5130 C.3     1  UNL1        0.1820
     25  C         21.5880  -21.6260  -12.5400 C.2     1  UNL1        0.2310
     26  O         21.9570  -22.5300  -11.7960 O.2     1  UNL1       -0.2720
     27  N         20.3210  -21.0600  -12.5680 N.am    1  UNL1       -0.3270
     28  H         20.1750  -20.3600  -13.2880 H       1  UNL1        0.1690
     29  C         19.1990  -21.4060  -11.7910 C.2     1  UNL1        0.0340
     30  C         18.9700  -22.6850  -11.2750 C.2     1  UNL1        0.0320
     31  C         17.8270  -22.9450  -10.5120 C.2     1  UNL1        0.0440
     32  C         16.9170  -21.9270  -10.2660 C.2     1  UNL1        0.1160
     33  F         15.8230  -22.1790   -9.5360 F       1  UNL1       -0.2060
     34  C         17.1270  -20.6500  -10.7670 C.2     1  UNL1        0.0440
     35  C         18.2680  -20.3890  -11.5290 C.2     1  UNL1        0.0320
@<TRIPOS>BOND
     1     2     3    1
     2     2     1    2
     3    23    24    1
     4    23     1    1
     5    24    25    1
     6    28    27    1
     7     3     4    2
     8     1     6    1
     9    27    25   am
    10    27    29    1
    11    25    26    2
    12     4     5    1
    13    29    35    2
    14    29    30    1
    15     6     5    2
    16     6     7    1
    17    35    34    1
    18    30    31    2
    19    34    32    2
    20     8     7    2
    21     7     9   am
    22    31    32    1
    23    32    33    1
    24     9    10    1
    25     9    11    1
    26    14    15    1
    27    14    13    2
    28    17    15    1
    29    11    12    1
    30    15    16    1
    31    12    13    1
    32    13    19    1
    33    16    19    2
    34    16    18    1
    35    19    22    1
    36    18    20    2
    37    22    21    2
    38    20    21    1
