@<TRIPOS>MOLECULE
83187_out_ligand_01.pdbqt
 29 31 0 0 0
SMALL
GASTEIGER

@<TRIPOS>ATOM
      1  C         22.0670  -22.3770  -10.8590 C.2     1  UNL1       -0.0190
      2  C         21.5560  -21.8720  -12.0650 C.2     1  UNL1        0.0100
      3  C         20.2320  -21.4420  -12.1540 C.2     1  UNL1        0.0030
      4  C         19.3880  -21.5060  -11.0440 C.2     1  UNL1        0.0290
      5  C         19.8610  -22.0000   -9.8320 C.2     1  UNL1        0.0350
      6  C         21.1940  -22.4350   -9.7520 C.2     1  UNL1        0.0390
      7  N         19.0870  -22.0940   -8.6570 N.am    1  UNL1       -0.3230
      8  C         18.8460  -23.2200   -7.8940 C.2     1  UNL1        0.2580
      9  O         19.2610  -24.3520   -8.1130 O.2     1  UNL1       -0.2670
     10  H         18.6860  -21.2220   -8.3310 H       1  UNL1        0.1690
     11  C         17.9430  -23.0380   -6.7200 C.2     1  UNL1        0.0570
     12  C         18.4340  -22.2140   -5.6900 C.2     1  UNL1        0.0640
     13  C         17.6660  -21.9820   -4.5560 C.2     1  UNL1        0.1550
     14  F         18.1510  -21.2030   -3.5800 F       1  UNL1       -0.2030
     15  C         16.4080  -22.5540   -4.4320 C.2     1  UNL1        0.1560
     16  F         15.6690  -22.3300   -3.3370 F       1  UNL1       -0.2030
     17  C         15.8980  -23.3600   -5.4430 C.2     1  UNL1        0.0700
     18  C         16.6610  -23.6020   -6.5930 C.2     1  UNL1        0.0520
     19 CL         15.9240  -24.5770   -7.8140 Cl      1  UNL1       -0.0830
     20  C         23.5040  -22.8750  -10.7250 C.3     1  UNL1        0.1390
     21  C         23.7540  -23.5650   -9.3840 C.3     1  UNL1        0.0540
     22  N         23.9130  -23.7450  -11.8120 N.am    1  UNL1       -0.3210
     23  C         24.9660  -23.2440  -12.5310 C.2     1  UNL1        0.3240
     24  H         23.5410  -24.6650  -12.0030 H       1  UNL1        0.1650
     25  O         25.5120  -23.8160  -13.4560 O.2     1  UNL1       -0.2470
     26  N         25.3020  -22.0370  -12.0280 N.am    1  UNL1       -0.2770
     27  C         24.5430  -21.7430  -10.9370 C.2     1  UNL1        0.2580
     28  H         26.0690  -21.4820  -12.3620 H       1  UNL1        0.1730
     29  O         24.6950  -20.7480  -10.2400 O.2     1  UNL1       -0.2700
@<TRIPOS>BOND
     1    25    23    2
     2    23    26   am
     3    23    22   am
     4    28    26    1
     5     3     2    1
     6     3     4    2
     7     2     1    2
     8    26    27   am
     9    24    22    1
    10    22    20    1
    11     4     5    1
    12    27    20    1
    13    27    29    2
    14     1    20    1
    15     1     6    1
    16    20    21    1
    17     5     6    2
    18     5     7    1
    19     7    10    1
    20     7     8   am
    21     9     8    2
    22     8    11    1
    23    19    18    1
    24    11    18    2
    25    11    12    1
    26    18    17    1
    27    12    13    2
    28    17    15    2
    29    13    15    1
    30    13    14    1
    31    15    16    1
