@<TRIPOS>MOLECULE
83185_out_ligand_01.pdbqt
 28 30 0 0 0
SMALL
GASTEIGER

@<TRIPOS>ATOM
      1  C         19.7320  -22.1250   -9.8200 C.2     1  UNL1        0.0350
      2  C         19.3090  -21.6570  -11.0600 C.2     1  UNL1        0.0290
      3  C         20.2300  -21.4720  -12.0920 C.2     1  UNL1        0.0030
      4  C         21.5830  -21.7500  -11.8930 C.2     1  UNL1        0.0100
      5  C         22.0450  -22.2230  -10.6550 C.2     1  UNL1       -0.0190
      6  C         21.0950  -22.3960   -9.6270 C.2     1  UNL1        0.0390
      7  N         18.8700  -22.3440   -8.7260 N.am    1  UNL1       -0.3230
      8  C         18.7270  -23.5020   -7.9880 C.2     1  UNL1        0.2560
      9  O         19.3450  -24.5520   -8.1050 O.2     1  UNL1       -0.2670
     10  H         18.3260  -21.5460   -8.4200 H       1  UNL1        0.1690
     11  C         17.7190  -23.3930   -6.9030 C.2     1  UNL1        0.0380
     12  C         16.3770  -23.7740   -7.0780 C.2     1  UNL1       -0.0460
     13  C         15.4900  -23.5900   -6.0090 C.2     1  UNL1        0.0080
     14  C         15.8640  -24.3660   -8.3610 C.3     1  UNL1        0.0490
     15  C         15.9340  -23.0700   -4.7880 C.2     1  UNL1        0.0070
     16  C         17.2750  -22.7130   -4.6110 C.2     1  UNL1       -0.0610
     17  C         17.7590  -22.2060   -3.2850 C.3     1  UNL1        0.0480
     18  C         18.1680  -22.8920   -5.6720 C.2     1  UNL1        0.0240
     19  C         23.5180  -22.5170  -10.3930 C.3     1  UNL1        0.1390
     20  C         23.7090  -23.6180   -9.3480 C.3     1  UNL1        0.0540
     21  N         24.2790  -21.3400  -10.0160 N.am    1  UNL1       -0.3210
     22  C         25.2820  -21.0440  -10.9010 C.2     1  UNL1        0.3240
     23  H         24.1640  -20.8100   -9.1640 H       1  UNL1        0.1650
     24  O         26.0810  -20.1340  -10.7700 O.2     1  UNL1       -0.2470
     25  N         25.2480  -21.9380  -11.9120 N.am    1  UNL1       -0.2770
     26  C         24.2930  -22.8810  -11.6870 C.2     1  UNL1        0.2580
     27  H         25.9100  -21.9590  -12.6670 H       1  UNL1        0.1730
     28  O         24.1140  -23.8610  -12.3970 O.2     1  UNL1       -0.2700
@<TRIPOS>BOND
     1    27    25    1
     2    28    26    2
     3     3     4    2
     4     3     2    1
     5    25    26   am
     6    25    22   am
     7     4     5    1
     8    26    19    1
     9     2     1    2
    10    22    24    2
    11    22    21   am
    12     5    19    1
    13     5     6    2
    14    19    21    1
    15    19    20    1
    16    21    23    1
    17     1     6    1
    18     1     7    1
    19     7    10    1
    20     7     8   am
    21    14    12    1
    22     9     8    2
    23     8    11    1
    24    12    11    2
    25    12    13    1
    26    11    18    1
    27    13    15    2
    28    18    16    2
    29    15    16    1
    30    16    17    1
