@<TRIPOS>MOLECULE
83181_out_ligand_01.pdbqt
 32 35 0 0 0
SMALL
GASTEIGER

@<TRIPOS>ATOM
      1  C         18.2250  -22.2540   -9.5310 C.2     1  UNL1        0.0350
      2  C         17.1500  -22.3020  -10.4120 C.2     1  UNL1        0.0290
      3  C         15.8590  -22.5350   -9.9340 C.2     1  UNL1        0.0030
      4  C         15.6320  -22.7230   -8.5690 C.2     1  UNL1        0.0100
      5  C         16.6920  -22.6820   -7.6520 C.2     1  UNL1       -0.0190
      6  C         17.9860  -22.4390   -8.1600 C.2     1  UNL1        0.0390
      7  N         19.5600  -22.0340   -9.9260 N.am    1  UNL1       -0.3230
      8  C         20.5810  -22.9630   -9.9780 C.2     1  UNL1        0.2580
      9  O         20.5370  -24.1490   -9.6770 O.2     1  UNL1       -0.2670
     10  H         19.7980  -21.0760  -10.1470 H       1  UNL1        0.1690
     11  C         21.8860  -22.4030  -10.3860 C.2     1  UNL1        0.0570
     12  C         22.1990  -22.4050  -11.7450 C.2     1  UNL1        0.0330
     13  C         23.4370  -21.9180  -12.1730 C.2     1  UNL1       -0.0060
     14  C         23.7940  -21.9110  -13.5340 C.2     1  UNL1        0.0170
     15  C         24.3340  -21.4330  -11.1940 C.2     1  UNL1        0.0700
     16  C         25.0410  -21.4310  -13.9240 C.2     1  UNL1        0.0430
     17  C         25.9180  -20.9650  -12.9550 C.2     1  UNL1        0.1180
     18  C         25.5710  -20.9640  -11.6070 C.2     1  UNL1        0.0740
     19  F         27.1200  -20.5090  -13.3260 F       1  UNL1       -0.2060
     20  N         24.0220  -21.4110   -9.8840 N.2     1  UNL1       -0.2520
     21  C         22.8020  -21.8670   -9.4850 C.2     1  UNL1        0.0470
     22  C         22.5110  -21.7390   -8.0160 C.3     1  UNL1        0.0710
     23  C         16.4860  -22.8840   -6.1560 C.3     1  UNL1        0.1390
     24  C         15.0450  -23.2630   -5.7980 C.3     1  UNL1        0.0540
     25  N         16.9000  -21.7460   -5.3570 N.am    1  UNL1       -0.3210
     26  C         17.8880  -22.0590   -4.4590 C.2     1  UNL1        0.3240
     27  H         16.4630  -20.8360   -5.3510 H       1  UNL1        0.1650
     28  O         18.3420  -21.2880   -3.6340 O.2     1  UNL1       -0.2470
     29  N         18.2410  -23.3500   -4.6320 N.am    1  UNL1       -0.2770
     30  C         17.4560  -23.9420   -5.5740 C.2     1  UNL1        0.2580
     31  H         18.9280  -23.8290   -4.0750 H       1  UNL1        0.1730
     32  O         17.5070  -25.1260   -5.8740 O.2     1  UNL1       -0.2700
@<TRIPOS>BOND
     1    16    14    1
     2    16    17    2
     3    14    13    2
     4    19    17    1
     5    17    18    1
     6    13    12    1
     7    13    15    1
     8    12    11    2
     9    18    15    2
    10    15    20    1
    11     2     3    1
    12     2     1    2
    13    11     8    1
    14    11    21    1
    15    10     7    1
    16     8     7   am
    17     8     9    2
    18     3     4    2
    19     7     1    1
    20    20    21    2
    21     1     6    1
    22    21    22    1
    23     4     5    1
    24     6     5    2
    25     5    23    1
    26    23    24    1
    27    23    30    1
    28    23    25    1
    29    32    30    2
    30    30    29   am
    31    25    27    1
    32    25    26   am
    33    29    26   am
    34    29    31    1
    35    26    28    2
