@<TRIPOS>MOLECULE
83184_out_ligand_01.pdbqt
 29 31 0 0 0
SMALL
GASTEIGER

@<TRIPOS>ATOM
      1  C         18.4370  -22.5170   -9.6360 C.2     1  UNL1        0.0350
      2  C         17.2590  -22.3930  -10.3660 C.2     1  UNL1        0.0290
      3  C         16.0240  -22.5320   -9.7340 C.2     1  UNL1        0.0030
      4  C         15.9540  -22.8000   -8.3660 C.2     1  UNL1        0.0100
      5  C         17.1210  -22.9300   -7.5980 C.2     1  UNL1       -0.0190
      6  C         18.3560  -22.7830   -8.2610 C.2     1  UNL1        0.0390
      7  N         19.7270  -22.3980  -10.1930 N.am    1  UNL1       -0.3230
      8  C         20.2050  -21.3830  -10.9980 C.2     1  UNL1        0.2570
      9  O         19.5870  -20.4060  -11.4040 O.2     1  UNL1       -0.2670
     10  H         20.3740  -23.1430   -9.9680 H       1  UNL1        0.1690
     11  C         21.6020  -21.5670  -11.4740 C.2     1  UNL1        0.0520
     12  C         22.6840  -21.8940  -10.6500 C.2     1  UNL1        0.0260
     13  C         23.9540  -22.0690  -11.2140 C.2     1  UNL1        0.0230
     14 BR         22.5500  -22.0720   -8.7630 Br      1  UNL1       -0.0500
     15  C         24.1480  -21.9140  -12.5910 C.2     1  UNL1        0.0380
     16  C         23.0780  -21.5720  -13.4160 C.2     1  UNL1        0.0690
     17  C         21.8120  -21.3930  -12.8520 C.2     1  UNL1        0.0550
     18  O         23.1300  -21.3850  -14.7680 O.2     1  UNL1       -0.3560
     19  C         24.4010  -21.0810  -15.3310 C.3     1  UNL1        0.2100
     20  C         17.0840  -23.2510   -6.1070 C.3     1  UNL1        0.1390
     21  C         17.7550  -24.5870   -5.7900 C.3     1  UNL1        0.0540
     22  N         15.7450  -23.2290   -5.5480 N.am    1  UNL1       -0.3210
     23  C         15.5900  -22.2840   -4.5670 C.2     1  UNL1        0.3240
     24  H         15.0010  -23.8730   -5.7750 H       1  UNL1        0.1650
     25  O         14.5730  -22.1120   -3.9190 O.2     1  UNL1       -0.2470
     26  N         16.7500  -21.6080   -4.4290 N.am    1  UNL1       -0.2770
     27  C         17.7110  -22.1290   -5.2390 C.2     1  UNL1        0.2580
     28  H         16.9030  -20.8900   -3.7420 H       1  UNL1        0.1730
     29  O         18.8800  -21.7690   -5.2420 O.2     1  UNL1       -0.2700
@<TRIPOS>BOND
     1    19    18    1
     2    18    16    1
     3    16    17    1
     4    16    15    2
     5    17    11    2
     6    15    13    1
     7    11     8    1
     8    11    12    1
     9     9     8    2
    10    13    12    2
    11     8     7   am
    12    12    14    1
    13     2     3    1
    14     2     1    2
    15     7    10    1
    16     7     1    1
    17     3     4    2
    18     1     6    1
    19     4     5    1
    20     6     5    2
    21     5    20    1
    22    20    21    1
    23    20    22    1
    24    20    27    1
    25    24    22    1
    26    22    23   am
    27    29    27    2
    28    27    26   am
    29    23    26   am
    30    23    25    2
    31    26    28    1
