@<TRIPOS>MOLECULE
83193_out_ligand_01.pdbqt
 35 39 0 0 0
SMALL
GASTEIGER

@<TRIPOS>ATOM
      1  C         19.7380  -22.7590  -10.3850 C.2     1  UNL1        0.0160
      2  C         18.3400  -22.6630  -10.4580 C.2     1  UNL1        0.0190
      3  C         17.7310  -21.6080  -11.1440 C.2     1  UNL1        0.0010
      4  C         18.5080  -20.6380  -11.7710 C.2     1  UNL1        0.0010
      5  C         19.8980  -20.7220  -11.7170 C.2     1  UNL1        0.0180
      6  C         20.5120  -21.7810  -11.0300 C.2     1  UNL1        0.0480
      7  S         20.4330  -24.1660   -9.5250 S.3     1  UNL1       -0.1200
      8  C         21.2260  -23.2800   -8.1340 C.3     1  UNL1        0.1820
      9  C         20.1870  -22.5660   -7.2780 C.2     1  UNL1        0.2310
     10  O         20.3990  -21.4410   -6.8350 O.2     1  UNL1       -0.2720
     11  N         19.0600  -23.3380   -7.0400 N.am    1  UNL1       -0.3260
     12  H         19.0270  -24.2240   -7.5330 H       1  UNL1        0.1690
     13  C         17.9240  -23.0010   -6.2770 C.2     1  UNL1        0.0370
     14  C         18.0670  -23.0470   -4.8710 C.2     1  UNL1        0.0320
     15  C         16.9990  -22.7320   -4.0230 C.2     1  UNL1        0.0420
     16  C         15.8070  -22.3740   -4.6060 C.2     1  UNL1        0.1050
     17  C         15.6590  -22.3250   -5.9720 C.2     1  UNL1        0.1070
     18  O         14.6680  -22.0360   -3.9460 O.2     1  UNL1       -0.3230
     19  C         16.6950  -22.6300   -6.8330 C.2     1  UNL1        0.0690
     20  O         14.4050  -21.9470   -6.3420 O.2     1  UNL1       -0.3230
     21  C         13.7850  -21.7610   -5.0530 C.3     1  UNL1        0.3520
     22  C         21.9920  -21.8130  -10.9980 C.2     1  UNL1        0.2530
     23  O         22.6200  -21.0610  -10.2670 O.2     1  UNL1       -0.2680
     24  N         22.5610  -22.7230  -11.8570 N.am    1  UNL1       -0.3480
     25  H         21.9740  -23.2900  -12.4570 H       1  UNL1        0.1630
     26  C         24.0040  -22.8470  -12.0050 C.3     1  UNL1        0.1180
     27  C         24.6430  -22.9680  -10.6120 C.3     1  UNL1        0.0300
     28  C         26.1500  -22.7820  -10.6810 C.3     1  UNL1        0.0070
     29  C         26.4790  -21.3770  -11.1740 C.3     1  UNL1        0.0390
     30  C         25.7360  -21.0150  -12.4360 C.2     1  UNL1       -0.0500
     31  C         26.2180  -19.9550  -13.2220 C.2     1  UNL1        0.0070
     32  C         24.5610  -21.6900  -12.8210 C.2     1  UNL1       -0.0290
     33  C         25.5670  -19.5890  -14.3990 C.2     1  UNL1        0.0010
     34  C         24.4300  -20.2780  -14.8060 C.2     1  UNL1        0.0010
     35  C         23.9350  -21.3240  -14.0270 C.2     1  UNL1        0.0100
@<TRIPOS>BOND
     1    34    33    2
     2    34    35    1
     3    33    31    1
     4    35    32    2
     5    31    30    2
     6    32    30    1
     7    32    26    1
     8    25    24    1
     9    30    29    1
    10    26    24    1
    11    26    27    1
    12    24    22   am
    13     4     5    2
    14     4     3    1
    15     5     6    1
    16    29    28    1
    17     3     2    2
    18     6    22    1
    19     6     1    2
    20    22    23    2
    21    28    27    1
    22     2     1    1
    23     1     7    1
    24     7     8    1
    25     8     9    1
    26    12    11    1
    27     9    11   am
    28     9    10    2
    29    11    13    1
    30    19    13    2
    31    19    17    1
    32    20    17    1
    33    20    21    1
    34    13    14    1
    35    17    16    2
    36    21    18    1
    37    14    15    2
    38    16    15    1
    39    16    18    1
