@<TRIPOS>MOLECULE
83199_out_ligand_01.pdbqt
 33 36 0 0 0
SMALL
GASTEIGER

@<TRIPOS>ATOM
      1  C         21.6010  -21.9240  -11.7600 C.2     1  UNL1        0.0330
      2  C         20.4770  -21.3590  -12.3750 C.2     1  UNL1        0.0180
      3  C         19.2140  -21.4740  -11.7810 C.2     1  UNL1        0.0180
      4  C         19.0480  -22.1620  -10.5690 C.2     1  UNL1        0.0370
      5  C         20.1700  -22.7310   -9.9830 C.2     1  UNL1        0.0790
      6  C         21.4440  -22.6280  -10.5640 C.2     1  UNL1        0.0410
      7  S         20.0330  -23.6030   -8.4730 S.O2    1  UNL1        0.2080
      8  O         20.4210  -24.9700   -8.7600 O.2     1  UNL1       -0.2170
      9  O         20.7380  -22.8030   -7.4910 O.2     1  UNL1       -0.2170
     10  C         18.3570  -23.6430   -7.9880 C.2     1  UNL1        0.0780
     11  C         18.0240  -24.3450   -6.8210 C.2     1  UNL1        0.0250
     12  C         16.6960  -24.3960   -6.4030 C.2     1  UNL1        0.0020
     13  C         15.7120  -23.7510   -7.1470 C.2     1  UNL1        0.0010
     14  C         16.0560  -23.0550   -8.3100 C.2     1  UNL1        0.0170
     15  C         17.3900  -22.9960   -8.7450 C.2     1  UNL1        0.0370
     16  C         17.6880  -22.2430   -9.9870 C.2     1  UNL1        0.1950
     17  O         16.7700  -21.6630  -10.5600 O.2     1  UNL1       -0.2870
     18  C         22.9260  -21.7810  -12.4280 C.2     1  UNL1        0.2560
     19  N         22.8810  -21.3210  -13.7330 N.am    1  UNL1       -0.3230
     20  H         21.9680  -21.2360  -14.1610 H       1  UNL1        0.1690
     21  O         23.9230  -22.1100  -11.8000 O.2     1  UNL1       -0.2670
     22  C         23.9770  -21.0450  -14.5790 C.2     1  UNL1        0.0360
     23  C         24.7690  -19.8940  -14.4920 C.2     1  UNL1        0.0490
     24  C         25.8410  -19.6890  -15.3800 C.2     1  UNL1        0.0720
     25  C         26.1070  -20.6520  -16.3540 C.2     1  UNL1        0.1320
     26  C         25.3260  -21.7980  -16.4540 C.2     1  UNL1        0.0450
     27  F         27.1180  -20.5070  -17.2250 F       1  UNL1       -0.2050
     28  C         24.2630  -21.9930  -15.5710 C.2     1  UNL1        0.0320
     29  C         26.6460  -18.4450  -15.2440 C.2     1  UNL1        0.2520
     30  N         27.0710  -18.0810  -13.9990 N.am    1  UNL1       -0.3660
     31  H         26.8750  -18.6180  -13.1640 H       1  UNL1        0.1590
     32  H         27.6220  -17.2360  -13.9190 H       1  UNL1        0.1590
     33  O         26.9310  -17.7540  -16.2150 O.2     1  UNL1       -0.2680
@<TRIPOS>BOND
     1    27    25    1
     2    26    25    2
     3    26    28    1
     4    25    24    1
     5    33    29    2
     6    28    22    2
     7    24    29    1
     8    24    23    2
     9    29    30   am
    10    22    23    1
    11    22    19    1
    12    20    19    1
    13    30    32    1
    14    30    31    1
    15    19    18   am
    16    18    21    2
    17    18     1    1
    18     2     3    1
    19     2     1    2
    20     3     4    2
    21     1     6    1
    22     4    16    1
    23     4     5    1
    24     6     5    2
    25    17    16    2
    26    16    15    1
    27     5     7    1
    28     8     7    2
    29    15    14    1
    30    15    10    2
    31     7    10    1
    32     7     9    2
    33    14    13    2
    34    10    11    1
    35    13    12    1
    36    11    12    2
