@<TRIPOS>MOLECULE
83206_out_ligand_01.pdbqt
 39 43 0 0 0
SMALL
GASTEIGER

@<TRIPOS>ATOM
      1  C         20.2100  -21.9850  -11.0810 C.2     1  UNL1        0.0320
      2  C         20.9110  -21.4920  -12.1900 C.2     1  UNL1        0.0190
      3  C         22.2480  -21.8440  -12.3900 C.2     1  UNL1        0.0310
      4  C         22.8850  -22.6910  -11.4850 C.2     1  UNL1        0.0420
      5  C         22.1900  -23.2010  -10.3890 C.2     1  UNL1        0.0310
      6  C         20.8500  -22.8510  -10.1860 C.2     1  UNL1        0.0190
      7  N         24.2300  -23.0800  -11.7220 N.pl3   1  UNL1       -0.2810
      8  H         24.4320  -23.5700  -12.5940 H       1  UNL1        0.1790
      9  S         25.4490  -21.9590  -11.3770 S.O2    1  UNL1        0.2630
     10  O         24.8750  -21.0250  -10.4310 O.2     1  UNL1       -0.2000
     11  O         26.6790  -22.6590  -11.0790 O.2     1  UNL1       -0.2000
     12  C         25.6340  -21.1030  -12.9230 C.2     1  UNL1        0.0820
     13  C         25.2570  -21.7600  -14.1210 C.2     1  UNL1        0.0280
     14  C         25.3770  -21.1120  -15.3560 C.2     1  UNL1        0.0330
     15  C         25.8660  -19.8260  -15.3320 C.ar    1  UNL1        0.0630
     16  N         26.0940  -18.9450  -16.3820 N.ar    1  UNL1       -0.3070
     17  C         26.2250  -19.1830  -14.1470 C.ar    1  UNL1        0.0640
     18  C         26.5960  -17.7430  -15.8620 C.ar    1  UNL1        0.3250
     19  H         25.9330  -19.1030  -17.3630 H       1  UNL1        0.1700
     20  O         26.9050  -16.7510  -16.4970 O.2     1  UNL1       -0.2470
     21  N         26.6730  -17.9080  -14.4720 N.ar    1  UNL1       -0.3060
     22  H         27.0030  -17.1940  -13.8420 H       1  UNL1        0.1700
     23  C         26.1170  -19.7870  -12.9190 C.2     1  UNL1        0.0570
     24  C         18.7820  -21.5910  -10.9180 C.2     1  UNL1        0.2510
     25  O         18.3480  -20.6070  -11.5050 O.2     1  UNL1       -0.2680
     26  N         18.0260  -22.3610  -10.0600 N.am    1  UNL1       -0.3570
     27  H         18.4810  -23.0310   -9.4560 H       1  UNL1        0.1620
     28  C         16.6410  -22.0290   -9.7710 C.3     1  UNL1        0.1270
     29  C         15.8840  -23.1890   -9.1190 C.3     1  UNL1        0.0600
     30  C         16.4260  -23.5250   -7.7660 C.2     1  UNL1       -0.0290
     31  C         17.5370  -24.3030   -7.5030 C.2     1  UNL1        0.0960
     32  N         17.7070  -24.3670   -6.1470 N.pl3   1  UNL1       -0.3650
     33  C         16.7280  -23.6420   -5.5100 C.2     1  UNL1        0.0420
     34  H         18.4450  -24.8720   -5.6760 H       1  UNL1        0.1650
     35  C         16.5100  -23.4260   -4.1430 C.2     1  UNL1        0.0300
     36  C         15.9060  -23.1040   -6.5000 C.2     1  UNL1       -0.0020
     37  C         15.4180  -22.6350   -3.7770 C.2     1  UNL1        0.0020
     38  C         14.5790  -22.0820   -4.7410 C.2     1  UNL1        0.0010
     39  C         14.8110  -22.3080   -6.1030 C.2     1  UNL1        0.0140
@<TRIPOS>BOND
     1    19    16    1
     2    20    18    2
     3    16    18   ar
     4    16    15   ar
     5    18    21   ar
     6    14    15    2
     7    14    13    1
     8    15    17   ar
     9    21    17   ar
    10    21    22    1
    11    17    23    2
    12    13    12    2
    13    12    23    1
    14    12     9    1
    15     8     7    1
    16     3     2    1
    17     3     4    2
    18     2     1    2
    19     7     4    1
    20     7     9    1
    21    25    24    2
    22     4     5    1
    23     9    11    2
    24     9    10    2
    25     1    24    1
    26     1     6    1
    27    24    26   am
    28     5     6    2
    29    26    28    1
    30    26    27    1
    31    28    29    1
    32    29    30    1
    33    30    31    2
    34    30    36    1
    35    31    32    1
    36    36    39    1
    37    36    33    2
    38    32    34    1
    39    32    33    1
    40    39    38    2
    41    33    35    1
    42    38    37    1
    43    35    37    2
