@<TRIPOS>MOLECULE
83210_out_ligand_01.pdbqt
 35 39 0 0 0
SMALL
GASTEIGER

@<TRIPOS>ATOM
      1  C         20.6860  -22.2050  -10.1310 C.2     1  UNL1        0.1090
      2  N         20.9010  -21.2620  -11.1000 N.2     1  UNL1       -0.2530
      3  C         19.8220  -20.7110  -11.7000 C.2     1  UNL1        0.1180
      4  C         18.5200  -21.0190  -11.3630 C.2     1  UNL1        0.0200
      5  C         18.3120  -21.9660  -10.3650 C.2     1  UNL1        0.0210
      6  C         19.4020  -22.5960   -9.7380 C.2     1  UNL1        0.0670
      7  S         22.1950  -22.8810   -9.4430 S.3     1  UNL1       -0.1000
      8  C         23.2810  -21.4260   -9.5400 C.3     1  UNL1        0.1840
      9  C         24.2280  -21.5390  -10.7260 C.2     1  UNL1        0.2310
     10  O         25.3280  -20.9890  -10.7120 O.2     1  UNL1       -0.2720
     11  N         23.7090  -22.3020  -11.7580 N.am    1  UNL1       -0.3260
     12  H         22.7480  -22.6090  -11.6400 H       1  UNL1        0.1690
     13  C         24.3370  -22.6720  -12.9650 C.2     1  UNL1        0.0370
     14  C         25.2100  -23.7670  -13.0910 C.2     1  UNL1        0.0320
     15  C         25.7740  -24.1090  -14.3290 C.2     1  UNL1        0.0420
     16  C         25.4300  -23.3430  -15.4210 C.2     1  UNL1        0.1050
     17  C         24.5850  -22.2670  -15.3060 C.2     1  UNL1        0.1070
     18  O         25.8460  -23.5430  -16.6990 O.2     1  UNL1       -0.3230
     19  C         24.0370  -21.8940  -14.0950 C.2     1  UNL1        0.0690
     20  O         24.3450  -21.6650  -16.5050 O.2     1  UNL1       -0.3230
     21  C         25.1160  -22.5040  -17.3870 C.3     1  UNL1        0.3520
     22  C         19.0620  -23.5870   -8.6780 C.2     1  UNL1        0.2550
     23  O         19.6950  -24.6420   -8.6200 O.2     1  UNL1       -0.2680
     24  N         18.0840  -23.2530   -7.7730 N.am    1  UNL1       -0.3480
     25  H         17.6430  -22.3380   -7.8250 H       1  UNL1        0.1630
     26  C         17.6650  -24.1360   -6.6940 C.3     1  UNL1        0.1180
     27  C         16.4840  -25.0050   -7.1510 C.3     1  UNL1        0.0300
     28  C         15.1750  -24.2220   -7.1400 C.3     1  UNL1        0.0070
     29  C         14.8450  -23.7550   -5.7230 C.3     1  UNL1        0.0390
     30  C         16.0160  -23.1020   -5.0280 C.2     1  UNL1       -0.0500
     31  C         15.7830  -22.3410   -3.8700 C.2     1  UNL1        0.0070
     32  C         17.3410  -23.3100   -5.4610 C.2     1  UNL1       -0.0290
     33  C         16.8490  -21.7880   -3.1530 C.2     1  UNL1        0.0010
     34  C         18.1560  -21.9840   -3.5840 C.2     1  UNL1        0.0010
     35  C         18.4000  -22.7330   -4.7360 C.2     1  UNL1        0.0100
@<TRIPOS>BOND
     1    21    18    1
     2    21    20    1
     3    18    16    1
     4    20    17    1
     5    16    17    2
     6    16    15    1
     7    17    19    1
     8    15    14    2
     9    19    13    2
    10    14    13    1
    11    13    11    1
    12    11    12    1
    13    11     9   am
    14     3     4    2
    15     3     2    1
    16     4     5    1
    17     2     1    2
    18     9    10    2
    19     9     8    1
    20     5     6    2
    21     1     6    1
    22     1     7    1
    23     6    22    1
    24     8     7    1
    25    22    23    2
    26    22    24   am
    27    25    24    1
    28    24    26    1
    29    27    28    1
    30    27    26    1
    31    28    29    1
    32    26    32    1
    33    29    30    1
    34    32    30    2
    35    32    35    1
    36    30    31    1
    37    35    34    2
    38    31    33    2
    39    34    33    1
