@<TRIPOS>MOLECULE
83221_out_ligand_01.pdbqt
 38 41 0 0 0
SMALL
GASTEIGER

@<TRIPOS>ATOM
      1  C         21.0260  -23.0570   -9.1190 C.2     1  UNL1        0.0320
      2  C         21.1980  -23.1010  -10.5090 C.2     1  UNL1        0.0190
      3  C         22.3070  -22.4830  -11.0930 C.2     1  UNL1        0.0310
      4  C         23.2320  -21.8100  -10.2930 C.2     1  UNL1        0.0420
      5  C         23.0610  -21.7580   -8.9110 C.2     1  UNL1        0.0310
      6  C         21.9530  -22.3720   -8.3230 C.2     1  UNL1        0.0190
      7  C         19.8560  -23.6980   -8.4570 C.2     1  UNL1        0.2560
      8  N         18.9220  -22.8130   -7.9500 N.am    1  UNL1       -0.3230
      9  H         19.0480  -21.8370   -8.1840 H       1  UNL1        0.1690
     10  O         19.7940  -24.9200   -8.4480 O.2     1  UNL1       -0.2670
     11  C         17.7460  -23.1290   -7.2360 C.2     1  UNL1        0.0360
     12  C         17.3830  -22.5400   -6.0200 C.2     1  UNL1        0.0490
     13  C         16.1870  -22.9040   -5.3720 C.2     1  UNL1        0.0720
     14  C         15.3640  -23.8650   -5.9600 C.2     1  UNL1        0.1320
     15  C         15.7120  -24.4550   -7.1720 C.2     1  UNL1        0.0450
     16  F         14.2140  -24.2490   -5.3850 F       1  UNL1       -0.2050
     17  C         16.8970  -24.0850   -7.8090 C.2     1  UNL1        0.0320
     18  C         15.8470  -22.2390   -4.0850 C.2     1  UNL1        0.2520
     19  N         16.8340  -22.0830   -3.1550 N.am    1  UNL1       -0.3660
     20  H         17.7830  -22.4060   -3.2910 H       1  UNL1        0.1590
     21  H         16.5910  -21.6330   -2.2830 H       1  UNL1        0.1590
     22  O         14.7150  -21.8350   -3.8500 O.2     1  UNL1       -0.2680
     23  N         24.3840  -21.2210  -10.8810 N.pl3   1  UNL1       -0.2810
     24  H         24.6570  -20.2950  -10.5550 H       1  UNL1        0.1790
     25  S         25.7510  -22.1980  -11.0910 S.O2    1  UNL1        0.2630
     26  O         26.8930  -21.3110  -11.0360 O.2     1  UNL1       -0.2000
     27  O         25.6530  -23.3520  -10.2230 O.2     1  UNL1       -0.2000
     28  C         25.5870  -22.7330  -12.7730 C.2     1  UNL1        0.0820
     29  C         25.8530  -24.0610  -13.1140 C.2     1  UNL1        0.0280
     30  C         25.7060  -24.4670  -14.4400 C.2     1  UNL1        0.0410
     31  C         25.2990  -23.5560  -15.4200 C.2     1  UNL1        0.1020
     32  C         25.0960  -22.2090  -15.0790 C.2     1  UNL1        0.1030
     33  O         25.1450  -24.0920  -16.6740 O.2     1  UNL1       -0.3480
     34  C         25.2170  -21.8040  -13.7480 C.2     1  UNL1        0.0650
     35  O         24.7690  -21.2090  -15.9590 O.2     1  UNL1       -0.3480
     36  C         25.4030  -21.3450  -17.2320 C.3     1  UNL1        0.1780
     37  C         24.5900  -22.2400  -18.1500 C.3     1  UNL1        0.0530
     38  C         24.0990  -23.4870  -17.4350 C.3     1  UNL1        0.1780
@<TRIPOS>BOND
     1    37    38    1
     2    37    36    1
     3    38    33    1
     4    36    35    1
     5    33    31    1
     6    35    32    1
     7    31    32    2
     8    31    30    1
     9    32    34    1
    10    30    29    2
    11    34    28    2
    12    29    28    1
    13    28    25    1
    14     3     2    1
    15     3     4    2
    16    25    26    2
    17    25    23    1
    18    25    27    2
    19    23    24    1
    20    23     4    1
    21     2     1    2
    22     4     5    1
    23     1     7    1
    24     1     6    1
    25     5     6    2
    26     7    10    2
    27     7     8   am
    28     9     8    1
    29     8    11    1
    30    17    11    2
    31    17    15    1
    32    11    12    1
    33    15    14    2
    34    12    13    2
    35    14    16    1
    36    14    13    1
    37    13    18    1
    38    18    22    2
    39    18    19   am
    40    20    19    1
    41    19    21    1
