@<TRIPOS>MOLECULE
83223_out_ligand_01.pdbqt
 35 37 0 0 0
SMALL
GASTEIGER

@<TRIPOS>ATOM
      1  C         23.2010  -23.0780  -10.7350 C.2     1  UNL1        0.0420
      2  C         22.1810  -22.4820  -11.4750 C.2     1  UNL1        0.0310
      3  C         20.8950  -22.3840  -10.9400 C.2     1  UNL1        0.0190
      4  C         20.6300  -22.8680   -9.6530 C.2     1  UNL1        0.0320
      5  C         21.6550  -23.4730   -8.9130 C.2     1  UNL1        0.0190
      6  C         22.9400  -23.5720   -9.4550 C.2     1  UNL1        0.0310
      7  C         19.2430  -22.7580   -9.1220 C.2     1  UNL1        0.2560
      8  O         18.4280  -22.1150   -9.7690 O.2     1  UNL1       -0.2670
      9  N         19.0360  -23.3770   -7.9030 N.am    1  UNL1       -0.3230
     10  H         19.8570  -23.7290   -7.4280 H       1  UNL1        0.1690
     11  C         17.8220  -23.4770   -7.1920 C.2     1  UNL1        0.0360
     12  C         16.8190  -24.2740   -7.7610 C.2     1  UNL1        0.0320
     13  C         15.5860  -24.4240   -7.1250 C.2     1  UNL1        0.0450
     14  C         15.3450  -23.7720   -5.9200 C.2     1  UNL1        0.1320
     15  F         14.1430  -23.9450   -5.3470 F       1  UNL1       -0.2050
     16  C         16.3210  -22.9660   -5.3360 C.2     1  UNL1        0.0720
     17  C         17.5640  -22.8230   -5.9820 C.2     1  UNL1        0.0490
     18  C         16.1000  -22.2410   -4.0560 C.2     1  UNL1        0.2520
     19  N         17.1830  -21.6990   -3.4240 N.am    1  UNL1       -0.3660
     20  H         17.0230  -21.2130   -2.5510 H       1  UNL1        0.1590
     21  H         18.1290  -21.7740   -3.7760 H       1  UNL1        0.1590
     22  O         14.9840  -22.1250   -3.5650 O.2     1  UNL1       -0.2680
     23  N         24.5070  -23.2290  -11.2750 N.pl3   1  UNL1       -0.2810
     24  H         24.6330  -23.8430  -12.0780 H       1  UNL1        0.1790
     25  S         25.5520  -21.9020  -11.3250 S.O2    1  UNL1        0.2630
     26  O         25.0390  -20.8490  -10.4780 O.2     1  UNL1       -0.2000
     27  O         26.8840  -22.4380  -11.1370 O.2     1  UNL1       -0.2000
     28  C         25.4290  -21.3640  -13.0180 C.2     1  UNL1        0.0800
     29  C         25.0310  -22.2780  -14.0030 C.2     1  UNL1        0.0350
     30  C         24.9290  -21.8630  -15.3380 C.2     1  UNL1       -0.0220
     31  C         24.5350  -22.8250  -16.4170 C.3     1  UNL1        0.0510
     32  C         25.2620  -20.5430  -15.6590 C.2     1  UNL1        0.1220
     33  C         25.6750  -19.6380  -14.6840 C.2     1  UNL1        0.0440
     34  F         25.1880  -20.1300  -16.9330 F       1  UNL1       -0.2060
     35  C         25.7670  -20.0480  -13.3540 C.2     1  UNL1        0.0280
@<TRIPOS>BOND
     1    34    32    1
     2    31    30    1
     3    32    30    2
     4    32    33    1
     5    30    29    1
     6    33    35    2
     7    29    28    2
     8    35    28    1
     9    28    25    1
    10    24    23    1
    11     2     3    1
    12     2     1    2
    13    25    23    1
    14    25    27    2
    15    25    26    2
    16    23     1    1
    17     3     4    2
    18     1     6    1
    19     8     7    2
    20     4     7    1
    21     4     5    1
    22     6     5    2
    23     7     9   am
    24     9    10    1
    25     9    11    1
    26    12    11    2
    27    12    13    1
    28    11    17    1
    29    13    14    2
    30    17    16    2
    31    14    15    1
    32    14    16    1
    33    16    18    1
    34    18    22    2
    35    18    19   am
    36    21    19    1
    37    19    20    1
