@<TRIPOS>MOLECULE
83233_out_ligand_01.pdbqt
 29 31 0 0 0
SMALL
GASTEIGER

@<TRIPOS>ATOM
      1  C         17.2450  -22.6220   -7.4740 C.2     1  UNL1       -0.0190
      2  C         16.0260  -22.7760   -8.1510 C.2     1  UNL1        0.0100
      3  C         15.9920  -22.9080   -9.5410 C.2     1  UNL1        0.0030
      4  C         17.1740  -22.8900  -10.2830 C.2     1  UNL1        0.0290
      5  C         18.4010  -22.7380   -9.6440 C.2     1  UNL1        0.0350
      6  C         18.4240  -22.6020   -8.2480 C.2     1  UNL1        0.0390
      7  N         19.6440  -22.7170  -10.3110 N.am    1  UNL1       -0.3230
      8  C         20.1640  -21.7040  -11.0930 C.2     1  UNL1        0.2580
      9  O         19.6440  -20.6170  -11.3180 O.2     1  UNL1       -0.2670
     10  H         20.1920  -23.5660  -10.2330 H       1  UNL1        0.1690
     11  C         21.5210  -21.9440  -11.6660 C.2     1  UNL1        0.0570
     12  C         21.7950  -21.3020  -12.8870 C.2     1  UNL1        0.0620
     13  C         23.0310  -21.4630  -13.5050 C.2     1  UNL1        0.1390
     14  F         23.2610  -20.8270  -14.6620 F       1  UNL1       -0.2040
     15  C         24.0100  -22.2670  -12.9280 C.2     1  UNL1        0.0740
     16 CL         25.5410  -22.4670  -13.6850 Cl      1  UNL1       -0.0810
     17  C         23.7480  -22.9210  -11.7250 C.2     1  UNL1        0.0520
     18  C         22.5050  -22.7660  -11.0950 C.2     1  UNL1        0.0510
     19 CL         22.2700  -23.6570   -9.6330 Cl      1  UNL1       -0.0830
     20  C         17.3190  -22.4520   -5.9600 C.3     1  UNL1        0.1390
     21  C         18.6330  -21.8080   -5.5190 C.3     1  UNL1        0.0540
     22  N         16.1950  -21.7150   -5.4110 N.am    1  UNL1       -0.3210
     23  C         15.4510  -22.4500   -4.5260 C.2     1  UNL1        0.3240
     24  H         15.9930  -20.7390   -5.5760 H       1  UNL1        0.1650
     25  O         14.4950  -22.0290   -3.9020 O.2     1  UNL1       -0.2470
     26  N         15.9750  -23.6920   -4.4470 N.am    1  UNL1       -0.2770
     27  C         17.1050  -23.7860   -5.1980 C.2     1  UNL1        0.2580
     28  H         15.6320  -24.4080   -3.8300 H       1  UNL1        0.1730
     29  O         17.8320  -24.7710   -5.2270 O.2     1  UNL1       -0.2700
@<TRIPOS>BOND
     1    14    13    1
     2    16    15    1
     3    13    15    2
     4    13    12    1
     5    15    17    1
     6    12    11    2
     7    17    18    2
     8    11    18    1
     9    11     8    1
    10     9     8    2
    11    18    19    1
    12     8     7   am
    13     7    10    1
    14     7     5    1
    15     4     5    2
    16     4     3    1
    17     5     6    1
    18     3     2    2
    19     6     1    2
    20     2     1    1
    21     1    20    1
    22    20    21    1
    23    20    22    1
    24    20    27    1
    25    24    22    1
    26    22    23   am
    27    29    27    2
    28    27    26   am
    29    23    26   am
    30    23    25    2
    31    26    28    1
