@<TRIPOS>MOLECULE
83245_out_ligand_01.pdbqt
 29 32 0 0 0
SMALL
GASTEIGER

@<TRIPOS>ATOM
      1  C         19.3560  -21.7920  -10.7570 C.2     1  UNL1        0.1430
      2  C         19.6530  -20.8740  -11.7510 C.2     1  UNL1        0.0450
      3  C         20.9670  -21.1540  -12.1980 C.2     1  UNL1        0.0360
      4  C         21.4040  -22.2390  -11.4680 C.2     1  UNL1        0.0680
      5  O         20.4410  -22.6130  -10.5810 O.2     1  UNL1       -0.3080
      6  C         18.1890  -22.0240   -9.9110 C.2     1  UNL1        0.2800
      7  O         17.0540  -21.7550  -10.2930 O.2     1  UNL1       -0.2650
      8  N         18.5010  -22.5500   -8.6640 N.am    1  UNL1       -0.3210
      9  H         19.4830  -22.6350   -8.4600 H       1  UNL1        0.1690
     10  C         17.6200  -22.9430   -7.6240 C.2     1  UNL1        0.0420
     11  C         16.5850  -23.8620   -7.8350 C.2     1  UNL1        0.0300
     12  C         15.7540  -24.2620   -6.7910 C.2     1  UNL1        0.0030
     13  C         15.9520  -23.7600   -5.5120 C.2     1  UNL1        0.0080
     14  C         16.9830  -22.8470   -5.2610 C.2     1  UNL1       -0.0500
     15  C         17.8100  -22.4060   -6.3230 C.2     1  UNL1       -0.0250
     16  C         17.1340  -22.3250   -3.8500 C.3     1  UNL1        0.0390
     17  C         18.9140  -21.4030   -6.0410 C.3     1  UNL1        0.0410
     18  C         18.8060  -20.6900   -4.6950 C.3     1  UNL1        0.0050
     19  C         18.4900  -21.6810   -3.5890 C.3     1  UNL1        0.0050
     20  C         22.6610  -23.0220  -11.4150 C.3     1  UNL1        0.2100
     21  S         23.8280  -22.2120  -10.3300 S.O2    1  UNL1        0.1810
     22  O         24.6280  -23.2220   -9.6570 O.2     1  UNL1       -0.2220
     23  O         23.1580  -21.1740   -9.5690 O.2     1  UNL1       -0.2220
     24  C         24.9060  -21.3880  -11.4850 C.2     1  UNL1        0.0590
     25  C         24.6750  -21.5120  -12.8570 C.2     1  UNL1        0.0230
     26  C         25.5250  -20.8660  -13.7550 C.2     1  UNL1        0.0020
     27  C         26.6010  -20.1130  -13.2800 C.2     1  UNL1        0.0000
     28  C         26.8360  -20.0060  -11.9070 C.2     1  UNL1        0.0020
     29  C         25.9910  -20.6490  -11.0030 C.2     1  UNL1        0.0230
@<TRIPOS>BOND
     1    26    27    2
     2    26    25    1
     3    27    28    1
     4    25    24    2
     5     3     2    1
     6     3     4    2
     7    28    29    2
     8     2     1    2
     9    24    29    1
    10    24    21    1
    11     4    20    1
    12     4     5    1
    13    20    21    1
    14     1     5    1
    15     1     6    1
    16    21    22    2
    17    21    23    2
    18     7     6    2
    19     6     8   am
    20     8     9    1
    21     8    10    1
    22    11    10    2
    23    11    12    1
    24    10    15    1
    25    12    13    2
    26    15    17    1
    27    15    14    2
    28    17    18    1
    29    13    14    1
    30    14    16    1
    31    18    19    1
    32    16    19    1
