@<TRIPOS>MOLECULE
83246_out_ligand_01.pdbqt
 34 37 0 0 0
SMALL
GASTEIGER

@<TRIPOS>ATOM
      1  C         15.4910  -22.4280   -9.6880 C.3     1  UNL1        0.0500
      2  C         16.9580  -22.7480   -9.6180 C.2     1  UNL1       -0.0390
      3  C         17.7990  -22.2370  -10.6180 C.2     1  UNL1        0.0100
      4  C         19.1710  -22.5020  -10.6110 C.2     1  UNL1        0.0300
      5  C         19.7430  -23.2880   -9.6070 C.2     1  UNL1        0.0360
      6  C         18.9160  -23.8260   -8.6220 C.2     1  UNL1        0.0540
      7  C         17.5340  -23.5610   -8.6240 C.2     1  UNL1        0.0830
      8  N         21.1370  -23.4890   -9.6710 N.am    1  UNL1       -0.3270
      9  C         22.1150  -22.9120   -8.8780 C.2     1  UNL1        0.2260
     10  O         21.9280  -22.0560   -8.0160 O.2     1  UNL1       -0.2730
     11  H         21.4580  -24.1380  -10.3800 H       1  UNL1        0.1690
     12  C         23.5320  -23.3590   -9.2170 C.3     1  UNL1        0.1410
     13  C         24.1260  -22.7120  -10.4460 C.2     1  UNL1       -0.0470
     14  C         23.8130  -23.1970  -11.7260 C.2     1  UNL1        0.0100
     15  C         24.3560  -22.5980  -12.8630 C.2     1  UNL1        0.0400
     16  C         25.2210  -21.5140  -12.7330 C.2     1  UNL1        0.1020
     17  C         25.5220  -21.0090  -11.4660 C.2     1  UNL1        0.1020
     18  O         25.7360  -20.9910  -13.8910 O.2     1  UNL1       -0.3460
     19  C         24.9920  -21.6140  -10.3260 C.2     1  UNL1        0.0470
     20  O         26.3370  -19.9250  -11.2600 O.2     1  UNL1       -0.3460
     21  C         26.5570  -19.1990  -12.4750 C.3     1  UNL1        0.2020
     22  C         26.8600  -20.1470  -13.6240 C.3     1  UNL1        0.2020
     23  S         16.5510  -24.3110   -7.3310 S.O2    1  UNL1        0.2460
     24  O         17.4420  -24.9610   -6.3940 O.2     1  UNL1       -0.2060
     25  O         15.4540  -25.0260   -7.9440 O.2     1  UNL1       -0.2060
     26  N         15.9690  -22.9110   -6.5380 N.pl3   1  UNL1       -0.1810
     27  H         15.8150  -22.2090   -7.2660 H       1  UNL1        0.1460
     28  C         16.8600  -22.4120   -5.5300 C.2     1  UNL1        0.0240
     29  C         16.5810  -22.6290   -4.1780 C.2     1  UNL1        0.0240
     30  C         17.4280  -22.1030   -3.2010 C.2     1  UNL1        0.0030
     31  C         18.5440  -21.3530   -3.5770 C.2     1  UNL1        0.0240
     32  C         18.8020  -21.1250   -4.9280 C.2     1  UNL1        0.0350
     33 CL         20.1750  -20.1950   -5.3880 Cl      1  UNL1       -0.0840
     34  C         17.9590  -21.6440   -5.9090 C.2     1  UNL1        0.0480
@<TRIPOS>BOND
     1    18    22    1
     2    18    16    1
     3    22    21    1
     4    15    16    2
     5    15    14    1
     6    16    17    1
     7    21    20    1
     8    14    13    2
     9    17    20    1
    10    17    19    2
    11     3     4    1
    12     3     2    2
    13     4     5    2
    14    13    19    1
    15    13    12    1
    16    11     8    1
    17     1     2    1
    18     8     5    1
    19     8     9   am
    20     2     7    1
    21     5     6    1
    22    12     9    1
    23     9    10    2
    24     7     6    2
    25     7    23    1
    26    25    23    2
    27    23    26    1
    28    23    24    2
    29    27    26    1
    30    26    28    1
    31    34    28    2
    32    34    32    1
    33    28    29    1
    34    33    32    1
    35    32    31    2
    36    29    30    2
    37    31    30    1
