@<TRIPOS>MOLECULE
83244_out_ligand_01.pdbqt
 33 36 0 0 0
SMALL
GASTEIGER

@<TRIPOS>ATOM
      1  C         15.8650  -22.3550   -9.3490 C.3     1  UNL1        0.0500
      2  C         17.1990  -22.1820  -10.0180 C.2     1  UNL1       -0.0390
      3  C         17.2690  -21.3930  -11.1750 C.2     1  UNL1        0.0100
      4  C         18.4840  -21.1810  -11.8410 C.2     1  UNL1        0.0300
      5  C         19.6640  -21.7410  -11.3590 C.2     1  UNL1        0.0360
      6  C         19.6130  -22.5180  -10.1980 C.2     1  UNL1        0.0550
      7  C         18.3930  -22.7430   -9.5340 C.2     1  UNL1        0.0870
      8  N         20.9220  -21.5900  -11.9790 N.am    1  UNL1       -0.3230
      9  C         22.1100  -22.2030  -11.6250 C.2     1  UNL1        0.2560
     10  O         22.2690  -23.0500  -10.7540 O.2     1  UNL1       -0.2670
     11  H         20.9350  -21.0090  -12.8080 H       1  UNL1        0.1690
     12  C         23.2930  -21.7960  -12.4360 C.2     1  UNL1        0.0350
     13  C         24.5420  -21.7240  -11.8030 C.2     1  UNL1        0.0200
     14  C         25.6740  -21.3400  -12.5250 C.2     1  UNL1        0.0400
     15  C         25.5560  -21.0150  -13.8750 C.2     1  UNL1        0.1020
     16  C         24.3120  -21.0940  -14.5100 C.2     1  UNL1        0.1030
     17  O         26.7030  -20.6250  -14.5170 O.2     1  UNL1       -0.3460
     18  C         23.1760  -21.4630  -13.7910 C.2     1  UNL1        0.0560
     19  O         24.1270  -20.8090  -15.8400 O.2     1  UNL1       -0.3460
     20  C         25.3740  -20.7670  -16.5450 C.3     1  UNL1        0.2020
     21  C         26.4090  -19.9770  -15.7610 C.3     1  UNL1        0.2020
     22  S         18.4410  -23.7640   -8.0720 S.O2    1  UNL1        0.2630
     23  O         19.7280  -24.4240   -8.0200 O.2     1  UNL1       -0.2000
     24  O         17.2180  -24.5370   -8.0010 O.2     1  UNL1       -0.2000
     25  N         18.4360  -22.6230   -6.8180 N.pl3   1  UNL1       -0.2810
     26  H         19.3820  -22.4830   -6.4640 H       1  UNL1        0.1790
     27  C         17.3780  -22.6860   -5.8710 C.2     1  UNL1        0.0440
     28  C         17.5540  -23.4090   -4.6900 C.2     1  UNL1        0.0300
     29  C         16.5020  -23.5250   -3.7800 C.2     1  UNL1        0.0040
     30  C         15.2720  -22.9250   -4.0590 C.2     1  UNL1        0.0240
     31  C         15.1020  -22.2140   -5.2460 C.2     1  UNL1        0.0360
     32 CL         13.5810  -21.4910   -5.5970 Cl      1  UNL1       -0.0840
     33  C         16.1510  -22.0910   -6.1560 C.2     1  UNL1        0.0540
@<TRIPOS>BOND
     1    20    19    1
     2    20    21    1
     3    19    16    1
     4    21    17    1
     5    17    15    1
     6    16    15    2
     7    16    18    1
     8    15    14    1
     9    18    12    2
    10    11     8    1
    11    14    13    2
    12    12    13    1
    13    12     9    1
    14     8     9   am
    15     8     5    1
    16     4     5    2
    17     4     3    1
    18     9    10    2
    19     5     6    1
    20     3     2    2
    21     6     7    2
    22     2     7    1
    23     2     1    1
    24     7    22    1
    25    22    23    2
    26    22    24    2
    27    22    25    1
    28    25    26    1
    29    25    27    1
    30    33    27    2
    31    33    31    1
    32    27    28    1
    33    32    31    1
    34    31    30    2
    35    28    29    2
    36    30    29    1
