@<TRIPOS>MOLECULE
83254_out_ligand_01.pdbqt
 36 39 0 0 0
SMALL
GASTEIGER

@<TRIPOS>ATOM
      1  C         18.0290  -22.9500   -5.8460 C.2     1  UNL1        0.0830
      2  C         19.0710  -23.0620   -6.7840 C.2     1  UNL1        0.0540
      3  C         20.0990  -22.1150   -6.8300 C.2     1  UNL1        0.0360
      4  C         20.0710  -21.0490   -5.9390 C.2     1  UNL1        0.0300
      5  C         19.0440  -20.9430   -4.9950 C.2     1  UNL1        0.0100
      6  C         18.0100  -21.8930   -4.9220 C.2     1  UNL1       -0.0390
      7  C         16.9650  -21.6790   -3.8640 C.3     1  UNL1        0.0500
      8  N         21.1020  -22.2990   -7.7970 N.am    1  UNL1       -0.3220
      9  C         21.3420  -23.4150   -8.5700 C.2     1  UNL1        0.2770
     10  O         20.7220  -24.4650   -8.5990 O.2     1  UNL1       -0.2660
     11  H         21.6760  -21.4960   -8.0340 H       1  UNL1        0.1690
     12  C         22.5440  -23.2080   -9.4980 C.ar    1  UNL1        0.1560
     13  N         23.6790  -23.6720   -9.0490 N.ar    1  UNL1       -0.1660
     14  N         24.7850  -23.5210   -9.8270 N.ar    1  UNL1       -0.2420
     15  C         24.8350  -22.9040  -11.0550 C.ar    1  UNL1        0.2720
     16  H         25.6630  -23.8680   -9.4480 H       1  UNL1        0.1920
     17  O         25.8760  -22.7870  -11.6880 O.2     1  UNL1       -0.2660
     18  C         23.5530  -22.3970  -11.5770 C.ar    1  UNL1        0.0460
     19  C         23.5090  -21.7720  -12.8300 C.2     1  UNL1        0.0180
     20  C         22.3940  -22.5530  -10.8170 C.ar    1  UNL1        0.0160
     21  C         22.2950  -21.3110  -13.3320 C.2     1  UNL1        0.0010
     22  C         21.1270  -21.4850  -12.5890 C.2     1  UNL1        0.0010
     23  C         21.1730  -22.1050  -11.3350 C.2     1  UNL1        0.0150
     24  S         16.7590  -24.2100   -5.8920 S.O2    1  UNL1        0.2460
     25  O         17.2770  -25.3210   -6.6650 O.2     1  UNL1       -0.2060
     26  O         16.2740  -24.3850   -4.5410 O.2     1  UNL1       -0.2060
     27  N         15.5780  -23.4590   -6.8730 N.pl3   1  UNL1       -0.1810
     28  H         15.1520  -22.7100   -6.3290 H       1  UNL1        0.1460
     29  C         16.0750  -22.9860   -8.1380 C.2     1  UNL1        0.0280
     30  C         16.7430  -21.7590   -8.1540 C.2     1  UNL1        0.0250
     31  C         17.2010  -21.2150   -9.3530 C.2     1  UNL1        0.0080
     32  C         16.9760  -21.8830  -10.5590 C.2     1  UNL1       -0.0610
     33  C         17.4670  -21.3090  -11.8540 C.3     1  UNL1        0.0480
     34  C         16.3100  -23.1190  -10.5380 C.2     1  UNL1        0.0150
     35  C         15.8540  -23.6860   -9.3350 C.2     1  UNL1       -0.0390
     36  C         15.0990  -24.9860   -9.4010 C.3     1  UNL1        0.0500
@<TRIPOS>BOND
     1    21    19    1
     2    21    22    2
     3    19    18    2
     4    22    23    1
     5    33    32    1
     6    17    15    2
     7    18    15   ar
     8    18    20   ar
     9    23    20    2
    10    15    14   ar
    11    20    12   ar
    12    32    34    2
    13    32    31    1
    14    34    35    1
    15    14    16    1
    16    14    13   ar
    17    12    13   ar
    18    12     9    1
    19    36    35    1
    20    31    30    2
    21    35    29    2
    22    10     9    2
    23     9     8   am
    24    30    29    1
    25    29    27    1
    26    11     8    1
    27     8     3    1
    28    27    28    1
    29    27    24    1
    30     3     2    1
    31     3     4    2
    32     2     1    2
    33    25    24    2
    34     4     5    1
    35    24     1    1
    36    24    26    2
    37     1     6    1
    38     5     6    2
    39     6     7    1
