@<TRIPOS>MOLECULE
83265_out_ligand_01.pdbqt
 32 35 0 0 0
SMALL
GASTEIGER

@<TRIPOS>ATOM
      1  C         20.4650  -21.8450  -11.4230 C.2     1  UNL1        0.0330
      2  C         21.2220  -22.7080  -10.5930 C.2     1  UNL1        0.0180
      3  C         22.5560  -23.0090  -10.8960 C.2     1  UNL1        0.0190
      4  C         23.0900  -22.4380  -12.0360 C.2     1  UNL1        0.0480
      5  C         22.3490  -21.6060  -12.8550 C.2     1  UNL1        0.0490
      6  C         21.0330  -21.2910  -12.5820 C.2     1  UNL1        0.0350
      7  C         23.2150  -21.1910  -13.9570 C.2     1  UNL1        0.2620
      8  O         22.8730  -20.4400  -14.8500 O.2     1  UNL1       -0.2670
      9  N         24.4210  -21.8020  -13.7530 N.am    1  UNL1       -0.2740
     10  C         24.4280  -22.5540  -12.6130 C.2     1  UNL1        0.2620
     11  O         25.3280  -23.1940  -12.1060 O.2     1  UNL1       -0.2670
     12  C         19.0440  -21.5190  -11.1200 C.2     1  UNL1        0.2510
     13  N         18.3140  -22.5010  -10.4870 N.am    1  UNL1       -0.3530
     14  H         18.8000  -23.2790  -10.0670 H       1  UNL1        0.1630
     15  O         18.6010  -20.4130  -11.4050 O.2     1  UNL1       -0.2680
     16  C         16.9740  -22.2420  -10.0010 C.3     1  UNL1        0.1610
     17  C         16.8090  -22.7650   -8.5970 C.2     1  UNL1       -0.0380
     18  C         15.9320  -23.8180   -8.3210 C.2     1  UNL1        0.0120
     19  C         15.8060  -24.3130   -7.0200 C.2     1  UNL1        0.0400
     20  C         16.5610  -23.7680   -5.9760 C.2     1  UNL1        0.1010
     21  C         17.4560  -22.7140   -6.2440 C.2     1  UNL1        0.1020
     22  C         17.5710  -22.2220   -7.5490 C.2     1  UNL1        0.0480
     23  O         16.5040  -24.1960   -4.6730 O.2     1  UNL1       -0.3530
     24  C         15.3360  -23.8870   -3.9270 C.3     1  UNL1        0.2100
     25  O         18.1690  -22.2370   -5.1720 O.2     1  UNL1       -0.3530
     26  C         18.9600  -21.0740   -5.3720 C.3     1  UNL1        0.2100
     27  C         25.5490  -21.6730  -14.6480 C.3     1  UNL1        0.2000
     28  C         25.1640  -22.1700  -15.9950 C.2     1  UNL1        0.0700
     29  C         24.7060  -23.3870  -16.4600 C.2     1  UNL1        0.0360
     30  C         24.5190  -23.2360  -17.8540 C.2     1  UNL1        0.0270
     31  C         24.8720  -21.9420  -18.1510 C.2     1  UNL1        0.1420
     32  O         25.2640  -21.2860  -17.0290 O.2     1  UNL1       -0.3250
@<TRIPOS>BOND
     1    31    30    2
     2    31    32    1
     3    30    29    1
     4    32    28    1
     5    29    28    2
     6    28    27    1
     7     8     7    2
     8    27     9    1
     9     7     9   am
    10     7     5    1
    11     9    10   am
    12     5     6    1
    13     5     4    2
    14    10    11    2
    15    10     4    1
    16     6     1    2
    17     4     3    1
    18     1    12    1
    19     1     2    1
    20    15    12    2
    21    12    13   am
    22     3     2    2
    23    13    14    1
    24    13    16    1
    25    16    17    1
    26    17    18    2
    27    17    22    1
    28    18    19    1
    29    22    21    2
    30    19    20    2
    31    21    20    1
    32    21    25    1
    33    20    23    1
    34    26    25    1
    35    23    24    1
