@<TRIPOS>MOLECULE
83269_out_ligand_01.pdbqt
 34 37 0 0 0
SMALL
GASTEIGER

@<TRIPOS>ATOM
      1  C         19.9730  -22.8710   -9.3430 C.2     1  UNL1        0.0320
      2  C         21.0250  -23.5890   -8.7610 C.2     1  UNL1        0.0190
      3  C         22.2560  -23.6900   -9.4140 C.2     1  UNL1        0.0310
      4  C         22.4340  -23.0760  -10.6520 C.2     1  UNL1        0.0420
      5  C         21.3870  -22.3730  -11.2490 C.2     1  UNL1        0.0310
      6  C         20.1540  -22.2720  -10.5970 C.2     1  UNL1        0.0190
      7  N         23.6670  -23.2330  -11.3410 N.pl3   1  UNL1       -0.2810
      8  H         24.0530  -24.1750  -11.4060 H       1  UNL1        0.1790
      9  S         24.8970  -22.1160  -11.0160 S.O2    1  UNL1        0.2630
     10  O         24.4450  -21.1750  -10.0140 O.2     1  UNL1       -0.2000
     11  O         26.1000  -22.8970  -10.8150 O.2     1  UNL1       -0.2000
     12  C         25.0680  -21.2670  -12.5660 C.2     1  UNL1        0.0820
     13  C         24.3900  -21.7740  -13.7030 C.2     1  UNL1        0.0280
     14  C         24.5090  -21.1390  -14.9450 C.2     1  UNL1        0.0330
     15  C         25.3110  -20.0220  -14.9910 C.ar    1  UNL1        0.0630
     16  N         25.6160  -19.1950  -16.0640 N.ar    1  UNL1       -0.3070
     17  C         25.9850  -19.5360  -13.8700 C.ar    1  UNL1        0.0640
     18  C         26.4830  -18.1840  -15.6240 C.ar    1  UNL1        0.3250
     19  H         25.2950  -19.2770  -17.0150 H       1  UNL1        0.1700
     20  O         26.9540  -17.2860  -16.2990 O.2     1  UNL1       -0.2470
     21  N         26.7000  -18.4100  -14.2560 N.ar    1  UNL1       -0.3060
     22  H         27.2900  -17.8290  -13.6810 H       1  UNL1        0.1700
     23  C         25.8940  -20.1370  -12.6390 C.2     1  UNL1        0.0570
     24  C         18.6740  -22.8150   -8.6180 C.2     1  UNL1        0.2520
     25  O         17.6430  -22.5740   -9.2360 O.2     1  UNL1       -0.2680
     26  N         18.7140  -23.0670   -7.2630 N.am    1  UNL1       -0.3520
     27  H         19.5960  -23.2650   -6.8120 H       1  UNL1        0.1630
     28  C         17.5290  -22.9280   -6.4150 C.3     1  UNL1        0.0840
     29  C         16.7270  -24.2340   -6.4640 C.3     1  UNL1        0.0250
     30  C         15.2320  -24.0930   -6.1880 C.3     1  UNL1        0.0020
     31  C         14.8090  -23.1200   -5.0930 C.3     1  UNL1        0.0000
     32  C         15.7170  -23.0860   -3.8690 C.3     1  UNL1        0.0000
     33  C         16.8910  -22.1240   -4.0350 C.3     1  UNL1        0.0020
     34  C         17.9880  -22.5880   -4.9880 C.3     1  UNL1        0.0250
@<TRIPOS>BOND
     1    19    16    1
     2    20    18    2
     3    16    18   ar
     4    16    15   ar
     5    18    21   ar
     6    15    14    2
     7    15    17   ar
     8    14    13    1
     9    21    17   ar
    10    21    22    1
    11    17    23    2
    12    13    12    2
    13    23    12    1
    14    12     9    1
    15     8     7    1
    16     7     9    1
    17     7     4    1
    18     5     4    2
    19     5     6    1
    20     9    11    2
    21     9    10    2
    22     4     3    1
    23     6     1    2
    24     3     2    2
    25     1     2    1
    26     1    24    1
    27    25    24    2
    28    24    26   am
    29    26    27    1
    30    26    28    1
    31    29    28    1
    32    29    30    1
    33    28    34    1
    34    30    31    1
    35    31    32    1
    36    34    33    1
    37    33    32    1
