@<TRIPOS>MOLECULE
83260_out_ligand_01.pdbqt
 33 35 0 0 0
SMALL
GASTEIGER

@<TRIPOS>ATOM
      1  C         25.2910  -22.4640  -12.5650 C.2     1  UNL1        0.0690
      2  C         25.5450  -23.7340  -13.0900 C.2     1  UNL1        0.0380
      3  C         25.3500  -23.9970  -14.4500 C.2     1  UNL1        0.0250
      4  C         24.8910  -22.9850  -15.2960 C.2     1  UNL1        0.0440
      5  C         24.6870  -23.2480  -16.6910 C.1     1  UNL1        0.0990
      6  N         24.5240  -23.4650  -17.8190 N.1     1  UNL1       -0.1910
      7  C         24.6280  -21.7150  -14.7730 C.2     1  UNL1        0.0250
      8  C         24.8270  -21.4540  -13.4110 C.2     1  UNL1        0.0380
      9  O         25.5100  -22.3530  -11.2190 O.2     1  UNL1       -0.3420
     10  C         24.5620  -22.9490  -10.3400 C.3     1  UNL1        0.2780
     11  C         23.2550  -22.1620  -10.1770 C.2     1  UNL1        0.2460
     12  N         22.1770  -22.7880  -10.7750 N.am    1  UNL1       -0.3250
     13  H         22.3920  -23.6650  -11.2390 H       1  UNL1        0.1690
     14  O         23.2320  -21.1130   -9.5400 O.2     1  UNL1       -0.2710
     15  C         20.8430  -22.3430  -10.8420 C.2     1  UNL1        0.0360
     16  C         20.5590  -21.3260  -11.7570 C.2     1  UNL1        0.0300
     17  C         19.2600  -20.8290  -11.8960 C.2     1  UNL1        0.0100
     18  C         18.2050  -21.3400  -11.1250 C.2     1  UNL1       -0.0390
     19  C         16.8340  -20.7540  -11.3150 C.3     1  UNL1        0.0500
     20  C         18.5000  -22.3510  -10.1900 C.2     1  UNL1        0.0830
     21  C         19.8100  -22.8480  -10.0540 C.2     1  UNL1        0.0540
     22  S         17.2420  -23.0360   -9.1180 S.O2    1  UNL1        0.2460
     23  O         16.6190  -21.9500   -8.3910 O.2     1  UNL1       -0.2060
     24  O         16.4560  -23.9780   -9.8840 O.2     1  UNL1       -0.2060
     25  N         18.2200  -23.8670   -7.9860 N.pl3   1  UNL1       -0.1810
     26  H         19.1660  -23.8930   -8.3740 H       1  UNL1        0.1460
     27  C         18.2130  -23.2790   -6.6770 C.2     1  UNL1        0.0240
     28  C         17.6220  -23.9710   -5.6180 C.2     1  UNL1        0.0240
     29  C         17.5740  -23.3940   -4.3480 C.2     1  UNL1        0.0030
     30  C         18.1080  -22.1220   -4.1410 C.2     1  UNL1        0.0240
     31  C         18.6790  -21.4300   -5.2080 C.2     1  UNL1        0.0350
     32 CL         19.3250  -19.8560   -4.9520 Cl      1  UNL1       -0.0840
     33  C         18.7280  -21.9990   -6.4810 C.2     1  UNL1        0.0480
@<TRIPOS>BOND
     1     6     5    3
     2     5     4    1
     3     4     7    2
     4     4     3    1
     5     7     8    1
     6     3     2    2
     7     8     1    2
     8     2     1    1
     9     1     9    1
    10    17    16    1
    11    17    18    2
    12    16    15    2
    13    19    18    1
    14    13    12    1
    15     9    10    1
    16    18    20    1
    17    15    12    1
    18    15    21    1
    19    12    11   am
    20    10    11    1
    21    20    21    2
    22    20    22    1
    23    11    14    2
    24    24    22    2
    25    22    23    2
    26    22    25    1
    27    26    25    1
    28    25    27    1
    29    27    33    2
    30    27    28    1
    31    33    31    1
    32    28    29    2
    33    31    32    1
    34    31    30    2
    35    29    30    1
