@<TRIPOS>MOLECULE
83274_out_ligand_01.pdbqt
 32 34 0 0 0
SMALL
GASTEIGER

@<TRIPOS>ATOM
      1  C         16.2270  -22.3240   -9.9470 C.3     1  UNL1        0.0500
      2  C         17.6600  -22.0360  -10.2930 C.2     1  UNL1       -0.0390
      3  C         17.9250  -21.2220  -11.4050 C.2     1  UNL1        0.0100
      4  C         19.2370  -20.9250  -11.7960 C.2     1  UNL1        0.0300
      5  C         20.3220  -21.4480  -11.0960 C.2     1  UNL1        0.0360
      6  C         20.0750  -22.2770   -9.9990 C.2     1  UNL1        0.0550
      7  C         18.7580  -22.5620   -9.5900 C.2     1  UNL1        0.0870
      8  N         21.6730  -21.1980  -11.4210 N.am    1  UNL1       -0.3230
      9  C         22.6860  -22.1260  -11.5500 C.2     1  UNL1        0.2580
     10  O         22.5860  -23.3430  -11.4520 O.2     1  UNL1       -0.2670
     11  H         21.9030  -20.2150  -11.5550 H       1  UNL1        0.1690
     12  C         24.0250  -21.5910  -11.9100 C.2     1  UNL1        0.0650
     13  C         24.9610  -21.4760  -10.8700 C.2     1  UNL1        0.0200
     14  C         26.2310  -20.9420  -11.1080 C.2     1  UNL1        0.0010
     15  C         26.5810  -20.4990  -12.3840 C.2     1  UNL1        0.0020
     16  C         25.6610  -20.5860  -13.4270 C.2     1  UNL1        0.0370
     17  C         24.3930  -21.1310  -13.1760 C.2     1  UNL1        0.1180
     18  N         23.4710  -21.1890  -14.2820 N.pl3   1  UNL1       -0.1150
     19  O         22.5860  -20.3290  -14.3300 O.2     1  UNL1       -0.5320
     20  O         23.6700  -22.0860  -15.1140 O.2     1  UNL1       -0.5320
     21  S         18.5620  -23.6030   -8.1480 S.O2    1  UNL1        0.2630
     22  O         19.7930  -24.3390   -7.9480 O.2     1  UNL1       -0.2000
     23  O         17.2970  -24.2980   -8.2510 O.2     1  UNL1       -0.2000
     24  N         18.3950  -22.4840   -6.8910 N.pl3   1  UNL1       -0.2810
     25  H         19.2960  -22.1900   -6.5180 H       1  UNL1        0.1790
     26  C         17.2960  -22.5970   -5.9920 C.2     1  UNL1        0.0440
     27  C         17.4600  -23.3480   -4.8260 C.2     1  UNL1        0.0300
     28  C         16.3910  -23.5140   -3.9430 C.2     1  UNL1        0.0040
     29  C         15.1580  -22.9290   -4.2280 C.2     1  UNL1        0.0240
     30  C         15.0030  -22.1750   -5.3910 C.2     1  UNL1        0.0360
     31 CL         13.4770  -21.4600   -5.7430 Cl      1  UNL1       -0.0840
     32  C         16.0680  -22.0020   -6.2740 C.2     1  UNL1        0.0540
@<TRIPOS>BOND
     1    20    18    2
     2    19    18    2
     3    18    17    1
     4    16    17    1
     5    16    15    2
     6    17    12    2
     7    15    14    1
     8    12     9    1
     9    12    13    1
    10     4     3    1
    11     4     5    2
    12    11     8    1
    13     9    10    2
    14     9     8   am
    15     8     5    1
    16     3     2    2
    17    14    13    2
    18     5     6    1
    19     2     1    1
    20     2     7    1
    21     6     7    2
    22     7    21    1
    23    23    21    2
    24    21    22    2
    25    21    24    1
    26    24    25    1
    27    24    26    1
    28    32    26    2
    29    32    30    1
    30    26    27    1
    31    31    30    1
    32    30    29    2
    33    27    28    2
    34    29    28    1
