@<TRIPOS>MOLECULE
83279_out_ligand_01.pdbqt
 35 38 0 0 0
SMALL
GASTEIGER

@<TRIPOS>ATOM
      1  C         15.9610  -22.3730   -9.4950 C.3     1  UNL1        0.0500
      2  C         17.3140  -22.1490  -10.1100 C.2     1  UNL1       -0.0390
      3  C         17.3910  -21.3880  -11.2860 C.2     1  UNL1        0.0100
      4  C         18.6150  -21.1560  -11.9260 C.2     1  UNL1        0.0300
      5  C         19.7940  -21.6930  -11.4170 C.2     1  UNL1        0.0360
      6  C         19.7330  -22.4600  -10.2510 C.2     1  UNL1        0.0550
      7  C         18.5080  -22.6840   -9.5960 C.2     1  UNL1        0.0870
      8  N         21.0650  -21.5040  -12.0000 N.am    1  UNL1       -0.3230
      9  C         22.2300  -22.1890  -11.7060 C.2     1  UNL1        0.2560
     10  O         22.3900  -23.0390  -10.8380 O.2     1  UNL1       -0.2670
     11  H         21.1370  -20.7330  -12.6510 H       1  UNL1        0.1690
     12  C         23.4060  -21.8030  -12.5310 C.2     1  UNL1        0.0340
     13  C         24.6810  -21.8940  -11.9630 C.2     1  UNL1        0.0180
     14  C         25.8060  -21.5330  -12.7090 C.2     1  UNL1        0.0220
     15  C         25.6680  -21.1100  -14.0360 C.2     1  UNL1        0.0270
     16  C         24.3930  -21.0510  -14.6150 C.2     1  UNL1        0.0520
     17  S         27.1210  -20.5650  -14.9050 S.3     1  UNL1       -0.1180
     18  C         23.2620  -21.3860  -13.8610 C.2     1  UNL1        0.0480
     19  N         24.1940  -20.6270  -15.9370 N.am    1  UNL1       -0.3250
     20  C         25.1650  -20.4290  -16.8800 C.2     1  UNL1        0.2310
     21  H         23.2570  -20.4320  -16.2660 H       1  UNL1        0.1690
     22  O         24.8430  -19.9820  -17.9830 O.2     1  UNL1       -0.2720
     23  C         26.5760  -20.8920  -16.5950 C.3     1  UNL1        0.1820
     24  S         18.5520  -23.6730   -8.1060 S.O2    1  UNL1        0.2630
     25  O         17.3420  -24.4610   -8.0430 O.2     1  UNL1       -0.2000
     26  O         19.8510  -24.3080   -8.0290 O.2     1  UNL1       -0.2000
     27  N         18.4430  -22.5130   -6.8790 N.pl3   1  UNL1       -0.2810
     28  H         19.3580  -22.1960   -6.5660 H       1  UNL1        0.1790
     29  C         17.3990  -22.6180   -5.9180 C.2     1  UNL1        0.0440
     30  C         17.6370  -23.1960   -4.6700 C.2     1  UNL1        0.0300
     31  C         16.6170  -23.2600   -3.7220 C.2     1  UNL1        0.0040
     32  C         15.3570  -22.7400   -4.0190 C.2     1  UNL1        0.0240
     33  C         15.1260  -22.1620   -5.2670 C.2     1  UNL1        0.0360
     34 CL         13.5740  -21.5140   -5.6320 Cl      1  UNL1       -0.0840
     35  C         16.1410  -22.0990   -6.2210 C.2     1  UNL1        0.0540
@<TRIPOS>BOND
     1    22    20    2
     2    20    23    1
     3    20    19   am
     4    23    17    1
     5    21    19    1
     6    19    16    1
     7    17    15    1
     8    16    15    2
     9    16    18    1
    10    15    14    1
    11    18    12    2
    12    14    13    2
    13    11     8    1
    14    12    13    1
    15    12     9    1
    16     8     9   am
    17     8     5    1
    18     4     5    2
    19     4     3    1
    20     9    10    2
    21     5     6    1
    22     3     2    2
    23     6     7    2
    24     2     7    1
    25     2     1    1
    26     7    24    1
    27    24    25    2
    28    24    26    2
    29    24    27    1
    30    27    28    1
    31    27    29    1
    32    35    29    2
    33    35    33    1
    34    29    30    1
    35    34    33    1
    36    33    32    2
    37    30    31    2
    38    32    31    1
