@<TRIPOS>MOLECULE
83284_out_ligand_01.pdbqt
 28 31 0 0 0
SMALL
GASTEIGER

@<TRIPOS>ATOM
      1  C         19.9720  -21.9120  -11.1540 C.2     1  UNL1        0.0330
      2  C         18.8160  -21.3310  -11.7370 C.2     1  UNL1        0.0180
      3  C         17.5380  -21.5820  -11.2240 C.2     1  UNL1        0.0190
      4  C         17.4540  -22.4260  -10.1350 C.2     1  UNL1        0.0480
      5  C         18.5770  -23.0030   -9.5720 C.2     1  UNL1        0.0490
      6  C         19.8530  -22.7750  -10.0560 C.2     1  UNL1        0.0350
      7  C         18.1320  -23.8370   -8.4570 C.2     1  UNL1        0.2620
      8  O         18.8850  -24.4670   -7.7410 O.2     1  UNL1       -0.2670
      9  N         16.7710  -23.7300   -8.4130 N.am    1  UNL1       -0.2740
     10  C         16.2910  -22.8870   -9.3770 C.2     1  UNL1        0.2620
     11  O         15.1520  -22.5290   -9.5990 O.2     1  UNL1       -0.2670
     12  C         21.2920  -21.5970  -11.7700 C.2     1  UNL1        0.2520
     13  O         21.3380  -20.8900  -12.7710 O.2     1  UNL1       -0.2680
     14  N         22.4090  -22.1160  -11.1480 N.am    1  UNL1       -0.3520
     15  H         22.3130  -22.6960  -10.3260 H       1  UNL1        0.1630
     16  C         23.7500  -21.9500  -11.7120 C.3     1  UNL1        0.0840
     17  C         24.2060  -23.2540  -12.3820 C.3     1  UNL1        0.0250
     18  C         25.1510  -23.0130  -13.5600 C.3     1  UNL1        0.0020
     19  C         26.5560  -22.5520  -13.1880 C.3     1  UNL1        0.0000
     20  C         26.6240  -21.2950  -12.3210 C.3     1  UNL1        0.0000
     21  C         26.1960  -21.5510  -10.8800 C.3     1  UNL1        0.0020
     22  C         24.6960  -21.4520  -10.6130 C.3     1  UNL1        0.0250
     23  C         15.9380  -24.4290   -7.4620 C.3     1  UNL1        0.2000
     24  C         15.9020  -23.6630   -6.1880 C.2     1  UNL1        0.0700
     25  C         15.2420  -22.5180   -5.7890 C.2     1  UNL1        0.0360
     26  C         15.6230  -22.2850   -4.4460 C.2     1  UNL1        0.0270
     27  C         16.4880  -23.2990   -4.1120 C.2     1  UNL1        0.1420
     28  O         16.6620  -24.1420   -5.1620 O.2     1  UNL1       -0.3250
@<TRIPOS>BOND
     1    18    19    1
     2    18    17    1
     3    19    20    1
     4    13    12    2
     5    17    16    1
     6    20    21    1
     7    12     1    1
     8    12    14   am
     9     2     3    1
    10     2     1    2
    11    16    14    1
    12    16    22    1
    13     3     4    2
    14     1     6    1
    15    14    15    1
    16    21    22    1
    17     4     5    1
    18     4    10    1
    19     6     5    2
    20    11    10    2
    21     5     7    1
    22    10     9   am
    23     7     9   am
    24     7     8    2
    25     9    23    1
    26    23    24    1
    27    24    25    2
    28    24    28    1
    29    25    26    1
    30    28    27    1
    31    26    27    2
