@<TRIPOS>MOLECULE
83288_out_ligand_01.pdbqt
 30 32 0 0 0
SMALL
GASTEIGER

@<TRIPOS>ATOM
      1  C         22.1990  -22.3100  -11.4800 C.2     1  UNL1        0.0360
      2  C         21.8730  -21.4510  -12.5310 C.2     1  UNL1        0.0290
      3  C         22.7140  -21.3330  -13.6430 C.2     1  UNL1        0.0040
      4  C         23.8900  -22.0760  -13.7150 C.2     1  UNL1        0.0230
      5  C         24.2250  -22.9430  -12.6730 C.2     1  UNL1        0.0460
      6  C         25.4310  -23.7150  -12.7400 C.1     1  UNL1        0.0990
      7  N         26.4040  -24.3460  -12.7850 N.1     1  UNL1       -0.1910
      8  C         23.3810  -23.0590  -11.5600 C.2     1  UNL1        0.0520
      9  N         21.4000  -22.4880  -10.3300 N.am    1  UNL1       -0.3230
     10  C         21.7740  -22.2870   -9.0140 C.2     1  UNL1        0.2560
     11  O         22.8850  -21.9790   -8.5990 O.2     1  UNL1       -0.2670
     12  H         20.4770  -22.8710  -10.4890 H       1  UNL1        0.1690
     13  C         20.6930  -22.5140   -8.0150 C.2     1  UNL1        0.0320
     14  C         20.4280  -21.5060   -7.0760 C.2     1  UNL1        0.0180
     15  C         19.4210  -21.6780   -6.1250 C.2     1  UNL1        0.0260
     16  C         18.6670  -22.8550   -6.1320 C.2     1  UNL1        0.0800
     17  C         18.9170  -23.8640   -7.0690 C.2     1  UNL1        0.0260
     18  C         19.9290  -23.6900   -8.0160 C.2     1  UNL1        0.0180
     19  S         17.3790  -23.1070   -4.9250 S.O2    1  UNL1        0.2650
     20  O         17.2620  -24.5420   -4.7650 O.2     1  UNL1       -0.2000
     21  O         17.6630  -22.2500   -3.7920 O.2     1  UNL1       -0.2000
     22  N         16.0040  -22.5010   -5.7370 N.pl3   1  UNL1       -0.2720
     23  C         14.7520  -22.3260   -4.9480 C.3     1  UNL1        0.1370
     24  C         13.6890  -21.5000   -5.6520 C.3     1  UNL1        0.0280
     25  C         15.8460  -22.9030   -7.1120 C.2     1  UNL1        0.0450
     26  C         15.4800  -24.2280   -7.3700 C.2     1  UNL1        0.0300
     27  C         15.3930  -24.6920   -8.6830 C.2     1  UNL1        0.0020
     28  C         15.6940  -23.8410   -9.7440 C.2     1  UNL1        0.0000
     29  C         16.0900  -22.5280   -9.4920 C.2     1  UNL1        0.0020
     30  C         16.1770  -22.0620   -8.1790 C.2     1  UNL1        0.0300
@<TRIPOS>BOND
     1     4     3    2
     2     4     5    1
     3     3     2    1
     4     7     6    3
     5     6     5    1
     6     5     8    2
     7     2     1    2
     8     8     1    1
     9     1     9    1
    10    12     9    1
    11     9    10   am
    12    28    29    2
    13    28    27    1
    14    29    30    1
    15    10    11    2
    16    10    13    1
    17    27    26    2
    18    30    25    2
    19    18    13    2
    20    18    17    1
    21    13    14    1
    22    26    25    1
    23    25    22    1
    24    14    15    2
    25    17    16    2
    26    16    15    1
    27    16    19    1
    28    22    23    1
    29    22    19    1
    30    24    23    1
    31    19    20    2
    32    19    21    2
