@<TRIPOS>MOLECULE
83299_out_ligand_01.pdbqt
 36 39 0 0 0
SMALL
GASTEIGER

@<TRIPOS>ATOM
      1  C         19.0390  -23.1860   -9.3560 C.2     1  UNL1        0.0870
      2  C         20.0860  -22.7300  -10.1780 C.2     1  UNL1        0.0550
      3  C         21.3710  -23.2720  -10.0760 C.2     1  UNL1        0.0360
      4  C         21.6000  -24.2740   -9.1370 C.2     1  UNL1        0.0300
      5  C         20.5610  -24.7330   -8.3190 C.2     1  UNL1        0.0100
      6  C         19.2670  -24.1970   -8.4060 C.2     1  UNL1       -0.0390
      7  C         18.2070  -24.7850   -7.5170 C.3     1  UNL1        0.0500
      8  N         22.3590  -22.7620  -10.9430 N.am    1  UNL1       -0.3230
      9  C         23.3430  -21.8420  -10.6340 C.2     1  UNL1        0.2560
     10  O         23.5720  -21.3360   -9.5440 O.2     1  UNL1       -0.2670
     11  H         22.4000  -23.1890  -11.8600 H       1  UNL1        0.1690
     12  C         24.2300  -21.4790  -11.7710 C.2     1  UNL1        0.0340
     13  C         25.5100  -20.9950  -11.4910 C.2     1  UNL1        0.0180
     14  C         26.3690  -20.6470  -12.5360 C.2     1  UNL1        0.0220
     15  C         25.9440  -20.7500  -13.8640 C.2     1  UNL1        0.0270
     16  C         24.6480  -21.2070  -14.1410 C.2     1  UNL1        0.0520
     17  S         27.1170  -20.3850  -15.1520 S.3     1  UNL1       -0.1180
     18  C         23.7940  -21.5820  -13.0970 C.2     1  UNL1        0.0480
     19  N         24.1700  -21.3290  -15.4500 N.am    1  UNL1       -0.3250
     20  C         24.7660  -20.8470  -16.5850 C.2     1  UNL1        0.2310
     21  H         23.2890  -21.7970  -15.6190 H       1  UNL1        0.1690
     22  O         24.2340  -21.0690  -17.6750 O.2     1  UNL1       -0.2720
     23  C         25.9610  -19.9290  -16.4650 C.3     1  UNL1        0.1820
     24  S         17.4260  -22.4610   -9.6200 S.O2    1  UNL1        0.2630
     25  O         16.4320  -23.5040   -9.4900 O.2     1  UNL1       -0.2000
     26  O         17.4890  -21.6610  -10.8270 O.2     1  UNL1       -0.2000
     27  N         17.2370  -21.4380   -8.2900 N.pl3   1  UNL1       -0.2800
     28  H         16.8730  -20.5210   -8.5490 H       1  UNL1        0.1790
     29  C         16.8960  -21.9750   -7.0120 C.2     1  UNL1        0.0480
     30  C         15.6290  -22.5320   -6.8140 C.2     1  UNL1        0.0310
     31  C         15.2600  -23.0370   -5.5670 C.2     1  UNL1        0.0090
     32  C         16.1530  -22.9820   -4.4940 C.2     1  UNL1       -0.0610
     33  C         15.7790  -23.5400   -3.1550 C.3     1  UNL1        0.0480
     34  C         17.4340  -22.4550   -4.7030 C.2     1  UNL1        0.0150
     35  C         17.8260  -21.9610   -5.9590 C.2     1  UNL1       -0.0340
     36  C         19.2190  -21.4190   -6.1200 C.3     1  UNL1        0.0500
@<TRIPOS>BOND
     1    22    20    2
     2    20    23    1
     3    20    19   am
     4    23    17    1
     5    21    19    1
     6    19    16    1
     7    17    15    1
     8    16    15    2
     9    16    18    1
    10    15    14    1
    11    18    12    2
    12    14    13    2
    13    11     8    1
    14    12    13    1
    15    12     9    1
    16     8     9   am
    17     8     3    1
    18    26    24    2
    19     9    10    2
    20     2     3    1
    21     2     1    2
    22     3     4    2
    23    24    25    2
    24    24     1    1
    25    24    27    1
    26     1     6    1
    27     4     5    1
    28    28    27    1
    29     6     5    2
    30     6     7    1
    31    27    29    1
    32    29    30    2
    33    29    35    1
    34    30    31    1
    35    36    35    1
    36    35    34    2
    37    31    32    2
    38    34    32    1
    39    32    33    1
