@<TRIPOS>MOLECULE
83292_out_ligand_01.pdbqt
 35 38 0 0 0
SMALL
GASTEIGER

@<TRIPOS>ATOM
      1  C         20.3620  -22.4500  -10.6530 C.2     1  UNL1        0.0840
      2  C         21.0650  -21.7360  -11.6310 C.2     1  UNL1        0.0380
      3  C         22.4450  -21.8950  -11.7640 C.2     1  UNL1        0.0110
      4  C         23.1390  -22.7810  -10.9330 C.2     1  UNL1       -0.0390
      5  C         22.4200  -23.5270   -9.9850 C.2     1  UNL1        0.0280
      6  C         21.0290  -23.3770   -9.8360 C.2     1  UNL1        0.0650
      7  C         20.3600  -24.2250   -8.7990 C.2     1  UNL1        0.2540
      8  O         20.6780  -25.4030   -8.6700 O.2     1  UNL1       -0.2680
      9  N         19.3840  -23.6310   -8.0350 N.am    1  UNL1       -0.3540
     10  H         19.1470  -22.6650   -8.2290 H       1  UNL1        0.1620
     11  C         18.5630  -24.3560   -7.0840 C.3     1  UNL1        0.1640
     12  C         17.5950  -23.4460   -6.2420 C.3     1  UNL1        0.1740
     13  C         17.8630  -23.7380   -4.7260 C.3     1  UNL1        0.0430
     14  C         17.4700  -22.5670   -3.8320 C.3     1  UNL1        0.0030
     15  C         18.3480  -21.3470   -4.1140 C.3     1  UNL1        0.0000
     16  C         18.9470  -21.3530   -5.5210 C.3     1  UNL1        0.0030
     17  C         17.9720  -21.9470   -6.5330 C.3     1  UNL1        0.0430
     18  N         16.1470  -23.5620   -6.6260 N.3     1  UNL1        0.0910
     19  C         15.4600  -22.2870   -6.8360 C.3     1  UNL1        0.3100
     20  C         15.8180  -24.4980   -7.6960 C.3     1  UNL1        0.3100
     21  O         19.0040  -22.2740  -10.5740 O.2     1  UNL1       -0.3500
     22  C         18.4770  -21.6580  -11.7600 C.3     1  UNL1        0.1710
     23  C         17.3480  -20.7300  -11.3490 C.3     1  UNL1        0.0340
     24  C         24.6330  -22.9590  -11.0780 C.3     1  UNL1        0.1740
     25  N         25.1910  -22.0600  -12.0620 N.am    1  UNL1       -0.2760
     26  C         25.7140  -20.8320  -11.7670 C.2     1  UNL1        0.2620
     27  O         25.8220  -20.2780  -10.6900 O.2     1  UNL1       -0.2670
     28  C         26.1610  -20.2580  -13.0360 C.2     1  UNL1        0.0480
     29  C         26.7630  -19.0450  -13.3070 C.2     1  UNL1        0.0180
     30  C         25.8810  -21.1770  -14.0320 C.2     1  UNL1        0.0480
     31  C         27.0810  -18.7760  -14.6430 C.2     1  UNL1        0.0010
     32  C         26.7940  -19.7130  -15.6590 C.2     1  UNL1        0.0010
     33  C         26.1860  -20.9350  -15.3580 C.2     1  UNL1        0.0180
     34  C         25.2620  -22.3390  -13.3980 C.2     1  UNL1        0.2620
     35  O         24.9150  -23.3400  -13.9960 O.2     1  UNL1       -0.2670
@<TRIPOS>BOND
     1    32    33    2
     2    32    31    1
     3    33    30    1
     4    31    29    2
     5    30    34    1
     6    30    28    2
     7    35    34    2
     8    34    25   am
     9    29    28    1
    10    28    26    1
    11    25    26   am
    12    25    24    1
    13    26    27    2
    14     3     2    1
    15     3     4    2
    16    22    23    1
    17    22    21    1
    18     2     1    2
    19    24     4    1
    20     4     5    1
    21     1    21    1
    22     1     6    1
    23     5     6    2
    24     6     7    1
    25     7     8    2
    26     7     9   am
    27    10     9    1
    28     9    11    1
    29    20    18    1
    30    11    12    1
    31    19    18    1
    32    18    12    1
    33    17    12    1
    34    17    16    1
    35    12    13    1
    36    16    15    1
    37    13    14    1
    38    15    14    1
