@<TRIPOS>MOLECULE
83296_out_ligand_01.pdbqt
 34 38 0 0 0
SMALL
GASTEIGER

@<TRIPOS>ATOM
      1  C         19.6900  -21.9700  -10.9410 C.2     1  UNL1        0.0320
      2  C         20.5440  -22.8070  -10.2110 C.2     1  UNL1        0.0190
      3  C         21.8880  -22.9500  -10.5710 C.2     1  UNL1        0.0300
      4  C         22.4070  -22.2580  -11.6700 C.2     1  UNL1        0.0340
      5  C         21.5590  -21.4310  -12.4060 C.2     1  UNL1        0.0300
      6  C         20.2110  -21.2830  -12.0450 C.2     1  UNL1        0.0190
      7  C         18.2790  -21.8320  -10.4660 C.2     1  UNL1        0.2520
      8  N         17.9510  -22.3950   -9.2450 N.am    1  UNL1       -0.3520
      9  H         18.6350  -22.9350   -8.7400 H       1  UNL1        0.1630
     10  O         17.4590  -21.2450  -11.1650 O.2     1  UNL1       -0.2680
     11  C         16.5650  -22.4500   -8.7750 C.3     1  UNL1        0.0890
     12  C         15.7900  -23.4410   -9.6520 C.3     1  UNL1        0.0330
     13  C         16.4760  -22.7350   -7.2390 C.3     1  UNL1       -0.0190
     14  C         16.5400  -24.2680   -6.9760 C.3     1  UNL1        0.0160
     15  C         16.4990  -24.5790   -5.4710 C.3     1  UNL1       -0.0130
     16  C         17.7000  -23.9150   -4.7830 C.3     1  UNL1        0.0090
     17  C         15.1970  -24.0210   -4.8770 C.3     1  UNL1        0.0090
     18  C         17.6470  -22.3960   -4.9920 C.3     1  UNL1       -0.0130
     19  C         16.3420  -21.8450   -4.3970 C.3     1  UNL1        0.0090
     20  C         17.6830  -22.0860   -6.4990 C.3     1  UNL1        0.0160
     21  C         15.1340  -22.5000   -5.0850 C.3     1  UNL1       -0.0130
     22  C         15.1740  -22.1880   -6.5930 C.3     1  UNL1        0.0160
     23  N         23.7790  -22.4160  -11.9420 N.am    1  UNL1       -0.3270
     24  C         24.8420  -21.8340  -11.2740 C.2     1  UNL1        0.2310
     25  O         24.7620  -20.9760  -10.4000 O.2     1  UNL1       -0.2720
     26  H         24.0050  -22.9120  -12.8070 H       1  UNL1        0.1690
     27  C         26.1960  -22.3620  -11.7280 C.3     1  UNL1        0.1850
     28  S         26.4740  -22.0280  -13.4890 S.3     1  UNL1       -0.0800
     29  C         25.8910  -23.4830  -14.2050 C.ar    1  UNL1        0.1980
     30  N         25.5550  -24.5940  -13.5860 N.ar    1  UNL1       -0.1350
     31  N         25.1610  -25.4670  -14.5710 N.ar    1  UNL1        0.0180
     32  N         25.2460  -24.9030  -15.7710 N.ar    1  UNL1       -0.0030
     33  N         25.6890  -23.6530  -15.5430 N.ar    1  UNL1       -0.2590
     34  C         25.9020  -22.7410  -16.6300 C.3     1  UNL1        0.1770
@<TRIPOS>BOND
     1    34    33    1
     2    32    33   ar
     3    32    31   ar
     4    33    29   ar
     5    31    30   ar
     6    29    30   ar
     7    29    28    1
     8    28    27    1
     9    26    23    1
    10     5     6    1
    11     5     4    2
    12     6     1    2
    13    23     4    1
    14    23    24   am
    15    27    24    1
    16     4     3    1
    17    24    25    2
    18    10     7    2
    19     1     7    1
    20     1     2    1
    21     3     2    2
    22     7     8   am
    23    12    11    1
    24     8    11    1
    25     8     9    1
    26    11    13    1
    27    13    14    1
    28    13    22    1
    29    13    20    1
    30    14    15    1
    31    22    21    1
    32    20    18    1
    33    15    17    1
    34    15    16    1
    35    21    17    1
    36    21    19    1
    37    18    16    1
    38    18    19    1
