@<TRIPOS>MOLECULE
83290_out_ligand_01.pdbqt
 34 38 0 0 0
SMALL
GASTEIGER

@<TRIPOS>ATOM
      1  C         19.4480  -22.2980  -10.2880 C.2     1  UNL1        0.0320
      2  C         18.0690  -22.0410  -10.2870 C.2     1  UNL1        0.0180
      3  C         17.2400  -22.6830   -9.3640 C.2     1  UNL1        0.0260
      4  C         17.7950  -23.5760   -8.4390 C.2     1  UNL1        0.0800
      5  C         19.1710  -23.8170   -8.4120 C.2     1  UNL1        0.0260
      6  C         19.9960  -23.1740   -9.3380 C.2     1  UNL1        0.0180
      7  C         20.3740  -21.6320  -11.2500 C.2     1  UNL1        0.2560
      8  O         19.9830  -20.6260  -11.8290 O.2     1  UNL1       -0.2670
      9  N         21.6240  -22.2160  -11.3600 N.am    1  UNL1       -0.3230
     10  H         21.8430  -22.9630  -10.7150 H       1  UNL1        0.1690
     11  C         22.6770  -21.8260  -12.2150 C.2     1  UNL1        0.0350
     12  C         24.0300  -21.9310  -11.8850 C.2     1  UNL1        0.0320
     13  C         25.0230  -21.5180  -12.7840 C.2     1  UNL1        0.0330
     14  C         24.6680  -20.9900  -14.0300 C.2     1  UNL1        0.0550
     15  C         23.3120  -20.8780  -14.3640 C.2     1  UNL1        0.0330
     16  C         22.3280  -21.2930  -13.4600 C.2     1  UNL1        0.0320
     17  N         25.6530  -20.5680  -14.9540 N.pl3   1  UNL1       -0.2340
     18  C         26.2330  -19.3350  -15.1130 C.2     1  UNL1        0.2490
     19  N         27.1040  -19.3860  -16.0940 N.2     1  UNL1       -0.1560
     20  N         27.0660  -20.6740  -16.5570 N.2     1  UNL1        0.0170
     21  N         26.1930  -21.4000  -15.8750 N.2     1  UNL1        0.0020
     22  S         16.7160  -24.3720   -7.2590 S.O2    1  UNL1        0.2650
     23  O         15.6380  -24.9900   -8.0040 O.2     1  UNL1       -0.2000
     24  O         17.5890  -25.1590   -6.4140 O.2     1  UNL1       -0.2000
     25  N         16.0810  -23.0170   -6.3950 N.pl3   1  UNL1       -0.2710
     26  C         14.7330  -23.2230   -5.7910 C.3     1  UNL1        0.1420
     27  C         14.8410  -23.7870   -4.3840 C.3     1  UNL1        0.0260
     28  C         15.6080  -22.8280   -3.4890 C.3     1  UNL1        0.0420
     29  C         16.8420  -22.2720   -4.1490 C.2     1  UNL1       -0.0310
     30  C         17.7860  -21.6070   -3.3490 C.2     1  UNL1        0.0090
     31  C         17.0330  -22.3320   -5.5400 C.2     1  UNL1        0.0510
     32  C         18.9060  -21.0060   -3.9210 C.2     1  UNL1        0.0010
     33  C         19.0840  -21.0490   -5.2990 C.2     1  UNL1        0.0020
     34  C         18.1480  -21.7020   -6.1040 C.2     1  UNL1        0.0310
@<TRIPOS>BOND
     1    20    19    1
     2    20    21    2
     3    19    18    2
     4    21    17    1
     5    18    17    1
     6    17    14    1
     7    15    14    2
     8    15    16    1
     9    14    13    1
    10    16    11    2
    11    13    12    2
    12    11    12    1
    13    11     9    1
    14     8     7    2
    15     9     7   am
    16     9    10    1
    17     7     1    1
    18     1     2    2
    19     1     6    1
    20     2     3    1
    21     3     4    2
    22     6     5    2
    23     4     5    1
    24     4    22    1
    25    23    22    2
    26    22    24    2
    27    22    25    1
    28    25    26    1
    29    25    31    1
    30    34    31    1
    31    34    33    2
    32    26    27    1
    33    31    29    2
    34    33    32    1
    35    27    28    1
    36    29    28    1
    37    29    30    1
    38    32    30    2
