@<TRIPOS>MOLECULE
832_out_ligand_01.pdbqt
 41 45 0 0 0
SMALL
GASTEIGER

@<TRIPOS>ATOM
      1  C         20.4180  -21.6760  -10.9270 C.2     1  UNL1        0.2560
      2  O         20.7440  -20.6920  -11.5790 O.2     1  UNL1       -0.2670
      3  N         21.2370  -22.7080  -10.5050 N.am    1  UNL1       -0.3230
      4  H         20.7880  -23.4960  -10.0570 H       1  UNL1        0.1690
      5  C         18.9860  -21.8180  -10.5440 C.2     1  UNL1        0.0330
      6  C         17.9710  -21.1550  -11.2520 C.2     1  UNL1        0.0170
      7  C         16.6360  -21.3080  -10.8720 C.2     1  UNL1        0.0030
      8  C         16.3060  -22.1370   -9.7980 C.2     1  UNL1        0.0250
      9  C         17.3160  -22.8290   -9.1190 C.2     1  UNL1        0.0760
     10  C         18.6570  -22.6620   -9.4780 C.2     1  UNL1        0.0410
     11  S         16.8970  -23.8690   -7.7280 S.O2    1  UNL1        0.2480
     12  O         18.1420  -24.4240   -7.2290 O.2     1  UNL1       -0.2050
     13  O         15.8290  -24.7480   -8.1610 O.2     1  UNL1       -0.2050
     14  N         16.3170  -22.7730   -6.5650 N.pl3   1  UNL1       -0.1670
     15  C         17.2520  -22.1990   -5.6490 C.2     1  UNL1        0.0320
     16  C         18.4140  -21.5060   -5.9450 C.2     1  UNL1        0.0250
     17  C         16.8150  -22.3570   -4.3360 C.2     1  UNL1       -0.0340
     18  C         19.1730  -21.0100   -4.8820 C.2     1  UNL1        0.0020
     19  C         18.7530  -21.1970   -3.5560 C.2     1  UNL1        0.0010
     20  C         17.5630  -21.8720   -3.2740 C.2     1  UNL1        0.0090
     21  C         15.5380  -23.1320   -4.2790 C.3     1  UNL1        0.0610
     22  C         15.1110  -23.1910   -5.7680 C.3     1  UNL1        0.0800
     23  C         13.9740  -22.2180   -6.0730 C.3     1  UNL1        0.0280
     24  C         22.6290  -22.8320  -10.7060 C.2     1  UNL1        0.0360
     25  C         23.5590  -22.9910   -9.6740 C.2     1  UNL1        0.0290
     26  C         24.9270  -23.0970   -9.9500 C.2     1  UNL1        0.0040
     27  C         25.3820  -23.0570  -11.2650 C.2     1  UNL1        0.0250
     28  C         24.4550  -22.9230  -12.3000 C.2     1  UNL1        0.0820
     29  C         23.0880  -22.7930  -12.0270 C.2     1  UNL1        0.0540
     30  S         25.0230  -22.8830  -13.9830 S.O2    1  UNL1        0.2630
     31  O         25.2360  -24.2490  -14.4120 O.2     1  UNL1       -0.2000
     32  O         24.1500  -21.9930  -14.7160 O.2     1  UNL1       -0.2000
     33  N         26.5190  -22.0990  -13.8670 N.pl3   1  UNL1       -0.2790
     34  H         27.2870  -22.7660  -13.9710 H       1  UNL1        0.1790
     35  C         26.6910  -20.8410  -14.5340 C.2     1  UNL1        0.0640
     36  C         26.9210  -20.8060  -15.9110 C.2     1  UNL1        0.0320
     37  C         27.1210  -19.5860  -16.5580 C.2     1  UNL1        0.0020
     38  C         27.0890  -18.3940  -15.8340 C.2     1  UNL1        0.0020
     39  C         26.8530  -18.4200  -14.4590 C.2     1  UNL1        0.0260
     40  C         26.6510  -19.6390  -13.8100 C.2     1  UNL1        0.0610
     41 CL         26.3460  -19.6310  -12.1100 Cl      1  UNL1       -0.0820
@<TRIPOS>BOND
     1    37    36    1
     2    37    38    2
     3    36    35    2
     4    38    39    1
     5    32    30    2
     6    35    33    1
     7    35    40    1
     8    39    40    2
     9    31    30    2
    10    30    33    1
    11    30    28    1
    12    34    33    1
    13    40    41    1
    14    28    29    1
    15    28    27    2
    16    29    24    2
    17     2     1    2
    18    27    26    1
    19     6     7    1
    20     6     5    2
    21     1     5    1
    22     1     3   am
    23     7     8    2
    24    24     3    1
    25    24    25    1
    26     5    10    1
    27     3     4    1
    28    26    25    2
    29     8     9    1
    30    10     9    2
    31     9    11    1
    32    13    11    2
    33    11    12    2
    34    11    14    1
    35    14    22    1
    36    14    15    1
    37    23    22    1
    38    16    15    2
    39    16    18    1
    40    22    21    1
    41    15    17    1
    42    18    19    2
    43    17    21    1
    44    17    20    2
    45    19    20    1
