@<TRIPOS>MOLECULE
83308_out_ligand_01.pdbqt
 30 33 0 0 0
SMALL
GASTEIGER

@<TRIPOS>ATOM
      1  N         26.6560  -25.1420  -14.4210 N.1     1  UNL1       -0.1910
      2  C         26.3040  -24.3180  -13.6840 C.1     1  UNL1        0.0990
      3  C         25.8520  -23.3070  -12.7750 C.2     1  UNL1        0.0460
      4  C         26.7490  -22.3590  -12.2790 C.2     1  UNL1        0.0230
      5  C         26.2980  -21.3780  -11.3970 C.2     1  UNL1        0.0040
      6  C         24.9550  -21.3420  -11.0100 C.2     1  UNL1        0.0290
      7  C         24.0480  -22.2860  -11.4970 C.2     1  UNL1        0.0360
      8  C         24.5060  -23.2680  -12.3850 C.2     1  UNL1        0.0520
      9  N         22.6770  -22.3120  -11.1570 N.am    1  UNL1       -0.3230
     10  C         21.6350  -21.7210  -11.8480 C.2     1  UNL1        0.2560
     11  O         21.7170  -21.0150  -12.8450 O.2     1  UNL1       -0.2670
     12  H         22.4520  -22.7550  -10.2760 H       1  UNL1        0.1690
     13  C         20.2820  -21.9570  -11.2720 C.2     1  UNL1        0.0330
     14  C         19.1460  -21.2540  -11.7490 C.2     1  UNL1        0.0180
     15  C         17.8810  -21.4750  -11.1900 C.2     1  UNL1        0.0190
     16  C         17.7950  -22.3920  -10.1600 C.2     1  UNL1        0.0480
     17  C         18.9040  -23.0680   -9.6840 C.2     1  UNL1        0.0490
     18  C         16.6390  -22.8320   -9.3810 C.2     1  UNL1        0.2620
     19  C         20.1650  -22.8700  -10.2130 C.2     1  UNL1        0.0350
     20  C         18.4560  -23.9410   -8.6010 C.2     1  UNL1        0.2620
     21  O         19.1870  -24.6880   -7.9790 O.2     1  UNL1       -0.2670
     22  N         17.1090  -23.7420   -8.4770 N.am    1  UNL1       -0.2760
     23  O         15.5050  -22.4330   -9.5630 O.2     1  UNL1       -0.2670
     24  C         16.2870  -24.3880   -7.4790 C.3     1  UNL1        0.1740
     25  C         16.2410  -23.5870   -6.1990 C.2     1  UNL1       -0.0400
     26  C         17.3860  -23.4590   -5.3990 C.2     1  UNL1        0.0090
     27  C         17.3360  -22.7400   -4.2040 C.2     1  UNL1        0.0010
     28  C         16.1420  -22.1490   -3.7930 C.2     1  UNL1        0.0000
     29  C         14.9950  -22.2810   -4.5740 C.2     1  UNL1        0.0010
     30  C         15.0430  -22.9990   -5.7700 C.2     1  UNL1        0.0090
@<TRIPOS>BOND
     1     1     2    3
     2     2     3    1
     3    11    10    2
     4     3     8    2
     5     3     4    1
     6     8     7    1
     7     4     5    2
     8    10    13    1
     9    10     9   am
    10    14    13    2
    11    14    15    1
    12     7     9    1
    13     7     6    2
    14     5     6    1
    15    13    19    1
    16    15    16    2
    17     9    12    1
    18    19    17    2
    19    16    17    1
    20    16    18    1
    21    17    20    1
    22    23    18    2
    23    18    22   am
    24    20    22   am
    25    20    21    2
    26    22    24    1
    27    24    25    1
    28    25    30    2
    29    25    26    1
    30    30    29    1
    31    26    27    2
    32    29    28    2
    33    27    28    1
