@<TRIPOS>MOLECULE
83328_out_ligand_01.pdbqt
 34 38 0 0 0
SMALL
GASTEIGER

@<TRIPOS>ATOM
      1  C         19.0580  -22.7830   -9.6750 C.2     1  UNL1        0.0490
      2  C         18.1460  -22.5820  -10.7250 C.2     1  UNL1        0.0180
      3  C         18.4850  -21.7550  -11.7910 C.2     1  UNL1        0.0010
      4  C         19.7300  -21.1250  -11.8090 C.2     1  UNL1        0.0010
      5  C         20.6360  -21.3220  -10.7590 C.2     1  UNL1        0.0190
      6  C         20.3050  -22.1370   -9.6620 C.2     1  UNL1        0.0160
      7  S         21.4890  -22.3470   -8.3350 S.3     1  UNL1       -0.1200
      8  C         22.7800  -23.3460   -9.1500 C.3     1  UNL1        0.1820
      9  C         23.5740  -22.5210  -10.1480 C.2     1  UNL1        0.2270
     10  O         23.9720  -21.3910   -9.8850 O.2     1  UNL1       -0.2730
     11  N         23.8190  -23.1820  -11.3390 N.am    1  UNL1       -0.3510
     12  H         23.2050  -23.9590  -11.5410 H       1  UNL1        0.1630
     13  C         24.4570  -22.5740  -12.5120 C.3     1  UNL1        0.0340
     14  C         24.9020  -23.7260  -13.4580 C.3     1  UNL1        0.0350
     15  C         25.5710  -23.1730  -14.7260 C.3     1  UNL1       -0.0120
     16  C         26.8060  -22.3520  -14.3250 C.3     1  UNL1        0.0090
     17  C         24.5730  -22.2680  -15.4670 C.3     1  UNL1        0.0090
     18  C         26.3890  -21.1910  -13.4100 C.3     1  UNL1       -0.0120
     19  C         25.3860  -20.2930  -14.1560 C.3     1  UNL1        0.0090
     20  C         25.7180  -21.7550  -12.1440 C.3     1  UNL1        0.0350
     21  C         24.1420  -21.1040  -14.5580 C.3     1  UNL1       -0.0120
     22  C         23.4730  -21.6670  -13.2910 C.3     1  UNL1        0.0350
     23  C         18.6120  -23.6760   -8.5860 C.2     1  UNL1        0.2550
     24  N         17.3530  -23.4810   -8.0310 N.am    1  UNL1       -0.3480
     25  C         16.4350  -22.4060   -8.3940 C.3     1  UNL1        0.1530
     26  O         19.4180  -24.5170   -8.1950 O.2     1  UNL1       -0.2670
     27  C         16.8920  -24.4230   -7.0120 C.3     1  UNL1        0.1670
     28  C         16.6760  -23.7720   -5.6710 C.2     1  UNL1       -0.0020
     29  C         17.7500  -23.2260   -4.9500 C.2     1  UNL1        0.0120
     30  C         17.5390  -22.6390   -3.6960 C.2     1  UNL1        0.0010
     31  C         16.2550  -22.5860   -3.1530 C.2     1  UNL1        0.0030
     32  C         15.1810  -23.1140   -3.8670 C.2     1  UNL1        0.0430
     33  C         15.3970  -23.6970   -5.1140 C.2     1  UNL1        0.1240
     34  F         14.3410  -24.1820   -5.7840 F       1  UNL1       -0.2050
@<TRIPOS>BOND
     1    17    15    1
     2    17    21    1
     3    15    16    1
     4    15    14    1
     5    21    19    1
     6    21    22    1
     7    16    18    1
     8    19    18    1
     9    14    13    1
    10    18    20    1
    11    22    13    1
    12    13    20    1
    13    13    11    1
    14     4     3    2
    15     4     5    1
    16     3     2    1
    17    12    11    1
    18    11     9   am
    19     5     6    2
    20     2     1    2
    21     9    10    2
    22     9     8    1
    23     1     6    1
    24     1    23    1
    25     6     7    1
    26     8     7    1
    27    23    26    2
    28    23    24   am
    29    25    24    1
    30    24    27    1
    31    27    28    1
    32    34    33    1
    33    28    33    2
    34    28    29    1
    35    33    32    1
    36    29    30    2
    37    32    31    2
    38    30    31    1
