@<TRIPOS>MOLECULE
83327_out_ligand_01.pdbqt
 34 37 0 0 0
SMALL
GASTEIGER

@<TRIPOS>ATOM
      1  C         19.7010  -21.9100  -10.9460 C.2     1  UNL1        0.0330
      2  C         18.5490  -21.3380  -11.5420 C.2     1  UNL1        0.0180
      3  C         17.2710  -21.6270  -11.0480 C.2     1  UNL1        0.0190
      4  C         17.1890  -22.4780   -9.9630 C.2     1  UNL1        0.0480
      5  C         18.3130  -23.0240   -9.3710 C.2     1  UNL1        0.0490
      6  C         19.5870  -22.7570   -9.8340 C.2     1  UNL1        0.0350
      7  C         17.8640  -23.8570   -8.2580 C.2     1  UNL1        0.2620
      8  O         18.6070  -24.4780   -7.5230 O.2     1  UNL1       -0.2670
      9  N         16.4990  -23.7760   -8.2400 N.am    1  UNL1       -0.2740
     10  C         16.0220  -22.9580   -9.2250 C.2     1  UNL1        0.2620
     11  O         14.8800  -22.6300   -9.4840 O.2     1  UNL1       -0.2670
     12  C         21.0680  -21.6000  -11.4510 C.2     1  UNL1        0.2560
     13  N         22.0050  -22.5970  -11.2560 N.am    1  UNL1       -0.3220
     14  H         21.6880  -23.4400  -10.7980 H       1  UNL1        0.1690
     15  O         21.2420  -20.5120  -11.9850 O.2     1  UNL1       -0.2670
     16  C         23.3750  -22.5710  -11.6160 C.2     1  UNL1        0.0420
     17  C         23.7990  -22.2310  -12.9040 C.2     1  UNL1        0.0550
     18  C         25.1590  -22.2530  -13.2330 C.2     1  UNL1        0.0810
     19  C         26.1180  -22.5710  -12.2750 C.2     1  UNL1        0.0260
     20  C         25.7080  -22.8860  -10.9810 C.2     1  UNL1        0.0100
     21  C         24.3440  -22.8920  -10.6370 C.2     1  UNL1       -0.0350
     22  C         23.9730  -23.2490   -9.2210 C.3     1  UNL1        0.0500
     23  S         25.6670  -21.7960  -14.8780 S.O2    1  UNL1        0.2600
     24  O         25.0070  -20.5510  -15.2070 O.2     1  UNL1       -0.2000
     25  O         27.1120  -21.9040  -14.9260 O.2     1  UNL1       -0.2000
     26  N         25.0230  -23.0360  -15.8500 N.3     1  UNL1       -0.3150
     27  C         25.3240  -24.4250  -15.4610 C.3     1  UNL1        0.1620
     28  C         25.0540  -22.8180  -17.3060 C.3     1  UNL1        0.1620
     29  C         15.6620  -24.4910   -7.3030 C.3     1  UNL1        0.2000
     30  C         15.5330  -23.6910   -6.0560 C.2     1  UNL1        0.0700
     31  C         14.8770  -22.5150   -5.7490 C.2     1  UNL1        0.0360
     32  C         15.1360  -22.2590   -4.3820 C.2     1  UNL1        0.0270
     33  C         15.9310  -23.2910   -3.9420 C.2     1  UNL1        0.1420
     34  O         16.1770  -24.1650   -4.9510 O.2     1  UNL1       -0.3250
@<TRIPOS>BOND
     1    28    26    1
     2    26    27    1
     3    26    23    1
     4    24    23    2
     5    25    23    2
     6    23    18    1
     7    18    17    1
     8    18    19    2
     9    17    16    2
    10    19    20    1
    11    15    12    2
    12    16    13    1
    13    16    21    1
    14     2     3    1
    15     2     1    2
    16    12    13   am
    17    12     1    1
    18    13    14    1
    19     3     4    2
    20    20    21    2
    21     1     6    1
    22    21    22    1
    23     4     5    1
    24     4    10    1
    25     6     5    2
    26    11    10    2
    27     5     7    1
    28    10     9   am
    29     7     9   am
    30     7     8    2
    31     9    29    1
    32    29    30    1
    33    30    31    2
    34    30    34    1
    35    31    32    1
    36    34    33    1
    37    32    33    2
