@<TRIPOS>MOLECULE
83326_out_ligand_01.pdbqt
 36 39 0 0 0
SMALL
GASTEIGER

@<TRIPOS>ATOM
      1  C         21.5410  -22.0930  -11.2420 C.2     1  UNL1        0.0360
      2  C         21.1420  -21.0520  -12.0830 C.2     1  UNL1        0.0300
      3  C         19.8060  -20.6420  -12.1330 C.2     1  UNL1        0.0100
      4  C         18.8260  -21.2620  -11.3410 C.2     1  UNL1       -0.0390
      5  C         17.4120  -20.7630  -11.4470 C.3     1  UNL1        0.0500
      6  C         19.2310  -22.3070  -10.4950 C.2     1  UNL1        0.0870
      7  C         20.5790  -22.7210  -10.4560 C.2     1  UNL1        0.0550
      8  N         22.9090  -22.4320  -11.2470 N.am    1  UNL1       -0.3270
      9  C         23.9060  -21.9560  -10.4110 C.2     1  UNL1        0.2260
     10  O         23.7650  -21.1090   -9.5320 O.2     1  UNL1       -0.2730
     11  H         23.1830  -23.1310  -11.9270 H       1  UNL1        0.1690
     12  C         25.2930  -22.5130  -10.7160 C.3     1  UNL1        0.1440
     13  C         25.8860  -21.9770  -11.9750 C.2     1  UNL1       -0.0140
     14  C         25.7300  -22.4910  -13.3000 C.2     1  UNL1        0.0060
     15  C         25.0440  -23.5670  -13.8890 C.2     1  UNL1        0.0170
     16  C         26.4860  -21.6660  -14.1230 C.2     1  UNL1        0.0880
     17  C         25.1570  -23.7550  -15.2750 C.2     1  UNL1        0.0380
     18  C         25.9290  -22.9020  -16.0730 C.2     1  UNL1        0.0700
     19  C         26.6170  -21.8280  -15.5030 C.2     1  UNL1        0.0740
     20  O         27.0800  -20.6870  -13.3900 O.2     1  UNL1       -0.3210
     21  C         26.7120  -20.8760  -12.0980 C.2     1  UNL1        0.1510
     22  O         25.9320  -23.2300  -17.4050 O.2     1  UNL1       -0.3560
     23  C         24.7710  -22.8870  -18.1530 C.3     1  UNL1        0.2100
     24  S         18.1200  -23.1930   -9.4110 S.O2    1  UNL1        0.2630
     25  O         16.9740  -23.6880  -10.1410 O.2     1  UNL1       -0.2000
     26  O         18.9340  -24.0990   -8.6270 O.2     1  UNL1       -0.2000
     27  N         17.6080  -21.9830   -8.3440 N.pl3   1  UNL1       -0.2800
     28  H         18.1830  -21.1470   -8.4360 H       1  UNL1        0.1790
     29  C         17.1890  -22.3680   -7.0390 C.2     1  UNL1        0.0480
     30  C         15.9480  -22.9920   -6.8900 C.2     1  UNL1        0.0310
     31  C         15.5220  -23.4200   -5.6320 C.2     1  UNL1        0.0090
     32  C         16.3400  -23.2440   -4.5130 C.2     1  UNL1       -0.0610
     33  C         15.8730  -23.6740   -3.1550 C.3     1  UNL1        0.0480
     34  C         17.5800  -22.6090   -4.6690 C.2     1  UNL1        0.0150
     35  C         18.0220  -22.1730   -5.9290 C.2     1  UNL1       -0.0340
     36  C         19.3690  -21.5190   -6.0530 C.3     1  UNL1        0.0500
@<TRIPOS>BOND
     1    23    22    1
     2    22    18    1
     3    18    19    2
     4    18    17    1
     5    19    16    1
     6    17    15    2
     7    16    20    1
     8    16    14    2
     9    15    14    1
    10    20    21    1
    11    14    13    1
    12     3     2    1
    13     3     4    2
    14    21    13    2
    15     2     1    2
    16    13    12    1
    17    11     8    1
    18     5     4    1
    19     4     6    1
    20     8     1    1
    21     8     9   am
    22     1     7    1
    23    12     9    1
    24     6     7    2
    25     6    24    1
    26     9    10    2
    27    25    24    2
    28    24    26    2
    29    24    27    1
    30    28    27    1
    31    27    29    1
    32    29    30    2
    33    29    35    1
    34    30    31    1
    35    36    35    1
    36    35    34    2
    37    31    32    2
    38    34    32    1
    39    32    33    1
