@<TRIPOS>MOLECULE
83336_out_ligand_01.pdbqt
 34 36 0 0 0
SMALL
GASTEIGER

@<TRIPOS>ATOM
      1  C         23.0970  -22.8310  -11.3310 C.2     1  UNL1        0.0360
      2  C         22.4600  -22.1100  -12.3390 C.2     1  UNL1        0.0300
      3  C         21.1450  -21.6580  -12.1710 C.2     1  UNL1        0.0100
      4  C         20.4350  -21.9010  -10.9870 C.2     1  UNL1       -0.0390
      5  C         19.0210  -21.4000  -10.8940 C.3     1  UNL1        0.0500
      6  C         21.0840  -22.6240   -9.9690 C.2     1  UNL1        0.0870
      7  C         22.4000  -23.0900  -10.1490 C.2     1  UNL1        0.0550
      8  N         24.4110  -23.3250  -11.4250 N.am    1  UNL1       -0.3250
      9  C         25.5950  -22.6230  -11.2830 C.2     1  UNL1        0.2510
     10  O         25.7140  -21.4290  -11.0210 O.2     1  UNL1       -0.2700
     11  H         24.5160  -24.2990  -11.6970 H       1  UNL1        0.1690
     12  C         26.8400  -23.5190  -11.4320 C.3     1  UNL1        0.2170
     13  C         26.9710  -24.3600  -10.1660 C.3     1  UNL1        0.0500
     14  O         26.7580  -24.4350  -12.5230 O.2     1  UNL1       -0.3370
     15  C         26.4930  -23.9410  -13.7700 C.2     1  UNL1        0.0700
     16  C         27.1210  -22.8560  -14.3810 C.2     1  UNL1        0.0370
     17  C         26.7270  -22.4430  -15.6570 C.2     1  UNL1        0.0090
     18  C         25.6970  -23.1030  -16.3350 C.2     1  UNL1       -0.0620
     19  C         25.2910  -22.6780  -17.7130 C.3     1  UNL1        0.0480
     20  C         25.0780  -24.1990  -15.7240 C.2     1  UNL1        0.0090
     21  C         25.4710  -24.6080  -14.4480 C.2     1  UNL1        0.0370
     22  S         20.2840  -23.0260   -8.4200 S.O2    1  UNL1        0.2630
     23  O         20.9850  -22.3290   -7.3600 O.2     1  UNL1       -0.2000
     24  O         20.1070  -24.4620   -8.3530 O.2     1  UNL1       -0.2000
     25  N         18.7440  -22.3620   -8.6000 N.pl3   1  UNL1       -0.2800
     26  H         18.7320  -21.5520   -9.2140 H       1  UNL1        0.1790
     27  C         17.8000  -22.4310   -7.5340 C.2     1  UNL1        0.0480
     28  C         18.2400  -22.2800   -6.2170 C.2     1  UNL1        0.0310
     29  C         17.3370  -22.3250   -5.1540 C.2     1  UNL1        0.0090
     30  C         15.9740  -22.5210   -5.3950 C.2     1  UNL1       -0.0610
     31  C         15.0110  -22.5650   -4.2470 C.3     1  UNL1        0.0480
     32  C         15.5380  -22.6990   -6.7140 C.2     1  UNL1        0.0150
     33  C         16.4390  -22.6660   -7.7940 C.2     1  UNL1       -0.0340
     34  C         15.9090  -22.8670   -9.1840 C.3     1  UNL1        0.0500
@<TRIPOS>BOND
     1    19    18    1
     2    18    20    2
     3    18    17    1
     4    20    21    1
     5    17    16    2
     6    21    15    2
     7    16    15    1
     8    15    14    1
     9    14    12    1
    10     2     3    1
    11     2     1    2
    12     3     4    2
    13    11     8    1
    14    12     9    1
    15    12    13    1
    16     8     1    1
    17     8     9   am
    18     1     7    1
    19     9    10    2
    20     4     5    1
    21     4     6    1
    22     7     6    2
    23     6    22    1
    24    26    25    1
    25    34    33    1
    26    25    22    1
    27    25    27    1
    28    22    24    2
    29    22    23    2
    30    33    27    2
    31    33    32    1
    32    27    28    1
    33    32    30    2
    34    28    29    2
    35    30    29    1
    36    30    31    1
