@<TRIPOS>MOLECULE
83345_out_ligand_01.pdbqt
 30 33 0 0 0
SMALL
GASTEIGER

@<TRIPOS>ATOM
      1  C         17.0600  -22.7630   -7.5370 C.2     1  UNL1        0.0120
      2  C         15.8850  -22.7310   -8.2960 C.2     1  UNL1        0.0150
      3  C         15.9620  -22.6800   -9.6860 C.2     1  UNL1        0.0030
      4  C         17.2100  -22.6600  -10.3150 C.2     1  UNL1        0.0290
      5  C         18.3930  -22.6920   -9.5660 C.2     1  UNL1        0.0350
      6  C         18.3110  -22.7550   -8.1730 C.2     1  UNL1        0.0440
      7  N         19.6080  -22.6750  -10.2860 N.am    1  UNL1       -0.3230
      8  C         20.1000  -21.6460  -11.0710 C.2     1  UNL1        0.2560
      9  O         19.5220  -20.6060  -11.3580 O.2     1  UNL1       -0.2670
     10  H         20.1310  -23.5400  -10.2820 H       1  UNL1        0.1690
     11  C         21.4490  -21.8900  -11.6600 C.2     1  UNL1        0.0350
     12  C         22.3320  -22.7380  -10.9780 C.2     1  UNL1        0.0200
     13  C         23.5970  -23.0080  -11.5070 C.2     1  UNL1        0.0400
     14  C         23.9930  -22.4170  -12.7070 C.2     1  UNL1        0.1020
     15  C         23.1110  -21.5810  -13.3960 C.2     1  UNL1        0.1030
     16  O         25.2100  -22.7990  -13.1990 O.2     1  UNL1       -0.3480
     17  C         21.8330  -21.3340  -12.8880 C.2     1  UNL1        0.0560
     18  O         23.3790  -21.0570  -14.6320 O.2     1  UNL1       -0.3480
     19  C         24.5180  -20.1960  -14.6280 C.3     1  UNL1        0.1780
     20  C         25.8250  -20.9700  -14.6970 C.3     1  UNL1        0.0530
     21  C         26.0950  -21.6980  -13.3890 C.3     1  UNL1        0.1780
     22  C         17.0090  -22.8310   -6.0550 C.2     1  UNL1        0.1410
     23  N         16.1120  -23.7200   -5.5130 N.am    1  UNL1       -0.3070
     24  C         15.9490  -23.8580   -4.1680 C.2     1  UNL1        0.2480
     25  H         15.4790  -24.2540   -6.0860 H       1  UNL1        0.1700
     26  C         16.8270  -23.0220   -3.3410 C.2     1  UNL1        0.1010
     27  O         15.1280  -24.6200   -3.6720 O.2     1  UNL1       -0.2680
     28  C         17.6730  -22.1900   -3.9610 C.2     1  UNL1        0.0380
     29  C         18.5930  -21.2950   -3.1810 C.3     1  UNL1        0.0700
     30  N         17.7710  -22.0780   -5.3280 N.2     1  UNL1       -0.2350
@<TRIPOS>BOND
     1    20    19    1
     2    20    21    1
     3    18    19    1
     4    18    15    1
     5    15    17    1
     6    15    14    2
     7    21    16    1
     8    16    14    1
     9    17    11    2
    10    14    13    1
    11    11     8    1
    12    11    12    1
    13    13    12    2
    14     9     8    2
    15     8     7   am
    16     4     3    2
    17     4     5    1
    18     7    10    1
    19     7     5    1
    20     3     2    1
    21     5     6    2
    22     2     1    2
    23     6     1    1
    24     1    22    1
    25    25    23    1
    26    22    23    1
    27    22    30    2
    28    23    24   am
    29    30    28    1
    30    24    27    2
    31    24    26    1
    32    28    26    2
    33    28    29    1
