@<TRIPOS>MOLECULE
83342_out_ligand_01.pdbqt
 29 32 0 0 0
SMALL
GASTEIGER

@<TRIPOS>ATOM
      1  N         26.4050  -24.9870  -14.2870 N.1     1  UNL1       -0.1910
      2  C         26.0470  -24.2120  -13.5010 C.1     1  UNL1        0.0990
      3  C         25.5920  -23.2600  -12.5310 C.2     1  UNL1        0.0460
      4  C         26.4870  -22.3470  -11.9710 C.2     1  UNL1        0.0230
      5  C         26.0340  -21.4250  -11.0290 C.2     1  UNL1        0.0040
      6  C         24.6900  -21.4140  -10.6440 C.2     1  UNL1        0.0290
      7  C         23.7840  -22.3240  -11.1930 C.2     1  UNL1        0.0360
      8  C         24.2450  -23.2460  -12.1430 C.2     1  UNL1        0.0520
      9  N         22.4130  -22.3730  -10.8590 N.am    1  UNL1       -0.3230
     10  C         21.3690  -21.7600  -11.5290 C.2     1  UNL1        0.2560
     11  O         21.4530  -21.0110  -12.4940 O.2     1  UNL1       -0.2670
     12  H         22.1910  -22.8590   -9.9990 H       1  UNL1        0.1690
     13  C         20.0100  -22.0280  -10.9730 C.2     1  UNL1        0.0330
     14  C         18.8980  -21.4170  -11.6080 C.2     1  UNL1        0.0180
     15  C         17.5920  -21.6330  -11.1510 C.2     1  UNL1        0.0190
     16  C         17.4370  -22.4710  -10.0650 C.2     1  UNL1        0.0480
     17  C         18.5180  -23.0780   -9.4520 C.2     1  UNL1        0.0490
     18  C         16.2300  -22.8980   -9.3580 C.2     1  UNL1        0.2620
     19  C         19.8190  -22.8860   -9.8800 C.2     1  UNL1        0.0350
     20  C         18.0010  -23.8930   -8.3560 C.2     1  UNL1        0.2620
     21  O         18.7070  -24.5370   -7.6040 O.2     1  UNL1       -0.2670
     22  N         16.6440  -23.7500   -8.3730 N.am    1  UNL1       -0.2740
     23  O         15.1120  -22.5060   -9.6300 O.2     1  UNL1       -0.2670
     24  C         15.7510  -24.4260   -7.4590 C.3     1  UNL1        0.2000
     25  C         15.6520  -23.6380   -6.2010 C.2     1  UNL1        0.0700
     26  C         14.9390  -22.5120   -5.8420 C.2     1  UNL1        0.0360
     27  C         15.2760  -22.2390   -4.4950 C.2     1  UNL1        0.0270
     28  C         16.1690  -23.2140   -4.1180 C.2     1  UNL1        0.1420
     29  O         16.4030  -24.0680   -5.1460 O.2     1  UNL1       -0.3250
@<TRIPOS>BOND
     1     1     2    3
     2     2     3    1
     3     3     8    2
     4     3     4    1
     5    11    10    2
     6     8     7    1
     7     4     5    2
     8    14    15    1
     9    14    13    2
    10    10    13    1
    11    10     9   am
    12     7     9    1
    13     7     6    2
    14    15    16    2
    15     5     6    1
    16    13    19    1
    17     9    12    1
    18    16    17    1
    19    16    18    1
    20    19    17    2
    21    23    18    2
    22    17    20    1
    23    18    22   am
    24    22    20   am
    25    22    24    1
    26    20    21    2
    27    24    25    1
    28    25    26    2
    29    25    29    1
    30    26    27    1
    31    29    28    1
    32    27    28    2
