@<TRIPOS>MOLECULE
83357_out_ligand_01.pdbqt
 25 28 0 0 0
SMALL
GASTEIGER

@<TRIPOS>ATOM
      1  C         22.6200  -21.7950  -12.5970 C.2     1  UNL1        0.0320
      2  C         22.9500  -22.5570  -11.4790 C.2     1  UNL1        0.0190
      3  C         21.9820  -22.8340  -10.5030 C.2     1  UNL1        0.0310
      4  C         20.6560  -22.3840  -10.6240 C.2     1  UNL1        0.0430
      5  C         20.3260  -21.6330  -11.7720 C.2     1  UNL1       -0.0300
      6  C         21.3070  -21.3410  -12.7410 C.2     1  UNL1        0.0260
      7  C         18.9410  -21.0880  -11.9990 C.3     1  UNL1        0.0420
      8  C         17.9170  -21.8750  -11.2110 C.3     1  UNL1        0.0250
      9  C         18.3650  -21.9620   -9.7630 C.3     1  UNL1        0.1330
     10  N         19.6620  -22.6390   -9.6090 N.am    1  UNL1       -0.3130
     11  C         19.8870  -23.5100   -8.5260 C.2     1  UNL1        0.2580
     12  O         20.7440  -24.3890   -8.4630 O.2     1  UNL1       -0.2670
     13  C         19.0110  -23.3890   -7.3350 C.2     1  UNL1        0.0320
     14  C         18.0480  -24.3660   -7.0580 C.2     1  UNL1        0.0170
     15  C         17.2200  -24.2240   -5.9440 C.2     1  UNL1        0.0010
     16  C         17.3470  -23.1030   -5.1190 C.2     1  UNL1        0.0000
     17  C         18.2900  -22.1170   -5.4120 C.2     1  UNL1        0.0010
     18  C         19.1200  -22.2530   -6.5250 C.2     1  UNL1        0.0170
     19  C         23.6080  -21.4590  -13.6610 C.2     1  UNL1        0.2520
     20  O         23.2660  -21.4800  -14.8400 O.2     1  UNL1       -0.2680
     21  N         24.8750  -21.1050  -13.2330 N.am    1  UNL1       -0.3520
     22  H         25.0430  -20.9630  -12.2470 H       1  UNL1        0.1630
     23  C         25.8970  -20.7070  -14.1490 C.3     1  UNL1        0.0840
     24  C         27.0640  -19.8790  -13.6850 C.3     1  UNL1        0.0270
     25  C         26.0200  -19.2710  -14.5760 C.3     1  UNL1        0.0270
@<TRIPOS>BOND
     1    20    19    2
     2    25    23    1
     3    25    24    1
     4    23    24    1
     5    23    21    1
     6    19    21   am
     7    19     1    1
     8    21    22    1
     9     6     1    2
    10     6     5    1
    11     1     2    1
    12     7     5    1
    13     7     8    1
    14     5     4    2
    15     2     3    2
    16     8     9    1
    17     4     3    1
    18     4    10    1
    19     9    10    1
    20    10    11   am
    21    11    12    2
    22    11    13    1
    23    13    14    2
    24    13    18    1
    25    14    15    1
    26    18    17    2
    27    15    16    2
    28    17    16    1
