@<TRIPOS>MOLECULE
83351_out_ligand_01.pdbqt
 35 37 0 0 0
SMALL
GASTEIGER

@<TRIPOS>ATOM
      1  C         20.6490  -22.9510   -9.6700 C.2     1  UNL1        0.0320
      2  C         20.9950  -22.4420  -10.9280 C.2     1  UNL1        0.0190
      3  C         22.3080  -22.5630  -11.3910 C.2     1  UNL1        0.0310
      4  C         23.2770  -23.1840  -10.6010 C.2     1  UNL1        0.0420
      5  C         22.9420  -23.6680   -9.3360 C.2     1  UNL1        0.0310
      6  C         21.6310  -23.5480   -8.8690 C.2     1  UNL1        0.0190
      7  C         19.2630  -22.8460   -9.1330 C.2     1  UNL1        0.2560
      8  N         19.0670  -23.4420   -7.9000 N.am    1  UNL1       -0.3230
      9  H         19.8920  -23.7810   -7.4210 H       1  UNL1        0.1690
     10  O         18.4390  -22.2220   -9.7870 O.2     1  UNL1       -0.2670
     11  C         17.8580  -23.5380   -7.1790 C.2     1  UNL1        0.0360
     12  C         17.5980  -22.8560   -5.9860 C.2     1  UNL1        0.0490
     13  C         16.3620  -22.9960   -5.3290 C.2     1  UNL1        0.0720
     14  C         15.3910  -23.8300   -5.8860 C.2     1  UNL1        0.1320
     15  C         15.6340  -24.5110   -7.0750 C.2     1  UNL1        0.0450
     16  F         14.1950  -24.0000   -5.3020 F       1  UNL1       -0.2050
     17  C         16.8630  -24.3630   -7.7200 C.2     1  UNL1        0.0320
     18  C         16.1380  -22.2400   -4.0670 C.2     1  UNL1        0.2520
     19  N         17.2190  -21.6900   -3.4410 N.am    1  UNL1       -0.3660
     20  H         17.0570  -21.1820   -2.5830 H       1  UNL1        0.1590
     21  H         18.1670  -21.7770   -3.7870 H       1  UNL1        0.1590
     22  O         15.0200  -22.1060   -3.5870 O.2     1  UNL1       -0.2680
     23  N         24.6030  -23.3640  -11.0760 N.pl3   1  UNL1       -0.2810
     24  H         24.7760  -24.0960  -11.7640 H       1  UNL1        0.1790
     25  S         25.6070  -22.0240  -11.2890 S.O2    1  UNL1        0.2630
     26  O         26.9630  -22.5020  -11.1330 O.2     1  UNL1       -0.2000
     27  O         25.1030  -20.9140  -10.5120 O.2     1  UNL1       -0.2000
     28  C         25.3790  -21.6290  -13.0100 C.2     1  UNL1        0.0810
     29  C         25.4690  -20.2980  -13.4330 C.2     1  UNL1        0.0280
     30  C         25.2910  -19.9950  -14.7840 C.2     1  UNL1        0.0450
     31  C         25.0180  -21.0170  -15.6920 C.2     1  UNL1        0.1380
     32  F         24.8590  -20.7020  -16.9850 F       1  UNL1       -0.2040
     33  C         24.9120  -22.3410  -15.2640 C.2     1  UNL1        0.0740
     34 CL         24.5850  -23.6050  -16.3860 Cl      1  UNL1       -0.0810
     35  C         25.0800  -22.6530  -13.9170 C.2     1  UNL1        0.0520
@<TRIPOS>BOND
     1    32    31    1
     2    34    33    1
     3    31    33    2
     4    31    30    1
     5    33    35    1
     6    30    29    2
     7    35    28    2
     8    29    28    1
     9    28    25    1
    10    24    23    1
    11     3     2    1
    12     3     4    2
    13    25    26    2
    14    25    23    1
    15    25    27    2
    16    23     4    1
    17     2     1    2
    18     4     5    1
    19    10     7    2
    20     1     7    1
    21     1     6    1
    22     5     6    2
    23     7     8   am
    24     8     9    1
    25     8    11    1
    26    17    11    2
    27    17    15    1
    28    11    12    1
    29    15    14    2
    30    12    13    2
    31    14    13    1
    32    14    16    1
    33    13    18    1
    34    18    22    2
    35    18    19   am
    36    21    19    1
    37    19    20    1
