@<TRIPOS>MOLECULE
83352_out_ligand_01.pdbqt
 35 37 0 0 0
SMALL
GASTEIGER

@<TRIPOS>ATOM
      1  C         21.1170  -23.0310   -9.0960 C.2     1  UNL1        0.0320
      2  C         21.2080  -23.0970  -10.4930 C.2     1  UNL1        0.0190
      3  C         22.2860  -22.5090  -11.1590 C.2     1  UNL1        0.0310
      4  C         23.2760  -21.8480  -10.4320 C.2     1  UNL1        0.0420
      5  C         23.1810  -21.7600   -9.0430 C.2     1  UNL1        0.0310
      6  C         22.1010  -22.3450   -8.3730 C.2     1  UNL1        0.0190
      7  C         19.9440  -23.6670   -8.4310 C.2     1  UNL1        0.2560
      8  N         18.9580  -22.7910   -8.0130 N.am    1  UNL1       -0.3230
      9  H         19.1540  -21.8020   -8.0970 H       1  UNL1        0.1690
     10  O         19.9560  -24.8820   -8.2770 O.2     1  UNL1       -0.2670
     11  C         17.7340  -23.1170   -7.3920 C.2     1  UNL1        0.0360
     12  C         17.5050  -22.5820   -6.1160 C.2     1  UNL1        0.0490
     13  C         16.3130  -22.8490   -5.4210 C.2     1  UNL1        0.0720
     14  C         15.3490  -23.6570   -6.0210 C.2     1  UNL1        0.1320
     15  C         15.5630  -24.1910   -7.2880 C.2     1  UNL1        0.0450
     16  F         14.1940  -23.9430   -5.4010 F       1  UNL1       -0.2050
     17  C         16.7520  -23.9200   -7.9730 C.2     1  UNL1        0.0320
     18  C         16.1430  -22.2490   -4.0730 C.2     1  UNL1        0.2520
     19  N         17.2530  -21.8000   -3.4180 N.am    1  UNL1       -0.3660
     20  H         17.1330  -21.3920   -2.5010 H       1  UNL1        0.1590
     21  H         18.1870  -21.8560   -3.8070 H       1  UNL1        0.1590
     22  O         15.0350  -22.1570   -3.5560 O.2     1  UNL1       -0.2680
     23  N         24.3760  -21.2790  -11.1270 N.pl3   1  UNL1       -0.2810
     24  H         24.1900  -20.5590  -11.8260 H       1  UNL1        0.1790
     25  S         25.7140  -22.2290  -11.5090 S.O2    1  UNL1        0.2630
     26  O         25.7130  -23.4200  -10.6890 O.2     1  UNL1       -0.2000
     27  O         26.8520  -21.3360  -11.5440 O.2     1  UNL1       -0.2000
     28  C         25.3820  -22.7210  -13.1870 C.2     1  UNL1        0.0830
     29  C         24.9300  -21.7760  -14.1180 C.2     1  UNL1        0.0280
     30  C         24.6650  -22.1730  -15.4290 C.2     1  UNL1        0.0470
     31  C         24.8430  -23.5050  -15.7930 C.2     1  UNL1        0.1540
     32  F         24.5910  -23.8800  -17.0540 F       1  UNL1       -0.2030
     33  C         25.2770  -24.4410  -14.8580 C.2     1  UNL1        0.1560
     34  F         25.4430  -25.7220  -15.2150 F       1  UNL1       -0.2030
     35  C         25.5440  -24.0630  -13.5480 C.2     1  UNL1        0.0700
@<TRIPOS>BOND
     1    32    31    1
     2    31    30    2
     3    31    33    1
     4    30    29    1
     5    34    33    1
     6    33    35    2
     7    29    28    2
     8    35    28    1
     9    28    25    1
    10    24    23    1
    11    27    25    2
    12    25    23    1
    13    25    26    2
    14     3     2    1
    15     3     4    2
    16    23     4    1
    17     2     1    2
    18     4     5    1
    19     1     7    1
    20     1     6    1
    21     5     6    2
    22     7    10    2
    23     7     8   am
    24     9     8    1
    25     8    11    1
    26    17    11    2
    27    17    15    1
    28    11    12    1
    29    15    14    2
    30    12    13    2
    31    14    13    1
    32    14    16    1
    33    13    18    1
    34    18    22    2
    35    18    19   am
    36    21    19    1
    37    19    20    1
