@<TRIPOS>MOLECULE
83365_out_ligand_01.pdbqt
 33 36 0 0 0
SMALL
GASTEIGER

@<TRIPOS>ATOM
      1  C         19.5810  -21.7930  -10.7870 C.2     1  UNL1        0.0680
      2  C         18.8050  -21.0160  -11.6600 C.2     1  UNL1        0.0210
      3  C         17.4190  -21.0290  -11.5560 C.2     1  UNL1        0.0200
      4  C         16.8470  -21.8190  -10.5780 C.2     1  UNL1        0.1180
      5  N         17.5600  -22.5900   -9.7290 N.2     1  UNL1       -0.2530
      6  C         18.9160  -22.5890   -9.8500 C.2     1  UNL1        0.1130
      7  C         21.0550  -21.7140  -10.9490 C.2     1  UNL1        0.2590
      8  N         21.5460  -22.0440  -12.1990 N.am    1  UNL1       -0.3230
      9  H         20.8610  -22.2400  -12.9200 H       1  UNL1        0.1690
     10  O         21.7190  -21.4070   -9.9660 O.2     1  UNL1       -0.2670
     11  C         22.8950  -22.0770  -12.6130 C.2     1  UNL1        0.0360
     12  C         23.8980  -22.8070  -11.9720 C.2     1  UNL1        0.0480
     13  C         25.2270  -22.7800  -12.4390 C.2     1  UNL1        0.0550
     14  C         25.5430  -22.0230  -13.5750 C.2     1  UNL1        0.0490
     15  C         24.5390  -21.2960  -14.2210 C.2     1  UNL1        0.0270
     16 CL         27.1210  -21.9590  -14.2780 Cl      1  UNL1       -0.0830
     17  C         23.2270  -21.3240  -13.7430 C.2     1  UNL1        0.0310
     18  C         26.2060  -23.5980  -11.6800 C.2     1  UNL1        0.2510
     19  N         26.4910  -23.2300  -10.3960 N.am    1  UNL1       -0.3660
     20  H         26.2090  -22.3410  -10.0070 H       1  UNL1        0.1590
     21  H         27.2140  -23.7530   -9.9200 H       1  UNL1        0.1590
     22  O         26.7160  -24.5980  -12.1700 O.2     1  UNL1       -0.2680
     23  S         19.7330  -23.7110   -8.7250 S.3     1  UNL1       -0.0700
     24  C         19.0520  -23.1350   -7.1800 C.2     1  UNL1        0.0090
     25  C         19.4250  -21.8820   -6.6770 C.2     1  UNL1        0.0220
     26  C         18.8930  -21.4220   -5.4700 C.2     1  UNL1        0.0410
     27  C         17.9820  -22.2080   -4.7690 C.2     1  UNL1        0.1020
     28  C         17.6230  -23.4670   -5.2580 C.2     1  UNL1        0.1030
     29  O         17.4840  -21.6830   -3.6040 O.2     1  UNL1       -0.3460
     30  C         18.1430  -23.9240   -6.4680 C.2     1  UNL1        0.0580
     31  O         16.7590  -24.3070   -4.6030 O.2     1  UNL1       -0.3460
     32  C         16.5730  -23.9050   -3.2400 C.3     1  UNL1        0.2020
     33  C         16.3340  -22.4070   -3.1530 C.3     1  UNL1        0.2020
@<TRIPOS>BOND
     1    16    14    1
     2    15    17    1
     3    15    14    2
     4    17    11    2
     5    14    13    1
     6     9     8    1
     7    11     8    1
     8    11    12    1
     9    13    12    2
    10    13    18    1
    11     8     7   am
    12    22    18    2
    13    18    19   am
    14     2     3    1
    15     2     1    2
    16     3     4    2
    17     7     1    1
    18     7    10    2
    19     1     6    1
    20     4     5    1
    21    19    20    1
    22    19    21    1
    23     6     5    2
    24     6    23    1
    25    23    24    1
    26    24    25    2
    27    24    30    1
    28    25    26    1
    29    30    28    2
    30    26    27    2
    31    28    27    1
    32    28    31    1
    33    27    29    1
    34    31    32    1
    35    29    33    1
    36    32    33    1
