@<TRIPOS>MOLECULE
83360_out_ligand_01.pdbqt
 29 31 0 0 0
SMALL
GASTEIGER

@<TRIPOS>ATOM
      1  C         21.7120  -23.3390   -9.0690 C.2     1  UNL1        0.2560
      2  O         22.3010  -24.4130   -9.0820 O.2     1  UNL1       -0.2670
      3  N         22.0860  -22.1800   -9.7260 N.am    1  UNL1       -0.3230
      4  H         21.5730  -21.3370   -9.5000 H       1  UNL1        0.1690
      5  C         20.4870  -23.2160   -8.2280 C.2     1  UNL1        0.0320
      6  C         19.4700  -24.1730   -8.2540 C.2     1  UNL1        0.0190
      7  C         18.3400  -24.0110   -7.4440 C.2     1  UNL1        0.0320
      8  C         18.2040  -22.8970   -6.5930 C.2     1  UNL1        0.0580
      9  C         19.2440  -21.9630   -6.5510 C.2     1  UNL1        0.0320
     10  C         20.3760  -22.1240   -7.3610 C.2     1  UNL1        0.0190
     11  N         17.0190  -22.7880   -5.7910 N.pl3   1  UNL1       -0.2380
     12  C         16.7310  -23.2300   -4.5000 C.2     1  UNL1        0.0350
     13  C         15.4050  -22.9180   -4.2690 C.2     1  UNL1        0.0550
     14  C         17.6700  -23.8720   -3.5470 C.3     1  UNL1        0.0700
     15  C         14.9680  -22.2460   -5.4170 C.2     1  UNL1        0.0530
     16  C         13.6290  -21.6750   -5.6930 C.3     1  UNL1        0.0720
     17  N         15.9410  -22.1390   -6.3210 N.2     1  UNL1       -0.1720
     18  C         23.1620  -22.0160  -10.6240 C.2     1  UNL1        0.0360
     19  C         24.5040  -22.0660  -10.2510 C.2     1  UNL1        0.0300
     20  C         25.5170  -21.9200  -11.2080 C.2     1  UNL1        0.0100
     21  C         25.2120  -21.7210  -12.5620 C.2     1  UNL1       -0.0460
     22  C         26.3410  -21.6240  -13.5480 C.3     1  UNL1        0.0490
     23  C         23.8590  -21.6300  -12.9290 C.2     1  UNL1        0.0390
     24  C         22.8470  -21.8030  -11.9680 C.2     1  UNL1        0.0470
     25  C         23.4000  -21.3660  -14.3150 C.2     1  UNL1        0.2490
     26  N         22.6690  -20.2300  -14.5170 N.am    1  UNL1       -0.3660
     27  H         22.2780  -19.7090  -13.7430 H       1  UNL1        0.1590
     28  H         22.2350  -20.1280  -15.4240 H       1  UNL1        0.1590
     29  O         23.5970  -22.1670  -15.2180 O.2     1  UNL1       -0.2680
@<TRIPOS>BOND
     1    28    26    1
     2    29    25    2
     3    26    25   am
     4    26    27    1
     5    25    23    1
     6    22    21    1
     7    23    21    2
     8    23    24    1
     9    21    20    1
    10    24    18    2
    11    20    19    2
    12    18    19    1
    13    18     3    1
    14     3     4    1
    15     3     1   am
    16     2     1    2
    17     1     5    1
    18     6     5    2
    19     6     7    1
    20     5    10    1
    21     7     8    2
    22    10     9    2
    23     8     9    1
    24     8    11    1
    25    17    11    1
    26    17    15    2
    27    11    12    1
    28    16    15    1
    29    15    13    1
    30    12    13    2
    31    12    14    1
