@<TRIPOS>MOLECULE
83383_out_ligand_01.pdbqt
 29 32 0 0 0
SMALL
GASTEIGER

@<TRIPOS>ATOM
      1  C         17.3800  -22.5800   -7.2820 C.2     1  UNL1       -0.0190
      2  C         16.1700  -22.8060   -7.9660 C.2     1  UNL1        0.0100
      3  C         16.1460  -22.9780   -9.3500 C.2     1  UNL1        0.0030
      4  C         17.3300  -22.9200  -10.0810 C.2     1  UNL1        0.0290
      5  C         18.5480  -22.6800   -9.4390 C.2     1  UNL1        0.0350
      6  C         18.5620  -22.5160   -8.0490 C.2     1  UNL1        0.0390
      7  N         19.7040  -22.6310  -10.2480 N.am    1  UNL1       -0.3230
      8  C         20.0890  -21.6140  -11.1020 C.2     1  UNL1        0.2560
      9  O         19.4550  -20.6020  -11.3770 O.2     1  UNL1       -0.2670
     10  H         20.2700  -23.4700  -10.2480 H       1  UNL1        0.1690
     11  C         21.4000  -21.8290  -11.7760 C.2     1  UNL1        0.0350
     12  C         22.3960  -22.6510  -11.2010 C.2     1  UNL1        0.0200
     13  C         23.6210  -22.8360  -11.8490 C.2     1  UNL1        0.0410
     14  C         23.8180  -22.1870  -13.0480 C.2     1  UNL1        0.1050
     15  C         22.8560  -21.3740  -13.6020 C.2     1  UNL1        0.1060
     16  O         24.9420  -22.2510  -13.8110 O.2     1  UNL1       -0.3230
     17  C         21.6380  -21.1680  -12.9890 C.2     1  UNL1        0.0560
     18  O         23.2550  -20.8270  -14.7800 O.2     1  UNL1       -0.3230
     19  C         24.5840  -21.3770  -14.9010 C.3     1  UNL1        0.3520
     20  C         17.3850  -22.3830   -5.7700 C.3     1  UNL1        0.1390
     21  C         18.6180  -21.7030   -5.1640 C.3     1  UNL1        0.0540
     22  N         16.1910  -21.6670   -5.3550 N.am    1  UNL1       -0.3210
     23  C         15.4150  -22.3870   -4.4840 C.2     1  UNL1        0.3240
     24  H         15.8870  -20.7780   -5.7300 H       1  UNL1        0.1650
     25  O         14.3430  -22.0260   -4.0360 O.2     1  UNL1       -0.2470
     26  N         16.0250  -23.5680   -4.2360 N.am    1  UNL1       -0.2770
     27  C         17.1530  -23.7010   -4.9900 C.2     1  UNL1        0.2580
     28  H         15.6330  -24.2940   -3.6610 H       1  UNL1        0.1730
     29  O         17.8500  -24.7050   -5.0150 O.2     1  UNL1       -0.2700
@<TRIPOS>BOND
     1    19    18    1
     2    19    16    1
     3    18    15    1
     4    16    14    1
     5    15    14    2
     6    15    17    1
     7    14    13    1
     8    17    11    2
     9    13    12    2
    10    11    12    1
    11    11     8    1
    12     9     8    2
    13     8     7   am
    14     7    10    1
    15     7     5    1
    16     4     5    2
    17     4     3    1
    18     5     6    1
    19     3     2    2
    20     6     1    2
    21     2     1    1
    22     1    20    1
    23    20    22    1
    24    20    21    1
    25    20    27    1
    26    24    22    1
    27    22    23   am
    28    29    27    2
    29    27    26   am
    30    23    26   am
    31    23    25    2
    32    26    28    1
