@<TRIPOS>MOLECULE
83381_out_ligand_01.pdbqt
 34 36 0 0 0
SMALL
GASTEIGER

@<TRIPOS>ATOM
      1  C         21.3640  -21.6900  -10.4230 C.3     1  UNL1        0.2570
      2  C         22.2820  -21.9220  -11.6570 C.2     1  UNL1        0.2560
      3  N         23.5670  -22.3170  -11.3010 N.am    1  UNL1       -0.3240
      4  H         23.7760  -22.2890  -10.3120 H       1  UNL1        0.1690
      5  O         21.8660  -21.7550  -12.8030 O.2     1  UNL1       -0.2700
      6  C         24.6430  -22.6620  -12.1510 C.2     1  UNL1        0.0410
      7  C         25.8560  -21.9470  -12.0330 C.2     1  UNL1       -0.0350
      8  C         26.9410  -22.2890  -12.8570 C.2     1  UNL1        0.0090
      9  C         26.0390  -20.8240  -11.0480 C.3     1  UNL1        0.0500
     10  C         26.8340  -23.3190  -13.7920 C.2     1  UNL1        0.0070
     11  C         25.6380  -24.0210  -13.9260 C.2     1  UNL1       -0.0600
     12  C         25.5240  -25.1550  -14.9010 C.3     1  UNL1        0.0480
     13  C         24.5560  -23.6950  -13.0940 C.2     1  UNL1        0.0370
     14  O         21.5250  -22.7060   -9.4290 O.3     1  UNL1       -0.2970
     15  C         21.6220  -22.2310   -8.1660 C.2     1  UNL1        0.2940
     16  O         22.6010  -21.6810   -7.6850 O.2     1  UNL1       -0.2590
     17  C         20.3480  -22.4380   -7.4260 C.2     1  UNL1        0.0390
     18  C         19.9440  -21.4470   -6.5160 C.2     1  UNL1        0.0190
     19  C         18.7560  -21.5900   -5.7940 C.2     1  UNL1        0.0260
     20  C         17.9680  -22.7260   -5.9900 C.2     1  UNL1        0.0740
     21  C         18.3640  -23.7280   -6.8810 C.2     1  UNL1        0.0260
     22  C         19.5530  -23.5810   -7.6010 C.2     1  UNL1        0.0190
     23  S         16.4630  -22.9280   -5.0700 S.O2    1  UNL1        0.2390
     24  O         15.3760  -22.3810   -5.8490 O.2     1  UNL1       -0.2060
     25  O         16.4350  -24.2640   -4.5220 O.2     1  UNL1       -0.2060
     26  N         16.7310  -21.9070   -3.7580 N.3     1  UNL1       -0.2250
     27  H         17.3040  -21.0960   -3.9850 H       1  UNL1        0.1360
     28  H         17.1290  -22.4540   -2.9930 H       1  UNL1        0.1360
     29  C         19.8950  -21.6820  -10.8130 C.2     1  UNL1       -0.0200
     30  C         19.3040  -20.5400  -11.3780 C.2     1  UNL1        0.0100
     31  C         17.9520  -20.5390  -11.7240 C.2     1  UNL1        0.0010
     32  C         17.1780  -21.6780  -11.5200 C.2     1  UNL1        0.0000
     33  C         17.7540  -22.8240  -10.9730 C.2     1  UNL1        0.0010
     34  C         19.1060  -22.8290  -10.6250 C.2     1  UNL1        0.0100
@<TRIPOS>BOND
     1    12    11    1
     2    11    10    2
     3    11    13    1
     4    10     8    1
     5    13     6    2
     6     8     7    2
     7     5     2    2
     8     6     7    1
     9     6     3    1
    10     7     9    1
    11    31    32    2
    12    31    30    1
    13     2     3   am
    14     2     1    1
    15    32    33    1
    16    30    29    2
    17     3     4    1
    18    33    34    2
    19    29    34    1
    20    29     1    1
    21     1    14    1
    22    14    15    1
    23    15    16    2
    24    15    17    1
    25    22    17    2
    26    22    21    1
    27    17    18    1
    28    21    20    2
    29    18    19    2
    30    20    19    1
    31    20    23    1
    32    24    23    2
    33    23    25    2
    34    23    26    1
    35    27    26    1
    36    26    28    1
