@<TRIPOS>MOLECULE
83386_out_ligand_01.pdbqt
 31 33 0 0 0
SMALL
GASTEIGER

@<TRIPOS>ATOM
      1  C         24.2610  -21.7650  -10.9990 C.2     1  UNL1        0.2510
      2  O         25.0410  -20.9830  -10.4700 O.2     1  UNL1       -0.2680
      3  N         23.3070  -22.4820  -10.3160 N.am    1  UNL1       -0.3530
      4  H         22.7230  -23.1490  -10.7970 H       1  UNL1        0.1630
      5  C         23.0670  -22.2870   -8.9030 C.3     1  UNL1        0.1610
      6  C         21.7260  -22.8570   -8.5220 C.2     1  UNL1       -0.0400
      7  C         20.8620  -22.1560   -7.6680 C.2     1  UNL1        0.0110
      8  C         19.6310  -22.7040   -7.3010 C.2     1  UNL1        0.0380
      9  C         19.2530  -23.9550   -7.7940 C.2     1  UNL1        0.0760
     10  C         20.1150  -24.6750   -8.6190 C.2     1  UNL1        0.0380
     11  C         21.3440  -24.1260   -8.9860 C.2     1  UNL1        0.0110
     12  O         18.0690  -24.5620   -7.4400 O.2     1  UNL1       -0.3110
     13  C         17.2100  -23.8470   -6.6360 C.2     1  UNL1        0.0760
     14  C         17.4480  -23.8920   -5.2600 C.2     1  UNL1        0.0400
     15  C         16.5960  -23.2170   -4.3860 C.2     1  UNL1        0.0450
     16  C         15.5070  -22.5180   -4.8950 C.2     1  UNL1        0.1160
     17  F         14.6890  -21.8710   -4.0550 F       1  UNL1       -0.2060
     18  C         15.2500  -22.4850   -6.2620 C.2     1  UNL1        0.0450
     19  C         16.0990  -23.1590   -7.1390 C.2     1  UNL1        0.0400
     20  C         24.3330  -21.9980  -12.4660 C.2     1  UNL1        0.0320
     21  C         23.7760  -21.0970  -13.3860 C.2     1  UNL1        0.0180
     22  C         23.8750  -21.3470  -14.7560 C.2     1  UNL1        0.0260
     23  C         24.5450  -22.4910  -15.2030 C.2     1  UNL1        0.0740
     24  C         25.1060  -23.3940  -14.2970 C.2     1  UNL1        0.0260
     25  C         25.0070  -23.1380  -12.9270 C.2     1  UNL1        0.0180
     26  S         24.6570  -22.8070  -16.9460 S.O2    1  UNL1        0.2390
     27  O         23.4780  -23.5340  -17.3510 O.2     1  UNL1       -0.2060
     28  O         25.9940  -23.2640  -17.2420 O.2     1  UNL1       -0.2060
     29  N         24.5530  -21.2510  -17.5780 N.3     1  UNL1       -0.2250
     30  H         24.7500  -20.5190  -16.8960 H       1  UNL1        0.1360
     31  H         25.1650  -21.1840  -18.3950 H       1  UNL1        0.1360
@<TRIPOS>BOND
     1    31    29    1
     2    29    26    1
     3    29    30    1
     4    27    26    2
     5    28    26    2
     6    26    23    1
     7    23    22    2
     8    23    24    1
     9    22    21    1
    10    24    25    2
    11    21    20    2
    12    25    20    1
    13    20     1    1
    14     1     2    2
    15     1     3   am
    16     4     3    1
    17     3     5    1
    18    11    10    1
    19    11     6    2
    20     5     6    1
    21    10     9    2
    22     6     7    1
    23     9    12    1
    24     9     8    1
    25     7     8    2
    26    12    13    1
    27    19    13    2
    28    19    18    1
    29    13    14    1
    30    18    16    2
    31    14    15    2
    32    16    15    1
    33    16    17    1
