@<TRIPOS>MOLECULE
83394_out_ligand_01.pdbqt
 34 38 0 0 0
SMALL
GASTEIGER

@<TRIPOS>ATOM
      1  C         20.7440  -23.1300   -8.2390 C.2     1  UNL1        0.2450
      2  O         20.8540  -22.0830   -7.6100 O.2     1  UNL1       -0.2680
      3  N         19.5830  -23.7560   -8.6330 N.am    1  UNL1       -0.3240
      4  H         19.6840  -24.6540   -9.0910 H       1  UNL1        0.1690
      5  C         21.9850  -23.8920   -8.5550 C.2     1  UNL1        0.0750
      6  C         22.7440  -23.8260   -9.6630 C.2     1  UNL1        0.0170
      7  C         22.5580  -22.9430  -10.8180 C.2     1  UNL1       -0.0330
      8  C         21.3010  -22.4390  -11.1550 C.2     1  UNL1        0.0110
      9  C         21.1580  -21.5800  -12.2450 C.2     1  UNL1        0.0040
     10  C         22.2740  -21.2120  -12.9990 C.2     1  UNL1        0.0370
     11  C         23.5350  -21.6980  -12.6600 C.2     1  UNL1        0.0700
     12  C         23.6710  -22.5680  -11.5770 C.2     1  UNL1        0.0480
     13  O         24.6870  -21.4400  -13.3480 O.2     1  UNL1       -0.3450
     14  C         24.5670  -20.5010  -14.4250 C.3     1  UNL1        0.2350
     15  C         24.8460  -21.1710  -15.7370 C.2     1  UNL1        0.0660
     16  N         23.9930  -22.1660  -16.1940 N.2     1  UNL1       -0.2480
     17  C         24.4040  -22.6190  -17.3600 C.2     1  UNL1        0.0710
     18  C         23.7110  -23.6740  -18.1500 C.3     1  UNL1        0.0780
     19  S         25.8420  -21.9000  -17.9650 S.3     1  UNL1       -0.0850
     20  C         25.9200  -20.9120  -16.5700 C.2     1  UNL1        0.0810
     21  C         18.2610  -23.2970   -8.4730 C.2     1  UNL1        0.0350
     22  C         17.5180  -23.0650   -9.6390 C.2     1  UNL1        0.0290
     23  C         16.1970  -22.6190   -9.5670 C.2     1  UNL1        0.0030
     24  C         15.6030  -22.4000   -8.3260 C.2     1  UNL1        0.0150
     25  C         16.3300  -22.6320   -7.1540 C.2     1  UNL1        0.0150
     26  C         17.6620  -23.0680   -7.2330 C.2     1  UNL1        0.0440
     27  C         15.7150  -22.4380   -5.8550 C.ar    1  UNL1        0.1700
     28  N         14.4260  -22.3530   -5.5810 N.ar    1  UNL1       -0.1420
     29  N         14.3320  -22.1370   -4.2240 N.ar    1  UNL1        0.0180
     30  N         15.5340  -22.0740   -3.6660 N.ar    1  UNL1       -0.0020
     31  N         16.3930  -22.2670   -4.6740 N.ar    1  UNL1       -0.2540
     32  C         17.8620  -22.2550   -4.5050 C.3     1  UNL1        0.1080
     33  C         18.5320  -21.5860   -3.3270 C.3     1  UNL1        0.0290
     34  C         18.6880  -21.0020   -4.7010 C.3     1  UNL1        0.0290
@<TRIPOS>BOND
     1    18    17    1
     2    19    17    1
     3    19    20    1
     4    17    16    2
     5    20    15    2
     6    16    15    1
     7    15    14    1
     8    14    13    1
     9    13    11    1
    10    10    11    2
    11    10     9    1
    12    11    12    1
    13     9     8    2
    14    12     7    2
    15     8     7    1
    16     7     6    1
    17     6     5    2
    18    22    23    1
    19    22    21    2
    20    23    24    2
    21     4     3    1
    22     3    21    1
    23     3     1   am
    24     5     1    1
    25    21    26    1
    26    24    25    1
    27     1     2    2
    28    26    25    2
    29    25    27    1
    30    27    28   ar
    31    27    31   ar
    32    28    29   ar
    33    34    32    1
    34    34    33    1
    35    31    32    1
    36    31    30   ar
    37    32    33    1
    38    29    30   ar
