@<TRIPOS>MOLECULE
83391_out_ligand_01.pdbqt
 29 31 0 0 0
SMALL
GASTEIGER

@<TRIPOS>ATOM
      1  N         21.1090  -22.8960   -8.4120 N.3     1  UNL1        0.0970
      2  H         21.2350  -22.1000   -9.0400 H       1  UNL1        0.3170
      3  C         21.9510  -23.9880   -8.9240 C.3     1  UNL1        0.2750
      4  C         23.4360  -23.6380   -9.1000 C.3     1  UNL1        0.0680
      5  C         23.6810  -22.8930  -10.3930 C.2     1  UNL1       -0.0560
      6  C         22.6640  -22.7920  -11.3540 C.2     1  UNL1        0.0090
      7  C         22.8930  -22.1230  -12.5570 C.2     1  UNL1        0.0250
      8  C         24.1430  -21.5460  -12.7960 C.2     1  UNL1        0.0740
      9  C         25.1700  -21.6520  -11.8570 C.2     1  UNL1        0.0250
     10  C         24.9360  -22.3230  -10.6560 C.2     1  UNL1        0.0090
     11  S         24.4230  -20.6960  -14.3250 S.O2    1  UNL1        0.2390
     12  O         24.7990  -21.6650  -15.3260 O.2     1  UNL1       -0.2060
     13  O         25.2050  -19.5100  -14.0580 O.2     1  UNL1       -0.2060
     14  N         22.8760  -20.1410  -14.6890 N.3     1  UNL1       -0.2250
     15  H         22.7250  -19.9990  -15.6870 H       1  UNL1        0.1360
     16  H         22.1930  -20.7890  -14.2900 H       1  UNL1        0.1360
     17  C         19.6620  -23.2150   -8.4100 C.3     1  UNL1        0.2860
     18  C         18.9860  -22.9870   -7.0600 C.2     1  UNL1       -0.0210
     19  C         18.1920  -23.9700   -6.4460 C.2     1  UNL1        0.0090
     20  C         17.5980  -23.7370   -5.2040 C.2     1  UNL1        0.0010
     21  C         17.7960  -22.5240   -4.5520 C.2     1  UNL1        0.0000
     22  C         18.5910  -21.5410   -5.1390 C.2     1  UNL1        0.0010
     23  C         19.1850  -21.7730   -6.3810 C.2     1  UNL1        0.0090
     24  C         18.9530  -22.4420   -9.5250 C.2     1  UNL1       -0.0210
     25  C         19.6750  -21.7550  -10.5160 C.2     1  UNL1        0.0090
     26  C         19.0130  -21.0590  -11.5280 C.2     1  UNL1        0.0010
     27  C         17.6210  -21.0380  -11.5660 C.2     1  UNL1        0.0000
     28  C         16.8880  -21.7130  -10.5910 C.2     1  UNL1        0.0010
     29  C         17.5490  -22.4100   -9.5780 C.2     1  UNL1        0.0090
@<TRIPOS>BOND
     1    15    14    1
     2    12    11    2
     3    14    11    1
     4    14    16    1
     5    11    13    2
     6    11     8    1
     7     8     7    2
     8     8     9    1
     9     7     6    1
    10     9    10    2
    11    27    26    2
    12    27    28    1
    13    26    25    1
    14     6     5    2
    15    10     5    1
    16    28    29    2
    17    25    24    2
    18     5     4    1
    19    29    24    1
    20    24    17    1
    21     4     3    1
    22     2     1    1
    23     3     1    1
    24     1    17    1
    25    17    18    1
    26    18    19    2
    27    18    23    1
    28    19    20    1
    29    23    22    2
    30    20    21    2
    31    22    21    1
