@<TRIPOS>MOLECULE
83423_out_ligand_01.pdbqt
 38 42 0 0 0
SMALL
GASTEIGER

@<TRIPOS>ATOM
      1  C         23.9260  -21.5530  -10.3030 C.ar    1  UNL1        0.1920
      2  N         25.1170  -21.0110  -10.3310 N.ar    1  UNL1       -0.1220
      3  N         25.5540  -21.0500  -11.6330 N.ar    1  UNL1       -0.1280
      4  C         24.6110  -21.5920  -12.3830 C.ar    1  UNL1        0.1640
      5  N         23.5600  -21.9540  -11.5610 N.ar    1  UNL1       -0.3030
      6  S         22.9510  -21.7830   -8.8940 S.3     1  UNL1       -0.0810
      7  C         22.8110  -23.5900   -8.8720 C.3     1  UNL1        0.1850
      8  C         21.3800  -24.0290   -8.5770 C.2     1  UNL1        0.2310
      9  N         20.6320  -23.0440   -7.9420 N.am    1  UNL1       -0.3270
     10  H         21.0270  -22.1090   -7.9310 H       1  UNL1        0.1690
     11  O         21.0010  -25.1660   -8.8470 O.2     1  UNL1       -0.2720
     12  C         19.3650  -23.1790   -7.3400 C.2     1  UNL1        0.0340
     13  C         18.9620  -22.1570   -6.4720 C.2     1  UNL1        0.0300
     14  C         17.7470  -22.2400   -5.7840 C.2     1  UNL1        0.0190
     15  C         16.9060  -23.3470   -5.9570 C.2     1  UNL1        0.0320
     16  C         17.2930  -24.3550   -6.8470 C.2     1  UNL1        0.0190
     17  C         18.5180  -24.2730   -7.5260 C.2     1  UNL1        0.0300
     18  C         15.6290  -23.3750   -5.1830 C.2     1  UNL1        0.2490
     19  N         14.7000  -22.3920   -5.4050 N.am    1  UNL1       -0.3660
     20  H         14.7190  -21.7850   -6.2090 H       1  UNL1        0.1590
     21  H         13.8060  -22.5250   -4.9420 H       1  UNL1        0.1590
     22  O         15.3890  -24.2670   -4.3760 O.2     1  UNL1       -0.2680
     23  C         22.4150  -22.7720  -11.9310 C.3     1  UNL1        0.1710
     24  C         21.0790  -22.0790  -11.7850 C.2     1  UNL1       -0.0370
     25  C         20.8780  -20.7220  -12.1370 C.2     1  UNL1        0.0120
     26  C         19.6330  -20.1010  -11.9640 C.2     1  UNL1        0.0400
     27  C         18.6120  -20.8470  -11.4180 C.2     1  UNL1        0.1050
     28  C         18.7960  -22.1580  -11.0510 C.2     1  UNL1        0.1050
     29  O         17.3480  -20.4100  -11.1730 O.2     1  UNL1       -0.3230
     30  C         20.0090  -22.7980  -11.2170 C.2     1  UNL1        0.0480
     31  O         17.6700  -22.7100  -10.5220 O.2     1  UNL1       -0.3230
     32  C         16.7730  -21.5790  -10.5500 C.3     1  UNL1        0.3520
     33  C         24.7060  -21.8570  -13.8150 C.2     1  UNL1        0.0120
     34  C         24.3750  -20.8440  -14.7270 C.2     1  UNL1        0.0150
     35  C         24.4910  -21.0610  -16.1010 C.2     1  UNL1        0.0010
     36  C         24.9430  -22.2910  -16.5770 C.2     1  UNL1        0.0000
     37  C         25.2360  -23.3180  -15.6800 C.2     1  UNL1        0.0010
     38  C         25.1000  -23.1080  -14.3050 C.2     1  UNL1        0.0150
@<TRIPOS>BOND
     1    36    35    2
     2    36    37    1
     3    35    34    1
     4    37    38    2
     5    34    33    2
     6    38    33    1
     7    33     4    1
     8     4     3   ar
     9     4     5   ar
    10    25    26    1
    11    25    24    2
    12    26    27    2
    13    23    24    1
    14    23     5    1
    15    24    30    1
    16     3     2   ar
    17     5     1   ar
    18    27    29    1
    19    27    28    1
    20    30    28    2
    21    29    32    1
    22    28    31    1
    23    32    31    1
    24     2     1   ar
    25     1     6    1
    26     6     7    1
    27     7     8    1
    28    11     8    2
    29     8     9   am
    30     9    10    1
    31     9    12    1
    32    17    12    2
    33    17    16    1
    34    12    13    1
    35    16    15    2
    36    13    14    2
    37    20    19    1
    38    15    14    1
    39    15    18    1
    40    19    18   am
    41    19    21    1
    42    18    22    2
