@<TRIPOS>MOLECULE
83451_out_ligand_01.pdbqt
 39 43 0 0 0
SMALL
GASTEIGER

@<TRIPOS>ATOM
      1  C         23.8760  -21.6300  -10.2550 C.ar    1  UNL1        0.1920
      2  N         25.0550  -21.0610  -10.3040 N.ar    1  UNL1       -0.1220
      3  N         25.4790  -21.0890  -11.6010 N.ar    1  UNL1       -0.1280
      4  C         24.5540  -21.6790  -12.3330 C.ar    1  UNL1        0.1640
      5  N         23.5010  -22.0270  -11.5040 N.ar    1  UNL1       -0.3030
      6  S         22.9490  -21.8660   -8.8160 S.3     1  UNL1       -0.0810
      7  C         22.6830  -23.6630   -8.8690 C.3     1  UNL1        0.1850
      8  C         21.2570  -24.0350   -8.4960 C.2     1  UNL1        0.2310
      9  N         20.5500  -23.0020   -7.9140 N.am    1  UNL1       -0.3270
     10  H         20.9740  -22.0760   -7.9720 H       1  UNL1        0.1690
     11  O         20.8410  -25.1770   -8.6850 O.2     1  UNL1       -0.2720
     12  C         19.3100  -23.0630   -7.2590 C.2     1  UNL1        0.0340
     13  C         18.4440  -24.1470   -7.3440 C.2     1  UNL1        0.0310
     14  C         17.2650  -24.1750   -6.5880 C.2     1  UNL1        0.0270
     15  C         16.9470  -23.0950   -5.7640 C.2     1  UNL1        0.0740
     16  C         17.7970  -21.9890   -5.6850 C.2     1  UNL1        0.0270
     17  C         18.9800  -21.9820   -6.4260 C.2     1  UNL1        0.0310
     18  S         15.4840  -23.1630   -4.7720 S.O2    1  UNL1        0.2390
     19  O         15.3550  -24.4840   -4.2000 O.2     1  UNL1       -0.2060
     20  O         14.4130  -22.5240   -5.4950 O.2     1  UNL1       -0.2060
     21  N         15.8690  -22.1530   -3.4850 N.3     1  UNL1       -0.2250
     22  H         16.2850  -21.2890   -3.8290 H       1  UNL1        0.1360
     23  H         15.0460  -22.0140   -2.9030 H       1  UNL1        0.1360
     24  C         22.3480  -22.8370  -11.8560 C.3     1  UNL1        0.1710
     25  C         21.0200  -22.1250  -11.7290 C.2     1  UNL1       -0.0370
     26  C         20.8280  -20.7750  -12.1090 C.2     1  UNL1        0.0120
     27  C         19.5870  -20.1420  -11.9500 C.2     1  UNL1        0.0400
     28  C         18.5620  -20.8700  -11.3900 C.2     1  UNL1        0.1050
     29  C         18.7400  -22.1710  -10.9950 C.2     1  UNL1        0.1050
     30  O         17.3000  -20.4250  -11.1530 O.2     1  UNL1       -0.3230
     31  C         19.9460  -22.8240  -11.1460 C.2     1  UNL1        0.0480
     32  O         17.6190  -22.7080  -10.4480 O.2     1  UNL1       -0.3230
     33  C         16.7080  -21.5940  -10.5550 C.3     1  UNL1        0.3520
     34  C         24.6900  -21.9820  -13.7580 C.2     1  UNL1        0.0120
     35  C         25.1320  -23.2590  -14.1370 C.2     1  UNL1        0.0150
     36  C         25.2810  -23.5890  -15.4840 C.2     1  UNL1        0.0010
     37  C         24.9970  -22.6400  -16.4650 C.2     1  UNL1        0.0000
     38  C         24.5660  -21.3650  -16.0990 C.2     1  UNL1        0.0010
     39  C         24.4240  -21.0360  -14.7510 C.2     1  UNL1        0.0150
@<TRIPOS>BOND
     1    37    38    2
     2    37    36    1
     3    38    39    1
     4    36    35    2
     5    39    34    2
     6    35    34    1
     7    34     4    1
     8     4     3   ar
     9     4     5   ar
    10    26    27    1
    11    26    25    2
    12    27    28    2
    13    24    25    1
    14    24     5    1
    15    25    31    1
    16     3     2   ar
    17     5     1   ar
    18    28    30    1
    19    28    29    1
    20    30    33    1
    21    31    29    2
    22    29    32    1
    23    33    32    1
    24     2     1   ar
    25     1     6    1
    26     7     6    1
    27     7     8    1
    28    11     8    2
    29     8     9   am
    30    10     9    1
    31     9    12    1
    32    13    12    2
    33    13    14    1
    34    12    17    1
    35    14    15    2
    36    17    16    2
    37    15    16    1
    38    15    18    1
    39    20    18    2
    40    18    19    2
    41    18    21    1
    42    22    21    1
    43    21    23    1
