@<TRIPOS>MOLECULE
83497_out_ligand_01.pdbqt
 36 39 0 0 0
SMALL
GASTEIGER

@<TRIPOS>ATOM
      1  C         23.9290  -21.6270  -10.4650 C.ar    1  UNL1        0.1920
      2  N         25.1990  -21.3010  -10.4480 N.ar    1  UNL1       -0.1220
      3  N         25.6470  -21.3150  -11.7390 N.ar    1  UNL1       -0.1280
      4  C         24.6310  -21.6010  -12.5370 C.ar    1  UNL1        0.1670
      5  N         23.5090  -21.8170  -11.7550 N.ar    1  UNL1       -0.3070
      6  S         22.9370  -21.8490   -9.0690 S.3     1  UNL1       -0.0810
      7  C         22.7320  -23.6520   -9.0590 C.3     1  UNL1        0.1850
      8  C         21.3490  -24.0410   -8.5620 C.2     1  UNL1        0.2310
      9  O         20.8840  -25.1450   -8.8210 O.2     1  UNL1       -0.2720
     10  N         20.7260  -23.0400   -7.8350 N.am    1  UNL1       -0.3270
     11  H         21.3140  -22.2490   -7.5660 H       1  UNL1        0.1690
     12  C         19.4240  -23.0380   -7.3090 C.2     1  UNL1        0.0340
     13  C         19.0270  -21.9040   -6.5910 C.2     1  UNL1        0.0310
     14  C         17.7410  -21.8160   -6.0450 C.2     1  UNL1        0.0210
     15  C         16.8240  -22.8530   -6.2250 C.2     1  UNL1        0.0050
     16  C         17.2250  -23.9900   -6.9310 C.2     1  UNL1        0.0210
     17  C         18.5140  -24.0810   -7.4710 C.2     1  UNL1        0.0310
     18  S         15.2080  -22.7120   -5.4930 S.3     1  UNL1       -0.0610
     19  C         15.4670  -23.6190   -3.9570 C.3     1  UNL1        0.4200
     20  F         16.7770  -23.9140   -3.7720 F       1  UNL1       -0.2020
     21  F         14.7920  -24.7930   -3.9640 F       1  UNL1       -0.2020
     22  C         22.2110  -22.2980  -12.1880 C.3     1  UNL1        0.1370
     23  C         21.2130  -21.1770  -12.4900 C.3     1  UNL1        0.0590
     24  C         19.8850  -21.4370  -11.8240 C.2     1  UNL1       -0.0570
     25  C         18.8760  -20.4660  -11.8550 C.2     1  UNL1        0.0070
     26  C         17.6370  -20.7160  -11.2650 C.2     1  UNL1        0.0010
     27  C         17.3960  -21.9390  -10.6380 C.2     1  UNL1        0.0000
     28  C         18.3920  -22.9130  -10.6050 C.2     1  UNL1        0.0010
     29  C         19.6330  -22.6640  -11.1920 C.2     1  UNL1        0.0070
     30  C         24.7400  -21.7460  -13.9860 C.2     1  UNL1        0.0500
     31  C         24.6340  -20.6060  -14.7970 C.2     1  UNL1        0.0180
     32  C         24.7290  -20.7090  -16.1880 C.2     1  UNL1        0.0010
     33  C         24.9230  -21.9530  -16.7850 C.2     1  UNL1        0.0030
     34  C         25.0090  -23.0960  -15.9920 C.2     1  UNL1        0.0430
     35  C         24.9090  -22.9840  -14.6070 C.2     1  UNL1        0.1300
     36  F         24.9700  -24.1080  -13.8780 F       1  UNL1       -0.2050
@<TRIPOS>BOND
     1    33    32    2
     2    33    34    1
     3    32    31    1
     4    34    35    2
     5    31    30    2
     6    35    30    1
     7    35    36    1
     8    30     4    1
     9     4     5   ar
    10     4     3   ar
    11    23    22    1
    12    23    24    1
    13    22     5    1
    14    25    24    2
    15    25    26    1
    16    24    29    1
    17     5     1   ar
    18     3     2   ar
    19    26    27    2
    20    29    28    2
    21    27    28    1
    22     1     2   ar
    23     1     6    1
    24     6     7    1
    25     7     8    1
    26     9     8    2
    27     8    10   am
    28    10    11    1
    29    10    12    1
    30    17    12    2
    31    17    16    1
    32    12    13    1
    33    16    15    2
    34    13    14    2
    35    15    14    1
    36    15    18    1
    37    18    19    1
    38    21    19    1
    39    19    20    1
