@<TRIPOS>MOLECULE
834_out_ligand_01.pdbqt
 30 32 0 0 0
SMALL
GASTEIGER

@<TRIPOS>ATOM
      1  C         21.4910  -22.1740  -10.6420 C.2     1  UNL1        0.0800
      2  C         21.1600  -21.3570  -11.7260 C.2     1  UNL1        0.0260
      3  C         19.8230  -21.0360  -11.9620 C.2     1  UNL1        0.0090
      4  C         18.8080  -21.5050  -11.1100 C.2     1  UNL1       -0.0460
      5  C         17.3790  -21.1350  -11.4030 C.3     1  UNL1        0.0490
      6  C         19.1600  -22.3150  -10.0100 C.2     1  UNL1        0.0390
      7  C         20.5020  -22.6470   -9.7760 C.2     1  UNL1        0.0420
      8  S         23.1930  -22.5850  -10.3280 S.O2    1  UNL1        0.2630
      9  O         23.9160  -21.3530  -10.0940 O.2     1  UNL1       -0.2000
     10  O         23.1960  -23.6500   -9.3450 O.2     1  UNL1       -0.2000
     11  N         23.6950  -23.2800  -11.7790 N.pl3   1  UNL1       -0.2810
     12  H         22.9670  -23.8500  -12.2080 H       1  UNL1        0.1790
     13  C         24.5610  -22.5530  -12.6420 C.2     1  UNL1        0.0420
     14  C         25.9440  -22.6010  -12.4800 C.2     1  UNL1        0.0300
     15  C         26.7720  -21.8510  -13.3180 C.2     1  UNL1        0.0090
     16  C         26.2220  -21.0410  -14.3200 C.2     1  UNL1       -0.0620
     17  C         27.1180  -20.2610  -15.2370 C.3     1  UNL1        0.0480
     18  C         24.8320  -21.0130  -14.4880 C.2     1  UNL1        0.0090
     19  C         24.0040  -21.7640  -13.6490 C.2     1  UNL1        0.0300
     20  C         18.1240  -22.8530   -9.0880 C.2     1  UNL1        0.2520
     21  O         16.9340  -22.7290   -9.3490 O.2     1  UNL1       -0.2680
     22  N         18.6120  -23.4680   -7.9560 N.am    1  UNL1       -0.3530
     23  H         19.5910  -23.3590   -7.7250 H       1  UNL1        0.1630
     24  C         17.7340  -23.8810   -6.8840 C.3     1  UNL1        0.1610
     25  C         17.9350  -23.0110   -5.6700 C.2     1  UNL1       -0.0410
     26  C         18.6590  -21.8120   -5.7730 C.2     1  UNL1        0.0090
     27  C         18.8710  -21.0140   -4.6480 C.2     1  UNL1        0.0010
     28  C         18.3640  -21.4050   -3.4100 C.2     1  UNL1        0.0000
     29  C         17.6470  -22.5950   -3.2940 C.2     1  UNL1        0.0010
     30  C         17.4360  -23.3970   -4.4180 C.2     1  UNL1        0.0090
@<TRIPOS>BOND
     1    17    16    1
     2    18    16    2
     3    18    19    1
     4    16    15    1
     5    19    13    2
     6    15    14    2
     7    13    14    1
     8    13    11    1
     9    12    11    1
    10     3     2    1
    11     3     4    2
    12    11     8    1
    13     2     1    2
    14     5     4    1
    15     4     6    1
    16     1     8    1
    17     1     7    1
    18     8     9    2
    19     8    10    2
    20     6     7    2
    21     6    20    1
    22    21    20    2
    23    20    22   am
    24    22    23    1
    25    22    24    1
    26    24    25    1
    27    26    25    2
    28    26    27    1
    29    25    30    1
    30    27    28    2
    31    30    29    2
    32    28    29    1
