@<TRIPOS>MOLECULE
83500_out_ligand_01.pdbqt
 37 40 0 0 0
SMALL
GASTEIGER

@<TRIPOS>ATOM
      1  C         22.3750  -22.4760   -8.7650 C.ar    1  UNL1        0.1920
      2  N         22.7060  -21.4030   -8.0880 N.ar    1  UNL1       -0.1220
      3  N         21.7160  -21.1670   -7.1700 N.ar    1  UNL1       -0.1280
      4  C         20.7650  -22.0680   -7.3420 C.ar    1  UNL1        0.1640
      5  N         21.1520  -22.9270   -8.3510 N.ar    1  UNL1       -0.3070
      6  S         23.3460  -23.2470   -9.9720 S.3     1  UNL1       -0.0820
      7  C         23.1980  -22.0560  -11.3450 C.3     1  UNL1        0.1660
      8  C         24.5620  -21.6970  -11.9170 C.2     1  UNL1        0.1770
      9  O         25.3860  -21.0220  -11.2920 O.2     1  UNL1       -0.2910
     10  C         24.8580  -22.1440  -13.3130 C.ar    1  UNL1        0.1170
     11  C         24.6930  -21.2970  -14.3480 C.ar    1  UNL1        0.1030
     12  N         24.8920  -21.7670  -15.6410 N.ar    1  UNL1       -0.2930
     13  C         24.8150  -20.8160  -16.7510 C.3     1  UNL1        0.1620
     14  C         25.2090  -23.0880  -15.9470 C.ar    1  UNL1        0.3320
     15  N         25.2790  -23.9590  -14.8710 N.ar    1  UNL1       -0.2700
     16  O         25.4270  -23.4700  -17.0980 O.2     1  UNL1       -0.2460
     17  C         25.2330  -23.5480  -13.5610 C.ar    1  UNL1        0.2680
     18  C         25.6070  -25.3450  -15.1450 C.3     1  UNL1        0.1640
     19  O         25.4870  -24.2830  -12.6060 O.2     1  UNL1       -0.2670
     20  N         24.3230  -19.9630  -14.1790 N.pl3   1  UNL1       -0.2870
     21  H         23.4980  -19.8730  -13.5740 H       1  UNL1        0.1250
     22  H         24.0570  -19.5770  -15.0870 H       1  UNL1        0.1250
     23  C         20.4460  -24.1080   -8.8060 C.3     1  UNL1        0.1370
     24  C         20.0560  -24.0230  -10.2820 C.3     1  UNL1        0.0590
     25  C         19.1240  -22.8670  -10.5380 C.2     1  UNL1       -0.0570
     26  C         17.7960  -22.9150  -10.0930 C.2     1  UNL1        0.0070
     27  C         16.9280  -21.8510  -10.3470 C.2     1  UNL1        0.0010
     28  C         17.3790  -20.7360  -11.0500 C.2     1  UNL1        0.0000
     29  C         18.6950  -20.6810  -11.5030 C.2     1  UNL1        0.0010
     30  C         19.5650  -21.7430  -11.2500 C.2     1  UNL1        0.0070
     31  C         19.5390  -22.1600   -6.5570 C.2     1  UNL1        0.0120
     32  C         18.6280  -23.2020   -6.7580 C.2     1  UNL1        0.0170
     33  C         17.4660  -23.2840   -5.9850 C.2     1  UNL1        0.0200
     34  C         17.2060  -22.3110   -5.0220 C.2     1  UNL1        0.0110
     35 BR         15.6400  -22.4240   -3.9710 Br      1  UNL1       -0.0510
     36  C         18.0880  -21.2470   -4.8360 C.2     1  UNL1        0.0200
     37  C         19.2520  -21.1720   -5.6050 C.2     1  UNL1        0.0170
@<TRIPOS>BOND
     1    16    14    2
     2    13    12    1
     3    14    12   ar
     4    14    15   ar
     5    12    11   ar
     6    18    15    1
     7    22    20    1
     8    15    17   ar
     9    11    20    1
    10    11    10   ar
    11    20    21    1
    12    17    10   ar
    13    17    19    2
    14    10     8    1
    15     8     7    1
    16     8     9    2
    17    29    30    1
    18    29    28    2
    19     7     6    1
    20    30    25    2
    21    28    27    1
    22    25    24    1
    23    25    26    1
    24    27    26    2
    25    24    23    1
    26     6     1    1
    27    23     5    1
    28     1     5   ar
    29     1     2   ar
    30     5     4   ar
    31     2     3   ar
    32     4     3   ar
    33     4    31    1
    34    32    31    2
    35    32    33    1
    36    31    37    1
    37    33    34    2
    38    37    36    2
    39    34    36    1
    40    34    35    1
