@<TRIPOS>MOLECULE
83515_out_ligand_01.pdbqt
 38 41 0 0 0
SMALL
GASTEIGER

@<TRIPOS>ATOM
      1  C         23.6750  -21.6440  -10.3900 C.ar    1  UNL1        0.1920
      2  N         24.9420  -21.3120  -10.3210 N.ar    1  UNL1       -0.1220
      3  N         25.4430  -21.3180  -11.5940 N.ar    1  UNL1       -0.1280
      4  C         24.4640  -21.6100  -12.4350 C.ar    1  UNL1        0.1670
      5  N         23.3110  -21.8300  -11.6990 N.ar    1  UNL1       -0.3070
      6  S         22.6230  -21.8660   -9.0380 S.3     1  UNL1       -0.0810
      7  C         22.4250  -23.6730   -9.0330 C.3     1  UNL1        0.1850
      8  C         21.0690  -24.0660   -8.4630 C.2     1  UNL1        0.2310
      9  N         20.4860  -23.0680   -7.7010 N.am    1  UNL1       -0.3270
     10  H         21.0990  -22.2940   -7.4330 H       1  UNL1        0.1690
     11  O         20.5920  -25.1770   -8.6850 O.2     1  UNL1       -0.2720
     12  C         19.2120  -23.0740   -7.1020 C.2     1  UNL1        0.0340
     13  C         18.8490  -21.9340   -6.3690 C.2     1  UNL1        0.0310
     14  C         17.5970  -21.8490   -5.7540 C.2     1  UNL1        0.0270
     15  C         16.7050  -22.9150   -5.8690 C.2     1  UNL1        0.0740
     16  C         17.0470  -24.0500   -6.6070 C.2     1  UNL1        0.0270
     17  C         18.3010  -24.1270   -7.2210 C.2     1  UNL1        0.0310
     18  S         15.1070  -22.8260   -5.1170 S.O2    1  UNL1        0.2390
     19  O         14.2680  -21.9240   -5.8730 O.2     1  UNL1       -0.2060
     20  O         14.6850  -24.1600   -4.7580 O.2     1  UNL1       -0.2060
     21  N         15.4340  -22.0270   -3.6770 N.3     1  UNL1       -0.2250
     22  H         14.7730  -22.3230   -2.9580 H       1  UNL1        0.1360
     23  H         15.4460  -21.0210   -3.8380 H       1  UNL1        0.1360
     24  C         22.0230  -22.2770  -12.1900 C.3     1  UNL1        0.1370
     25  C         21.0310  -21.1320  -12.4030 C.3     1  UNL1        0.0590
     26  C         19.6980  -21.4260  -11.7590 C.2     1  UNL1       -0.0570
     27  C         19.4790  -22.6490  -11.1110 C.2     1  UNL1        0.0070
     28  C         18.2460  -22.9230  -10.5180 C.2     1  UNL1        0.0010
     29  C         17.2250  -21.9730  -10.5590 C.2     1  UNL1        0.0000
     30  C         17.4370  -20.7500  -11.1910 C.2     1  UNL1        0.0010
     31  C         18.6690  -20.4750  -11.7880 C.2     1  UNL1        0.0070
     32  C         24.6330  -21.7590  -13.8790 C.2     1  UNL1        0.0500
     33  C         24.5230  -20.6280  -14.7030 C.2     1  UNL1        0.0180
     34  C         24.6770  -20.7350  -16.0880 C.2     1  UNL1        0.0010
     35  C         24.9290  -21.9760  -16.6700 C.2     1  UNL1        0.0030
     36  C         25.0210  -23.1110  -15.8650 C.2     1  UNL1        0.0430
     37  C         24.8640  -22.9970  -14.4860 C.2     1  UNL1        0.1300
     38  F         24.9330  -24.1160  -13.7490 F       1  UNL1       -0.2050
@<TRIPOS>BOND
     1    35    34    2
     2    35    36    1
     3    34    33    1
     4    36    37    2
     5    33    32    2
     6    37    32    1
     7    37    38    1
     8    32     4    1
     9     4     5   ar
    10     4     3   ar
    11    25    24    1
    12    25    26    1
    13    24     5    1
    14    31    26    2
    15    31    30    1
    16    26    27    1
    17     5     1   ar
    18     3     2   ar
    19    30    29    2
    20    27    28    2
    21    29    28    1
    22     1     2   ar
    23     1     6    1
    24     6     7    1
    25     7     8    1
    26    11     8    2
    27     8     9   am
    28     9    10    1
    29     9    12    1
    30    17    12    2
    31    17    16    1
    32    12    13    1
    33    16    15    2
    34    13    14    2
    35    19    18    2
    36    15    14    1
    37    15    18    1
    38    18    20    2
    39    18    21    1
    40    23    21    1
    41    21    22    1
