@<TRIPOS>MOLECULE
83539_out_ligand_01.pdbqt
 31 34 0 0 0
SMALL
GASTEIGER

@<TRIPOS>ATOM
      1  C         20.1090  -22.1080  -10.8270 C.3     1  UNL1        0.1370
      2  N         19.3020  -21.9280   -9.6290 N.am    1  UNL1       -0.3560
      3  C         18.1200  -22.6220   -9.4660 C.2     1  UNL1        0.2510
      4  O         17.6120  -23.3150  -10.3400 O.2     1  UNL1       -0.2680
      5  H         19.8040  -21.6670   -8.7900 H       1  UNL1        0.1620
      6  C         17.4780  -22.5180   -8.1260 C.2     1  UNL1        0.0320
      7  C         18.2970  -22.3400   -7.0050 C.2     1  UNL1        0.0180
      8  C         17.7330  -22.2360   -5.7300 C.2     1  UNL1        0.0180
      9  C         16.3460  -22.3290   -5.5640 C.2     1  UNL1        0.0310
     10  C         15.5240  -22.5090   -6.6840 C.2     1  UNL1        0.0180
     11  C         16.0880  -22.6090   -7.9610 C.2     1  UNL1        0.0180
     12  C         15.7920  -22.2120   -4.1890 C.2     1  UNL1        0.2490
     13  N         16.6840  -22.1550   -3.1530 N.am    1  UNL1       -0.3660
     14  H         17.6530  -21.9100   -3.2970 H       1  UNL1        0.1590
     15  H         16.2850  -21.9390   -2.2480 H       1  UNL1        0.1590
     16  O         14.5880  -22.1360   -3.9840 O.2     1  UNL1       -0.2680
     17  C         21.5910  -22.4310  -10.5090 C.3     1  UNL1        0.0030
     18  C         22.1190  -21.5170   -9.3770 C.3     1  UNL1        0.0160
     19  C         23.3020  -22.2770   -8.7810 C.3     1  UNL1        0.0010
     20  C         22.9890  -23.7570   -8.9910 C.3     1  UNL1        0.0010
     21  C         21.6870  -23.8000   -9.7910 C.3     1  UNL1        0.0160
     22  C         22.4530  -22.2760  -11.7800 C.2     1  UNL1       -0.0450
     23  C         22.1310  -21.3860  -12.8190 C.2     1  UNL1        0.0110
     24  C         22.9580  -21.2490  -13.9400 C.2     1  UNL1        0.0400
     25  C         24.1270  -21.9930  -14.0420 C.2     1  UNL1        0.1020
     26  C         24.4570  -22.8990  -13.0370 C.2     1  UNL1        0.1020
     27  O         24.8980  -21.7880  -15.1560 O.2     1  UNL1       -0.3460
     28  C         23.6400  -23.0260  -11.9120 C.2     1  UNL1        0.0470
     29  O         25.5770  -23.6900  -13.0760 O.2     1  UNL1       -0.3460
     30  C         26.1360  -23.7350  -14.3940 C.3     1  UNL1        0.2020
     31  C         26.2100  -22.3400  -14.9920 C.3     1  UNL1        0.2020
@<TRIPOS>BOND
     1    27    31    1
     2    27    25    1
     3    31    30    1
     4    30    29    1
     5    25    24    2
     6    25    26    1
     7    24    23    1
     8    29    26    1
     9    26    28    2
    10    23    22    2
    11    28    22    1
    12    22    17    1
    13     1    17    1
    14     1     2    1
    15    17    21    1
    16    17    18    1
    17     4     3    2
    18    21    20    1
    19     2     3   am
    20     2     5    1
    21     3     6    1
    22    18    19    1
    23    20    19    1
    24     6    11    2
    25     6     7    1
    26    11    10    1
    27     7     8    2
    28    10     9    2
    29     8     9    1
    30     9    12    1
    31    12    16    2
    32    12    13   am
    33    14    13    1
    34    13    15    1
