@<TRIPOS>MOLECULE
83556_out_ligand_01.pdbqt
 37 40 0 0 0
SMALL
GASTEIGER

@<TRIPOS>ATOM
      1  C         23.9840  -21.5100  -10.6280 C.ar    1  UNL1        0.1920
      2  N         25.2000  -21.0230  -10.6540 N.ar    1  UNL1       -0.1220
      3  N         25.6240  -21.0370  -11.9550 N.ar    1  UNL1       -0.1280
      4  C         24.6690  -21.5560  -12.7100 C.ar    1  UNL1        0.1670
      5  N         23.5920  -21.8580  -11.8960 N.ar    1  UNL1       -0.3070
      6  S         23.0090  -21.6820   -9.2120 S.3     1  UNL1       -0.0810
      7  C         22.9350  -23.4890   -9.0650 C.3     1  UNL1        0.1860
      8  C         21.5840  -23.9400   -8.5510 C.2     1  UNL1        0.2450
      9  O         21.1250  -25.0640   -8.7840 O.2     1  UNL1       -0.2710
     10  N         20.8810  -22.9840   -7.8370 N.am    1  UNL1       -0.2670
     11  H         21.3330  -22.1520   -7.4300 H       1  UNL1        0.1900
     12  N         19.6230  -23.3340   -7.3360 N.am    1  UNL1       -0.2630
     13  C         18.9490  -22.4220   -6.5520 C.2     1  UNL1        0.2700
     14  O         19.4550  -21.3850   -6.1310 O.2     1  UNL1       -0.2660
     15  H         19.2180  -24.1930   -7.7020 H       1  UNL1        0.1900
     16  C         17.5400  -22.7610   -6.2050 C.2     1  UNL1        0.0330
     17  C         16.9180  -22.2650   -5.0480 C.2     1  UNL1        0.0200
     18  C         15.6020  -22.6390   -4.7490 C.2     1  UNL1        0.0430
     19  C         14.9200  -23.5050   -5.5980 C.2     1  UNL1        0.1160
     20  F         13.6590  -23.8640   -5.3050 F       1  UNL1       -0.2060
     21  C         15.5260  -24.0100   -6.7420 C.2     1  UNL1        0.0430
     22  C         16.8420  -23.6420   -7.0460 C.2     1  UNL1        0.0200
     23  C         22.2850  -22.3270  -12.3060 C.3     1  UNL1        0.1370
     24  C         21.2980  -21.1770  -12.5030 C.3     1  UNL1        0.0590
     25  C         19.9870  -21.4610  -11.8150 C.2     1  UNL1       -0.0570
     26  C         18.9350  -20.5330  -11.8770 C.2     1  UNL1        0.0070
     27  C         17.7150  -20.8100  -11.2560 C.2     1  UNL1        0.0010
     28  C         17.5320  -22.0170  -10.5760 C.2     1  UNL1        0.0000
     29  C         18.5700  -22.9460  -10.5150 C.2     1  UNL1        0.0010
     30  C         19.7910  -22.6720  -11.1350 C.2     1  UNL1        0.0070
     31  C         24.7600  -21.7260  -14.1550 C.2     1  UNL1        0.0500
     32  C         24.7430  -20.5950  -14.9830 C.2     1  UNL1        0.0180
     33  C         24.8570  -20.7310  -16.3700 C.2     1  UNL1        0.0010
     34  C         25.0110  -21.9970  -16.9410 C.2     1  UNL1        0.0030
     35  C         25.0400  -23.1250  -16.1270 C.2     1  UNL1        0.0430
     36  C         24.9210  -22.9850  -14.7450 C.2     1  UNL1        0.1300
     37  F         24.9790  -24.0880  -13.9860 F       1  UNL1       -0.2050
@<TRIPOS>BOND
     1    34    33    2
     2    34    35    1
     3    33    32    1
     4    35    36    2
     5    32    31    2
     6    36    31    1
     7    36    37    1
     8    31     4    1
     9     4     3   ar
    10     4     5   ar
    11    24    23    1
    12    24    25    1
    13    23     5    1
    14     3     2   ar
    15     5     1   ar
    16    26    25    2
    17    26    27    1
    18    25    30    1
    19    27    28    2
    20    30    29    2
    21     2     1   ar
    22     1     6    1
    23    28    29    1
    24     6     7    1
    25     7     8    1
    26     9     8    2
    27     8    10   am
    28    10    11    1
    29    10    12    1
    30    15    12    1
    31    12    13   am
    32    22    21    1
    33    22    16    2
    34    21    19    2
    35    13    16    1
    36    13    14    2
    37    16    17    1
    38    19    20    1
    39    19    18    1
    40    17    18    2
