@<TRIPOS>MOLECULE
83567_out_ligand_01.pdbqt
 38 42 0 0 0
SMALL
GASTEIGER

@<TRIPOS>ATOM
      1  C         23.6320  -21.7230  -10.1010 C.ar    1  UNL1        0.1920
      2  N         24.8580  -21.2720   -9.9760 N.ar    1  UNL1       -0.1220
      3  N         25.4340  -21.2710  -11.2180 N.ar    1  UNL1       -0.1280
      4  C         24.5310  -21.6770  -12.0910 C.ar    1  UNL1        0.1640
      5  N         23.3670  -21.9780  -11.4150 N.ar    1  UNL1       -0.3070
      6  S         22.5140  -21.9680   -8.8080 S.3     1  UNL1       -0.0810
      7  C         22.3120  -23.7740   -8.8580 C.3     1  UNL1        0.1850
      8  C         20.9250  -24.1820   -8.3840 C.2     1  UNL1        0.2310
      9  O         20.4530  -25.2720   -8.6940 O.2     1  UNL1       -0.2720
     10  N         20.3010  -23.2180   -7.6120 N.am    1  UNL1       -0.3260
     11  H         20.8840  -22.4310   -7.3200 H       1  UNL1        0.1690
     12  C         19.0050  -23.2510   -7.0600 C.2     1  UNL1        0.0370
     13  C         18.1370  -24.2620   -7.5540 C.2     1  UNL1        0.0320
     14  C         16.8280  -24.4090   -7.0750 C.2     1  UNL1        0.0340
     15  C         16.4290  -23.5280   -6.1040 C.ar    1  UNL1        0.0630
     16  N         15.2140  -23.4240   -5.4380 N.ar    1  UNL1       -0.3070
     17  C         17.2740  -22.5340   -5.6130 C.ar    1  UNL1        0.0650
     18  C         15.2920  -22.3630   -4.5220 C.ar    1  UNL1        0.3250
     19  H         14.3970  -23.9980   -5.5630 H       1  UNL1        0.1700
     20  O         14.4090  -21.9890   -3.7730 O.2     1  UNL1       -0.2470
     21  N         16.5780  -21.8220   -4.6410 N.ar    1  UNL1       -0.3060
     22  H         16.9150  -21.0390   -4.1030 H       1  UNL1        0.1700
     23  C         18.5630  -22.3670   -6.0680 C.2     1  UNL1        0.0610
     24  C         22.1260  -22.4420  -12.0020 C.3     1  UNL1        0.1370
     25  C         21.1900  -21.2830  -12.3410 C.3     1  UNL1        0.0590
     26  C         19.8210  -21.4870  -11.7510 C.2     1  UNL1       -0.0570
     27  C         19.4810  -22.7070  -11.1480 C.2     1  UNL1        0.0070
     28  C         18.2140  -22.8910  -10.5950 C.2     1  UNL1        0.0010
     29  C         17.2790  -21.8590  -10.6310 C.2     1  UNL1        0.0000
     30  C         17.6080  -20.6410  -11.2190 C.2     1  UNL1        0.0010
     31  C         18.8760  -20.4520  -11.7750 C.2     1  UNL1        0.0070
     32  C         24.7190  -21.7770  -13.5300 C.2     1  UNL1        0.0120
     33  C         24.6090  -20.6390  -14.3380 C.2     1  UNL1        0.0170
     34  C         24.8130  -20.7330  -15.7190 C.2     1  UNL1        0.0200
     35  C         25.1250  -21.9680  -16.2880 C.2     1  UNL1        0.0110
     36 BR         25.4090  -22.0980  -18.1530 Br      1  UNL1       -0.0510
     37  C         25.2270  -23.1100  -15.4940 C.2     1  UNL1        0.0200
     38  C         25.0180  -23.0150  -14.1150 C.2     1  UNL1        0.0170
@<TRIPOS>BOND
     1    36    35    1
     2    35    34    2
     3    35    37    1
     4    34    33    1
     5    37    38    2
     6    33    32    2
     7    38    32    1
     8    32     4    1
     9    25    24    1
    10    25    26    1
    11     4     5   ar
    12     4     3   ar
    13    24     5    1
    14    31    26    2
    15    31    30    1
    16    26    27    1
    17     5     1   ar
    18    30    29    2
    19     3     2   ar
    20    27    28    2
    21    29    28    1
    22     1     2   ar
    23     1     6    1
    24     7     6    1
    25     7     8    1
    26     9     8    2
    27     8    10   am
    28    10    11    1
    29    10    12    1
    30    13    14    1
    31    13    12    2
    32    14    15    2
    33    12    23    1
    34    15    17   ar
    35    15    16   ar
    36    23    17    2
    37    17    21   ar
    38    19    16    1
    39    16    18   ar
    40    21    18   ar
    41    21    22    1
    42    18    20    2
