@<TRIPOS>MOLECULE
83566_out_ligand_01.pdbqt
 36 39 0 0 0
SMALL
GASTEIGER

@<TRIPOS>ATOM
      1  C         24.0190  -21.7940  -10.6640 C.ar    1  UNL1        0.1920
      2  N         25.3180  -21.6210  -10.6510 N.ar    1  UNL1       -0.1220
      3  N         25.7470  -21.5990  -11.9500 N.ar    1  UNL1       -0.1280
      4  C         24.7000  -21.7380  -12.7460 C.ar    1  UNL1        0.1670
      5  N         23.5770  -21.9060  -11.9540 N.ar    1  UNL1       -0.3070
      6  S         23.0050  -21.8960   -9.2690 S.3     1  UNL1       -0.0810
      7  C         22.7350  -23.6910   -9.1530 C.3     1  UNL1        0.1850
      8  C         21.3490  -24.0010   -8.6020 C.2     1  UNL1        0.2310
      9  O         20.8270  -25.0980   -8.7930 O.2     1  UNL1       -0.2720
     10  N         20.7860  -22.9450   -7.9100 N.am    1  UNL1       -0.3270
     11  H         21.2280  -22.0300   -8.0450 H       1  UNL1        0.1690
     12  C         19.5620  -22.9320   -7.2120 C.2     1  UNL1        0.0340
     13  C         19.2840  -21.8110   -6.4260 C.2     1  UNL1        0.0320
     14  C         18.0950  -21.7290   -5.7010 C.2     1  UNL1        0.0390
     15  C         17.1620  -22.7670   -5.7490 C.2     1  UNL1        0.0750
     16  C         17.4470  -23.8980   -6.5140 C.2     1  UNL1        0.0390
     17  C         18.6410  -23.9780   -7.2420 C.2     1  UNL1        0.0320
     18  O         16.0370  -22.5620   -5.0030 O.2     1  UNL1       -0.2900
     19  C         14.8060  -22.5470   -5.7090 C.3     1  UNL1        0.5050
     20  F         14.0470  -21.5530   -5.1800 F       1  UNL1       -0.1840
     21  F         14.1410  -23.7080   -5.4710 F       1  UNL1       -0.1840
     22  C         22.2400  -22.2550  -12.3910 C.3     1  UNL1        0.1370
     23  C         21.3070  -21.0440  -12.3970 C.3     1  UNL1        0.0590
     24  C         19.9570  -21.3930  -11.8180 C.2     1  UNL1       -0.0570
     25  C         18.9160  -20.4530  -11.8280 C.2     1  UNL1        0.0070
     26  C         17.6810  -20.7570  -11.2520 C.2     1  UNL1        0.0010
     27  C         17.4770  -22.0020  -10.6620 C.2     1  UNL1        0.0000
     28  C         18.5050  -22.9450  -10.6490 C.2     1  UNL1        0.0010
     29  C         19.7410  -22.6440  -11.2250 C.2     1  UNL1        0.0070
     30  C         24.7660  -21.7990  -14.2010 C.2     1  UNL1        0.0500
     31  C         24.8100  -23.0480  -14.8350 C.2     1  UNL1        0.0180
     32  C         24.8840  -23.1340  -16.2290 C.2     1  UNL1        0.0010
     33  C         24.9230  -21.9730  -17.0050 C.2     1  UNL1        0.0030
     34  C         24.9020  -20.7240  -16.3870 C.2     1  UNL1        0.0430
     35  C         24.8320  -20.6470  -14.9950 C.2     1  UNL1        0.1300
     36  F         24.8370  -19.4320  -14.4230 F       1  UNL1       -0.2050
@<TRIPOS>BOND
     1    33    34    2
     2    33    32    1
     3    34    35    1
     4    32    31    2
     5    35    36    1
     6    35    30    2
     7    31    30    1
     8    30     4    1
     9     4     5   ar
    10     4     3   ar
    11    23    22    1
    12    23    24    1
    13    22     5    1
    14     5     1   ar
    15     3     2   ar
    16    25    24    2
    17    25    26    1
    18    24    29    1
    19    26    27    2
    20    29    28    2
    21     1     2   ar
    22     1     6    1
    23    27    28    1
    24     6     7    1
    25     7     8    1
    26     9     8    2
    27     8    10   am
    28    11    10    1
    29    10    12    1
    30    17    12    2
    31    17    16    1
    32    12    13    1
    33    16    15    2
    34    13    14    2
    35    15    14    1
    36    15    18    1
    37    19    21    1
    38    19    20    1
    39    19    18    1
