@<TRIPOS>MOLECULE
83579_out_ligand_01.pdbqt
 35 39 0 0 0
SMALL
GASTEIGER

@<TRIPOS>ATOM
      1  C         21.0830  -22.4010   -7.6960 C.ar    1  UNL1        0.1920
      2  N         21.1010  -21.3980   -6.8520 N.ar    1  UNL1       -0.1220
      3  N         19.8700  -21.3260   -6.2650 N.ar    1  UNL1       -0.1280
      4  C         19.1070  -22.2870   -6.7610 C.ar    1  UNL1        0.1670
      5  N         19.8630  -23.0190   -7.6590 N.ar    1  UNL1       -0.3070
      6  S         22.4060  -22.8920   -8.6910 S.3     1  UNL1       -0.0810
      7  C         22.9880  -21.2880   -9.3250 C.3     1  UNL1        0.1850
      8  C         23.9310  -21.4700  -10.5060 C.2     1  UNL1        0.2310
      9  O         25.0660  -20.9990  -10.4750 O.2     1  UNL1       -0.2720
     10  N         23.3670  -22.1720  -11.5560 N.am    1  UNL1       -0.3260
     11  H         22.4490  -22.5850  -11.3830 H       1  UNL1        0.1690
     12  C         23.9550  -22.5010  -12.7930 C.2     1  UNL1        0.0370
     13  C         24.7900  -23.6420  -12.8100 C.2     1  UNL1        0.0320
     14  C         25.4260  -24.0560  -13.9860 C.2     1  UNL1        0.0420
     15  C         25.2050  -23.3160  -15.1250 C.2     1  UNL1        0.1050
     16  C         24.3880  -22.2100  -15.1160 C.2     1  UNL1        0.1070
     17  O         25.7330  -23.5650  -16.3530 O.2     1  UNL1       -0.3230
     18  C         23.7520  -21.7760  -13.9700 C.2     1  UNL1        0.0690
     19  O         24.2980  -21.6280  -16.3450 O.2     1  UNL1       -0.3230
     20  C         25.1460  -22.4950  -17.1220 C.3     1  UNL1        0.3520
     21  C         19.4830  -24.2420   -8.3360 C.3     1  UNL1        0.1370
     22  C         19.6320  -24.1240   -9.8520 C.3     1  UNL1        0.0590
     23  C         18.9030  -22.9170  -10.3820 C.2     1  UNL1       -0.0570
     24  C         17.5110  -22.8170  -10.2590 C.2     1  UNL1        0.0070
     25  C         16.8350  -21.7120  -10.7760 C.2     1  UNL1        0.0010
     26  C         17.5440  -20.6970  -11.4210 C.2     1  UNL1        0.0000
     27  C         18.9280  -20.7900  -11.5510 C.2     1  UNL1        0.0010
     28  C         19.6070  -21.8970  -11.0360 C.2     1  UNL1        0.0070
     29  C         17.7310  -22.5460   -6.3520 C.2     1  UNL1        0.0500
     30  C         16.6760  -22.0380   -7.1250 C.2     1  UNL1        0.0180
     31  C         15.3490  -22.2820   -6.7630 C.2     1  UNL1        0.0010
     32  C         15.0600  -23.0450   -5.6300 C.2     1  UNL1        0.0030
     33  C         16.0990  -23.5740   -4.8680 C.2     1  UNL1        0.0430
     34  C         17.4200  -23.3290   -5.2360 C.2     1  UNL1        0.1300
     35  F         18.3990  -23.8610   -4.4890 F       1  UNL1       -0.2050
@<TRIPOS>BOND
     1    20    17    1
     2    20    19    1
     3    17    15    1
     4    19    16    1
     5    15    16    2
     6    15    14    1
     7    16    18    1
     8    14    13    2
     9    18    12    2
    10    13    12    1
    11    12    10    1
    12    10    11    1
    13    10     8   am
    14    27    26    2
    15    27    28    1
    16    26    25    1
    17    28    23    2
    18    25    24    2
    19     8     9    2
    20     8     7    1
    21    23    24    1
    22    23    22    1
    23    22    21    1
    24     7     6    1
    25     6     1    1
    26    21     5    1
    27     1     5   ar
    28     1     2   ar
    29     5     4   ar
    30    30    31    1
    31    30    29    2
    32     2     3   ar
    33    31    32    2
    34     4    29    1
    35     4     3   ar
    36    29    34    1
    37    32    33    1
    38    34    33    2
    39    34    35    1
