@<TRIPOS>MOLECULE
83589_out_ligand_01.pdbqt
 30 32 0 0 0
SMALL
GASTEIGER

@<TRIPOS>ATOM
      1  C         18.0530  -23.0140   -5.4560 C.2     1  UNL1        0.0790
      2  C         17.9370  -24.2280   -6.1410 C.2     1  UNL1        0.0260
      3  C         18.6720  -24.4370   -7.3110 C.2     1  UNL1        0.0180
      4  C         19.5220  -23.4290   -7.7950 C.2     1  UNL1        0.0320
      5  C         19.6010  -22.2030   -7.1190 C.2     1  UNL1        0.0180
      6  C         18.8660  -21.9910   -5.9500 C.2     1  UNL1        0.0260
      7  C         20.3270  -23.6070   -9.0380 C.2     1  UNL1        0.2560
      8  O         20.4340  -24.7340   -9.5040 O.2     1  UNL1       -0.2670
      9  N         20.8440  -22.4410   -9.5690 N.am    1  UNL1       -0.3220
     10  H         20.5580  -21.5650   -9.1470 H       1  UNL1        0.1690
     11  C         21.6680  -22.2930  -10.7110 C.2     1  UNL1        0.0550
     12  C         22.9570  -22.8280  -10.7990 C.2     1  UNL1        0.0700
     13  C         23.7200  -22.6480  -11.9560 C.2     1  UNL1        0.1040
     14  C         23.2180  -21.9030  -13.0260 C.2     1  UNL1        0.1030
     15  O         24.9650  -23.2240  -11.9670 O.2     1  UNL1       -0.3460
     16  C         21.9340  -21.3710  -12.9610 C.2     1  UNL1        0.0610
     17  O         23.9270  -21.6610  -14.1740 O.2     1  UNL1       -0.3460
     18  C         21.1670  -21.5630  -11.8090 C.2     1  UNL1        0.0400
     19 BR         19.4230  -20.7990  -11.7730 Br      1  UNL1       -0.0490
     20  C         25.3190  -21.9500  -14.0010 C.3     1  UNL1        0.2020
     21  C         25.5060  -23.2800  -13.2910 C.3     1  UNL1        0.2020
     22  S         17.0920  -22.7570   -3.9860 S.O2    1  UNL1        0.2590
     23  O         17.8000  -21.7790   -3.1880 O.2     1  UNL1       -0.2010
     24  O         16.7260  -24.0430   -3.4390 O.2     1  UNL1       -0.2010
     25  N         15.7240  -21.9790   -4.5350 N.3     1  UNL1       -0.3070
     26  H         15.6030  -21.0490   -4.1370 H       1  UNL1        0.1730
     27  C         14.7650  -22.4320   -5.5610 C.3     1  UNL1        0.0290
     28  C         14.2680  -23.8610   -5.3470 C.3     1  UNL1        0.0380
     29  C         13.5560  -21.4810   -5.4760 C.3     1  UNL1        0.0380
     30  C         15.4040  -22.2900   -6.9470 C.3     1  UNL1        0.0380
@<TRIPOS>BOND
     1    17    20    1
     2    17    14    1
     3    20    21    1
     4    21    15    1
     5    14    16    2
     6    14    13    1
     7    16    18    1
     8    15    13    1
     9    13    12    2
    10    18    19    1
    11    18    11    2
    12    12    11    1
    13    11     9    1
    14     9    10    1
    15     9     7   am
    16     8     7    2
    17     7     4    1
    18     4     3    2
    19     4     5    1
    20     3     2    1
    21     5     6    2
    22    30    27    1
    23     2     1    2
    24     6     1    1
    25    27    29    1
    26    27    28    1
    27    27    25    1
    28     1    22    1
    29    25    26    1
    30    25    22    1
    31    22    24    2
    32    22    23    2
