@<TRIPOS>MOLECULE
83584_out_ligand_01.pdbqt
 36 39 0 0 0
SMALL
GASTEIGER

@<TRIPOS>ATOM
      1  C         20.9690  -22.3730   -7.6450 C.ar    1  UNL1        0.1920
      2  N         21.1330  -21.3460   -6.8510 N.ar    1  UNL1       -0.1220
      3  N         19.9540  -21.1570   -6.1760 N.ar    1  UNL1       -0.1280
      4  C         19.0810  -22.0600   -6.5870 C.ar    1  UNL1        0.1670
      5  N         19.7080  -22.8810   -7.5090 N.ar    1  UNL1       -0.3070
      6  S         22.1990  -23.0180   -8.6680 S.3     1  UNL1       -0.0810
      7  C         23.0840  -21.5010   -9.1140 C.3     1  UNL1        0.1850
      8  C         24.0320  -21.6130  -10.2970 C.2     1  UNL1        0.2320
      9  N         23.6970  -22.5680  -11.2360 N.am    1  UNL1       -0.3200
     10  H         23.2800  -23.4270  -10.8870 H       1  UNL1        0.1690
     11  O         24.9970  -20.8490  -10.3770 O.2     1  UNL1       -0.2720
     12  C         24.3380  -22.6560  -12.4530 C.2     1  UNL1        0.0920
     13  S         25.5910  -23.8090  -12.4640 S.3     1  UNL1       -0.0830
     14  C         26.0640  -23.3600  -14.0440 C.2     1  UNL1        0.0530
     15  C         25.2230  -22.4070  -14.5760 C.2     1  UNL1        0.0270
     16  C         24.1700  -22.0220  -13.6690 C.2     1  UNL1        0.0660
     17  C         23.0580  -21.1440  -14.0020 C.2     1  UNL1        0.2520
     18  N         23.2680  -20.3450  -15.0950 N.am    1  UNL1       -0.3660
     19  H         22.6000  -19.5890  -15.1730 H       1  UNL1        0.1590
     20  H         24.2260  -20.1100  -15.3180 H       1  UNL1        0.1590
     21  O         22.0010  -21.1060  -13.3810 O.2     1  UNL1       -0.2680
     22  C         19.1710  -24.0780   -8.1190 C.3     1  UNL1        0.1370
     23  C         19.3720  -24.0920   -9.6340 C.3     1  UNL1        0.0590
     24  C         18.7080  -22.9020  -10.2780 C.2     1  UNL1       -0.0570
     25  C         17.3340  -22.6810  -10.1100 C.2     1  UNL1        0.0070
     26  C         16.7250  -21.5630  -10.6800 C.2     1  UNL1        0.0010
     27  C         17.4840  -20.6560  -11.4190 C.2     1  UNL1        0.0000
     28  C         18.8510  -20.8650  -11.5880 C.2     1  UNL1        0.0010
     29  C         19.4620  -21.9830  -11.0190 C.2     1  UNL1        0.0070
     30  C         17.7220  -22.1960   -6.0800 C.2     1  UNL1        0.0500
     31  C         16.6470  -22.2130   -6.9800 C.2     1  UNL1        0.0180
     32  C         15.3350  -22.3350   -6.5120 C.2     1  UNL1        0.0010
     33  C         15.0850  -22.4530   -5.1440 C.2     1  UNL1        0.0030
     34  C         16.1470  -22.4590   -4.2430 C.2     1  UNL1        0.0430
     35  C         17.4530  -22.3400   -4.7150 C.2     1  UNL1        0.1300
     36  F         18.4590  -22.3750   -3.8290 F       1  UNL1       -0.2050
@<TRIPOS>BOND
     1    20    18    1
     2    19    18    1
     3    18    17   am
     4    15    14    2
     5    15    16    1
     6    14    13    1
     7    17    16    1
     8    17    21    2
     9    16    12    2
    10    13    12    1
    11    12     9    1
    12    28    27    2
    13    28    29    1
    14    27    26    1
    15     9    10    1
    16     9     8   am
    17    29    24    2
    18    26    25    2
    19    11     8    2
    20     8     7    1
    21    24    25    1
    22    24    23    1
    23    23    22    1
    24     7     6    1
    25     6     1    1
    26    22     5    1
    27     1     5   ar
    28     1     2   ar
    29     5     4   ar
    30    31    32    1
    31    31    30    2
    32     2     3   ar
    33     4     3   ar
    34     4    30    1
    35    32    33    2
    36    30    35    1
    37    33    34    1
    38    35    34    2
    39    35    36    1
