@<TRIPOS>MOLECULE
83591_out_ligand_01.pdbqt
 35 38 0 0 0
SMALL
GASTEIGER

@<TRIPOS>ATOM
      1  C         24.1520  -22.6750  -12.7520 C.2     1  UNL1        0.0360
      2  C         24.8630  -23.8630  -12.8270 C.2     1  UNL1        0.0290
      3  C         25.5120  -24.2260  -14.0090 C.2     1  UNL1        0.0040
      4  C         25.4550  -23.3970  -15.1290 C.2     1  UNL1        0.0230
      5  C         24.7490  -22.2040  -15.0660 C.2     1  UNL1        0.0460
      6  C         24.6530  -21.3660  -16.2210 C.1     1  UNL1        0.0990
      7  N         24.5460  -20.6980  -17.1660 N.1     1  UNL1       -0.1910
      8  C         24.0960  -21.8450  -13.8810 C.2     1  UNL1        0.0520
      9  N         23.4450  -22.2550  -11.6070 N.am    1  UNL1       -0.3260
     10  C         23.8930  -21.4730  -10.5610 C.2     1  UNL1        0.2310
     11  O         25.0070  -20.9550  -10.4770 O.2     1  UNL1       -0.2720
     12  H         22.4760  -22.5650  -11.5680 H       1  UNL1        0.1690
     13  C         22.9340  -21.3720   -9.3830 C.3     1  UNL1        0.1850
     14  S         22.3350  -22.9660   -8.7650 S.3     1  UNL1       -0.0810
     15  C         21.1250  -22.4140   -7.6710 C.ar    1  UNL1        0.1920
     16  N         21.2400  -21.3430   -6.9240 N.ar    1  UNL1       -0.1220
     17  N         20.0530  -21.1720   -6.2610 N.ar    1  UNL1       -0.1280
     18  C         19.2170  -22.1150   -6.6490 C.ar    1  UNL1        0.1670
     19  N         19.8820  -22.9540   -7.5290 N.ar    1  UNL1       -0.3070
     20  C         17.8270  -22.2380   -6.2420 C.2     1  UNL1        0.0450
     21  C         16.8100  -22.1110   -7.2020 C.2     1  UNL1        0.0180
     22  C         15.4700  -22.2270   -6.8300 C.2     1  UNL1        0.0010
     23  C         15.1310  -22.4460   -5.4960 C.2     1  UNL1        0.0030
     24  C         16.1300  -22.5550   -4.5310 C.2     1  UNL1        0.0380
     25  C         17.4710  -22.4750   -4.9080 C.2     1  UNL1        0.0820
     26  O         18.4330  -22.5710   -3.9350 O.2     1  UNL1       -0.3550
     27  C         18.4500  -21.3710   -3.1530 C.3     1  UNL1        0.2100
     28  C         19.3510  -24.1540   -8.1410 C.3     1  UNL1        0.1370
     29  C         19.5350  -24.1580   -9.6600 C.3     1  UNL1        0.0590
     30  C         18.8390  -22.9830  -10.2960 C.2     1  UNL1       -0.0570
     31  C         17.4450  -22.8620  -10.2190 C.2     1  UNL1        0.0070
     32  C         16.8020  -21.7590  -10.7780 C.2     1  UNL1        0.0010
     33  C         17.5420  -20.7690  -11.4240 C.2     1  UNL1        0.0000
     34  C         18.9280  -20.8830  -11.5080 C.2     1  UNL1        0.0010
     35  C         19.5750  -21.9800  -10.9410 C.2     1  UNL1        0.0070
@<TRIPOS>BOND
     1     7     6    3
     2     6     5    1
     3     4     5    2
     4     4     3    1
     5     5     8    1
     6     3     2    2
     7     8     1    2
     8     2     1    1
     9     1     9    1
    10     9    12    1
    11     9    10   am
    12    34    33    2
    13    34    35    1
    14    33    32    1
    15    35    30    2
    16    32    31    2
    17    10    11    2
    18    10    13    1
    19    30    31    1
    20    30    29    1
    21    29    28    1
    22    13    14    1
    23    14    15    1
    24    28    19    1
    25    15    19   ar
    26    15    16   ar
    27    19    18   ar
    28    21    22    1
    29    21    20    2
    30    16    17   ar
    31    22    23    2
    32    18    17   ar
    33    18    20    1
    34    20    25    1
    35    23    24    1
    36    25    24    2
    37    25    26    1
    38    26    27    1
