@<TRIPOS>MOLECULE
83594_out_ligand_01.pdbqt
 39 42 0 0 0
SMALL
GASTEIGER

@<TRIPOS>ATOM
      1  C         24.5800  -21.6720  -12.4200 C.ar    1  UNL1        0.1670
      2  N         25.5300  -21.2100  -11.6240 N.ar    1  UNL1       -0.1280
      3  N         25.0370  -21.1610  -10.3480 N.ar    1  UNL1       -0.1220
      4  C         23.7910  -21.5660  -10.3870 C.ar    1  UNL1        0.1920
      5  N         23.4450  -21.8920  -11.6670 N.ar    1  UNL1       -0.3070
      6  S         22.7600  -21.7160   -9.0110 S.3     1  UNL1       -0.0810
      7  C         22.5390  -23.5210   -8.9800 C.3     1  UNL1        0.1850
      8  C         21.1490  -23.9300   -8.5120 C.2     1  UNL1        0.2310
      9  O         20.7400  -25.0740   -8.6910 O.2     1  UNL1       -0.2720
     10  N         20.4620  -22.9220   -7.8610 N.am    1  UNL1       -0.3270
     11  H         20.8080  -21.9740   -8.0050 H       1  UNL1        0.1690
     12  C         19.2450  -23.0220   -7.1650 C.2     1  UNL1        0.0340
     13  C         18.9030  -21.9550   -6.3220 C.2     1  UNL1        0.0310
     14  C         17.7250  -21.9870   -5.5730 C.2     1  UNL1        0.0270
     15  C         16.8860  -23.0990   -5.6660 C.2     1  UNL1        0.0740
     16  C         17.2220  -24.1770   -6.4860 C.2     1  UNL1        0.0270
     17  C         18.3980  -24.1300   -7.2400 C.2     1  UNL1        0.0310
     18  S         15.4040  -23.1690   -4.6970 S.O2    1  UNL1        0.2390
     19  O         14.3530  -22.5020   -5.4290 O.2     1  UNL1       -0.2060
     20  O         15.2560  -24.5070   -4.1730 O.2     1  UNL1       -0.2060
     21  N         15.7920  -22.1510   -3.4140 N.3     1  UNL1       -0.2250
     22  H         16.6230  -21.5900   -3.5820 H       1  UNL1        0.1360
     23  H         14.9760  -21.5730   -3.1970 H       1  UNL1        0.1360
     24  C         22.1710  -22.3870  -12.1470 C.3     1  UNL1        0.1370
     25  C         21.2000  -21.2590  -12.4920 C.3     1  UNL1        0.0590
     26  C         19.8700  -21.4760  -11.8180 C.2     1  UNL1       -0.0570
     27  C         19.5750  -22.6990  -11.2020 C.2     1  UNL1        0.0070
     28  C         18.3270  -22.9050  -10.6110 C.2     1  UNL1        0.0010
     29  C         17.3600  -21.9060  -10.6500 C.2     1  UNL1        0.0000
     30  C         17.6440  -20.6900  -11.2680 C.2     1  UNL1        0.0010
     31  C         18.8930  -20.4710  -11.8440 C.2     1  UNL1        0.0070
     32  C         24.7070  -21.9070  -13.8530 C.2     1  UNL1        0.0450
     33  C         24.3900  -20.8840  -14.7570 C.2     1  UNL1        0.0180
     34  C         24.4770  -21.1100  -16.1330 C.2     1  UNL1        0.0010
     35  C         24.8770  -22.3560  -16.6160 C.2     1  UNL1        0.0030
     36  C         25.2250  -23.3720  -15.7270 C.2     1  UNL1        0.0380
     37  C         25.1580  -23.1360  -14.3530 C.2     1  UNL1        0.0820
     38  O         25.5010  -24.1430  -13.4840 O.2     1  UNL1       -0.3550
     39  C         26.8120  -24.6250  -13.7930 C.3     1  UNL1        0.2100
@<TRIPOS>BOND
     1    35    34    2
     2    35    36    1
     3    34    33    1
     4    36    37    2
     5    33    32    2
     6    37    32    1
     7    37    38    1
     8    32     1    1
     9    39    38    1
    10    25    24    1
    11    25    26    1
    12     1     5   ar
    13     1     2   ar
    14    24     5    1
    15    31    26    2
    16    31    30    1
    17    26    27    1
    18     5     4   ar
    19     2     3   ar
    20    30    29    2
    21    27    28    2
    22    29    28    1
    23     4     3   ar
    24     4     6    1
    25     6     7    1
    26     7     8    1
    27     9     8    2
    28     8    10   am
    29    11    10    1
    30    10    12    1
    31    17    12    2
    32    17    16    1
    33    12    13    1
    34    16    15    2
    35    13    14    2
    36    15    14    1
    37    15    18    1
    38    19    18    2
    39    18    20    2
    40    18    21    1
    41    22    21    1
    42    21    23    1
