@<TRIPOS>MOLECULE
83620_out_ligand_01.pdbqt
 39 44 0 0 0
SMALL
GASTEIGER

@<TRIPOS>ATOM
      1  C         16.6230  -23.3200   -7.6940 C.ar    1  UNL1        0.1670
      2  N         15.9680  -24.0610   -8.5720 N.ar    1  UNL1       -0.1280
      3  N         16.3140  -23.6470   -9.8340 N.ar    1  UNL1       -0.1220
      4  C         17.1500  -22.6460   -9.7040 C.ar    1  UNL1        0.1920
      5  N         17.4110  -22.4200   -8.3810 N.ar    1  UNL1       -0.3070
      6  S         17.7890  -21.7180  -11.0170 S.3     1  UNL1       -0.0810
      7  C         19.4990  -22.3470  -11.0550 C.3     1  UNL1        0.1850
      8  C         20.5150  -21.3630  -11.6180 C.2     1  UNL1        0.2270
      9  O         20.2440  -20.1660  -11.7220 O.2     1  UNL1       -0.2730
     10  N         21.7010  -21.8960  -12.0610 N.am    1  UNL1       -0.3550
     11  H         21.8070  -22.9090  -12.0330 H       1  UNL1        0.1620
     12  C         22.7860  -21.1200  -12.6540 C.3     1  UNL1        0.0880
     13  C         22.4500  -20.8980  -14.1340 C.3     1  UNL1        0.0330
     14  C         24.1890  -21.7790  -12.3990 C.3     1  UNL1       -0.0190
     15  C         25.1970  -21.3850  -13.5160 C.3     1  UNL1        0.0160
     16  C         26.5900  -21.9820  -13.2510 C.3     1  UNL1       -0.0130
     17  C         27.1210  -21.4620  -11.9080 C.3     1  UNL1        0.0090
     18  C         26.4790  -23.5170  -13.2010 C.3     1  UNL1        0.0090
     19  C         26.1710  -21.8760  -10.7780 C.3     1  UNL1       -0.0130
     20  C         26.0600  -23.4080  -10.7370 C.3     1  UNL1        0.0090
     21  C         24.7780  -21.2820  -11.0440 C.3     1  UNL1        0.0160
     22  C         25.5190  -23.9340  -12.0770 C.3     1  UNL1       -0.0130
     23  C         24.1240  -23.3320  -12.3440 C.3     1  UNL1        0.0160
     24  C         18.2630  -21.3990   -7.8100 C.3     1  UNL1        0.1370
     25  C         19.3120  -21.9810   -6.8670 C.3     1  UNL1        0.0590
     26  C         20.4120  -22.6560   -7.6420 C.2     1  UNL1       -0.0570
     27  C         21.6090  -21.9760   -7.9180 C.2     1  UNL1        0.0070
     28  C         22.6120  -22.5910   -8.6680 C.2     1  UNL1        0.0010
     29  C         22.4250  -23.8840   -9.1550 C.2     1  UNL1        0.0000
     30  C         21.2350  -24.5650   -8.8940 C.2     1  UNL1        0.0010
     31  C         20.2320  -23.9550   -8.1380 C.2     1  UNL1        0.0070
     32  C         16.4770  -23.4060   -6.2460 C.2     1  UNL1        0.0450
     33  C         17.4450  -24.1090   -5.5100 C.2     1  UNL1        0.0180
     34  C         17.3130  -24.2670   -4.1280 C.2     1  UNL1        0.0010
     35  C         16.2240  -23.7110   -3.4620 C.2     1  UNL1        0.0030
     36  C         15.2820  -22.9630   -4.1750 C.2     1  UNL1        0.0380
     37  C         15.4140  -22.8080   -5.5570 C.2     1  UNL1        0.0820
     38  O         14.4180  -22.1480   -6.2260 O.2     1  UNL1       -0.3550
     39  C         13.6130  -21.4130   -5.3010 C.3     1  UNL1        0.2100
@<TRIPOS>BOND
     1    13    12    1
     2    15    16    1
     3    15    14    1
     4    16    18    1
     5    16    17    1
     6    18    22    1
     7    12    14    1
     8    12    10    1
     9    14    23    1
    10    14    21    1
    11    23    22    1
    12    22    20    1
    13    10    11    1
    14    10     8   am
    15    17    19    1
    16     9     8    2
    17     8     7    1
    18     7     6    1
    19    21    19    1
    20     6     4    1
    21    19    20    1
    22     3     4   ar
    23     3     2   ar
    24     4     5   ar
    25    29    30    2
    26    29    28    1
    27    30    31    1
    28    28    27    2
    29     2     1   ar
    30     5    24    1
    31     5     1   ar
    32    31    26    2
    33    27    26    1
    34    24    25    1
    35     1    32    1
    36    26    25    1
    37    32    37    2
    38    32    33    1
    39    38    37    1
    40    38    39    1
    41    37    36    1
    42    33    34    2
    43    36    35    2
    44    34    35    1
