@<TRIPOS>MOLECULE
83625_out_ligand_01.pdbqt
 40 44 0 0 0
SMALL
GASTEIGER

@<TRIPOS>ATOM
      1  C         21.5580  -21.9770  -11.3400 C.2     1  UNL1        0.2950
      2  O         22.1150  -22.5300  -12.2690 O.2     1  UNL1       -0.2590
      3  O         22.1490  -21.3640  -10.2870 O.3     1  UNL1       -0.3110
      4  C         23.0880  -22.1990   -9.5990 C.3     1  UNL1        0.2380
      5  C         24.4330  -22.1020  -10.2510 C.2     1  UNL1        0.0660
      6  N         24.8290  -20.9050  -10.8390 N.2     1  UNL1       -0.2470
      7  C         26.0400  -21.0310  -11.3460 C.2     1  UNL1        0.0840
      8  S         26.7560  -22.5830  -11.1800 S.3     1  UNL1       -0.0840
      9  C         25.3620  -23.1230  -10.3490 C.2     1  UNL1        0.0810
     10  C         26.7730  -19.9170  -12.0160 C.3     1  UNL1        0.1700
     11  C         26.5540  -20.0230  -13.5140 C.2     1  UNL1        0.2280
     12  N         25.6900  -21.0520  -13.8600 N.am    1  UNL1       -0.3260
     13  H         25.1740  -21.4560  -13.0820 H       1  UNL1        0.1690
     14  O         27.1210  -19.2490  -14.2830 O.2     1  UNL1       -0.2730
     15  C         25.3250  -21.4940  -15.1510 C.2     1  UNL1        0.0400
     16  C         25.1890  -20.6140  -16.2320 C.2     1  UNL1        0.0300
     17  C         24.8540  -21.0870  -17.5040 C.2     1  UNL1        0.0020
     18  C         24.6550  -22.4470  -17.7120 C.2     1  UNL1        0.0010
     19  C         24.7720  -23.3350  -16.6470 C.2     1  UNL1        0.0090
     20  C         25.1090  -22.8750  -15.3600 C.2     1  UNL1       -0.0350
     21  C         25.2210  -23.8860  -14.2470 C.3     1  UNL1        0.0500
     22  C         20.1000  -21.8450  -11.1730 C.2     1  UNL1        0.0560
     23  C         19.4550  -20.8160  -11.8760 C.2     1  UNL1        0.0190
     24  C         18.0800  -20.6450  -11.7500 C.2     1  UNL1        0.0010
     25  C         17.3500  -21.4910  -10.9190 C.2     1  UNL1        0.0010
     26  C         17.9930  -22.5160  -10.2200 C.2     1  UNL1        0.0190
     27  C         19.3750  -22.7160  -10.3450 C.2     1  UNL1        0.0170
     28  S         20.1130  -24.0920   -9.4670 S.3     1  UNL1       -0.1200
     29  C         19.1670  -23.9960   -7.9070 C.3     1  UNL1        0.1820
     30  C         19.5200  -22.7810   -7.0630 C.2     1  UNL1        0.2340
     31  O         20.5520  -22.1290   -7.2540 O.2     1  UNL1       -0.2720
     32  N         18.6560  -22.4110   -6.0430 N.am    1  UNL1       -0.3170
     33  C         19.0340  -21.2900   -5.1660 C.3     1  UNL1        0.1370
     34  C         17.3650  -22.8400   -5.6770 C.2     1  UNL1        0.0430
     35  C         18.0250  -21.2390   -4.0200 C.3     1  UNL1        0.0610
     36  C         16.9530  -22.1490   -4.5310 C.2     1  UNL1       -0.0300
     37  C         15.7060  -22.3530   -3.9550 C.2     1  UNL1        0.0090
     38  C         14.8460  -23.2720   -4.5510 C.2     1  UNL1        0.0010
     39  C         15.2430  -23.9670   -5.7000 C.2     1  UNL1        0.0020
     40  C         16.5070  -23.7570   -6.2660 C.2     1  UNL1        0.0300
@<TRIPOS>BOND
     1    18    17    2
     2    18    19    1
     3    17    16    1
     4    19    20    2
     5    16    15    2
     6    20    15    1
     7    20    21    1
     8    15    12    1
     9    14    11    2
    10    12    11   am
    11    12    13    1
    12    11    10    1
    13     2     1    2
    14    10     7    1
    15    23    24    1
    16    23    22    2
    17    24    25    2
    18     7     8    1
    19     7     6    2
    20     1    22    1
    21     1     3    1
    22     8     9    1
    23    22    27    1
    24    25    26    1
    25     6     5    1
    26     9     5    2
    27    27    26    2
    28    27    28    1
    29     3     4    1
    30     5     4    1
    31    28    29    1
    32    29    30    1
    33    31    30    2
    34    30    32   am
    35    40    39    1
    36    40    34    2
    37    32    34    1
    38    32    33    1
    39    39    38    2
    40    34    36    1
    41    33    35    1
    42    38    37    1
    43    36    35    1
    44    36    37    2
