@<TRIPOS>MOLECULE
83632_out_ligand_01.pdbqt
 37 41 0 0 0
SMALL
GASTEIGER

@<TRIPOS>ATOM
      1  N         21.9460  -23.2470   -8.7040 N.am    1  UNL1       -0.2630
      2  C         21.9220  -22.0360   -8.0960 C.2     1  UNL1        0.3260
      3  O         22.8770  -21.3830   -7.7090 O.2     1  UNL1       -0.2470
      4  N         20.6200  -21.6350   -7.9540 N.am    1  UNL1       -0.3160
      5  C         19.6630  -22.6260   -8.4120 C.3     1  UNL1        0.1710
      6  C         20.6740  -23.7000   -8.9220 C.2     1  UNL1        0.2660
      7  O         20.3910  -24.7860   -9.4200 O.2     1  UNL1       -0.2690
      8  H         20.3820  -20.8050   -7.4330 H       1  UNL1        0.1660
      9  C         23.1480  -23.9560   -9.0680 C.3     1  UNL1        0.1750
     10  C         23.8600  -23.2760  -10.2150 C.2     1  UNL1       -0.0400
     11  C         23.1470  -22.8830  -11.3580 C.2     1  UNL1        0.0100
     12  C         23.8060  -22.2890  -12.4360 C.2     1  UNL1        0.0170
     13  C         25.1890  -22.0800  -12.3820 C.2     1  UNL1        0.0320
     14  C         25.9110  -22.4980  -11.2580 C.2     1  UNL1        0.0170
     15  C         25.2500  -23.0920  -10.1800 C.2     1  UNL1        0.0100
     16  C         25.9270  -21.4520  -13.5150 C.2     1  UNL1        0.2560
     17  O         27.0400  -21.8800  -13.7940 O.2     1  UNL1       -0.2670
     18  N         25.2690  -20.3930  -14.1110 N.am    1  UNL1       -0.3230
     19  H         24.4280  -20.0640  -13.6550 H       1  UNL1        0.1690
     20  C         25.6860  -19.6480  -15.2330 C.2     1  UNL1        0.0350
     21  C         26.3270  -18.4110  -15.1530 C.2     1  UNL1        0.0290
     22  C         26.7220  -17.7420  -16.3160 C.2     1  UNL1        0.0020
     23  C         26.4790  -18.3030  -17.5670 C.2     1  UNL1        0.0000
     24  C         25.8430  -19.5380  -17.6580 C.2     1  UNL1        0.0020
     25  C         25.4510  -20.2080  -16.4960 C.2     1  UNL1        0.0290
     26  C         18.8150  -22.1320   -9.5940 C.2     1  UNL1       -0.0160
     27  C         19.4530  -21.5990  -10.7320 C.2     1  UNL1        0.0100
     28  C         18.7150  -21.1270  -11.8200 C.2     1  UNL1        0.0010
     29  C         17.3240  -21.1730  -11.7900 C.2     1  UNL1        0.0000
     30  C         16.6720  -21.6880  -10.6730 C.2     1  UNL1        0.0010
     31  C         17.4080  -22.1610   -9.5830 C.2     1  UNL1        0.0100
     32  C         18.8230  -23.0560   -7.1990 C.2     1  UNL1       -0.0160
     33  C         18.2280  -24.3240   -7.0920 C.2     1  UNL1        0.0100
     34  C         17.4900  -24.6800   -5.9580 C.2     1  UNL1        0.0010
     35  C         17.3350  -23.7770   -4.9110 C.2     1  UNL1        0.0000
     36  C         17.9170  -22.5170   -4.9910 C.2     1  UNL1        0.0010
     37  C         18.6550  -22.1590   -6.1210 C.2     1  UNL1        0.0100
@<TRIPOS>BOND
     1    24    23    2
     2    24    25    1
     3    23    22    1
     4    25    20    2
     5    22    21    2
     6    20    21    1
     7    20    18    1
     8    18    19    1
     9    18    16   am
    10    17    16    2
    11    16    13    1
    12    12    13    2
    13    12    11    1
    14    13    14    1
    15    28    29    2
    16    28    27    1
    17    29    30    1
    18    11    10    2
    19    14    15    2
    20    27    26    2
    21    30    31    2
    22    10    15    1
    23    10     9    1
    24    26    31    1
    25    26     5    1
    26     7     6    2
    27     9     1    1
    28     6     1   am
    29     6     5    1
    30     1     2   am
    31     5     4    1
    32     5    32    1
    33     2     4   am
    34     2     3    2
    35     4     8    1
    36    32    33    2
    37    32    37    1
    38    33    34    1
    39    37    36    2
    40    34    35    2
    41    36    35    1
