@<TRIPOS>MOLECULE
83648_out_ligand_01.pdbqt
 33 36 0 0 0
SMALL
GASTEIGER

@<TRIPOS>ATOM
      1  N         23.3470  -23.3180  -11.1700 N.pl3   1  UNL1       -0.2810
      2  H         23.7060  -24.2720  -11.2150 H       1  UNL1        0.1790
      3  C         22.1030  -23.1140  -10.5160 C.2     1  UNL1        0.0420
      4  C         21.8560  -23.7490   -9.3010 C.2     1  UNL1        0.0310
      5  C         20.6180  -23.5900   -8.6740 C.2     1  UNL1        0.0190
      6  C         19.6250  -22.7930   -9.2610 C.2     1  UNL1        0.0320
      7  C         19.8750  -22.1740  -10.4930 C.2     1  UNL1        0.0190
      8  C         21.1160  -22.3330  -11.1180 C.2     1  UNL1        0.0310
      9  C         18.3180  -22.6690   -8.5580 C.2     1  UNL1        0.2520
     10  O         17.3130  -22.3720   -9.1910 O.2     1  UNL1       -0.2680
     11  N         18.3180  -22.9310   -7.2030 N.am    1  UNL1       -0.3520
     12  H         19.1750  -23.1940   -6.7370 H       1  UNL1        0.1630
     13  C         17.1190  -22.7640   -6.3910 C.3     1  UNL1        0.0840
     14  C         17.4920  -22.4050   -4.9480 C.3     1  UNL1        0.0250
     15  C         16.2560  -22.2910   -4.0580 C.3     1  UNL1        0.0020
     16  C         15.4030  -23.5550   -4.1140 C.3     1  UNL1        0.0000
     17  C         15.0300  -23.9170   -5.5490 C.3     1  UNL1        0.0020
     18  C         16.2640  -24.0360   -6.4380 C.3     1  UNL1        0.0250
     19  S         24.6000  -22.2280  -10.8440 S.O2    1  UNL1        0.2630
     20  O         25.7550  -23.0360  -10.5150 O.2     1  UNL1       -0.2000
     21  O         24.1260  -21.2020   -9.9420 O.2     1  UNL1       -0.2000
     22  C         24.8990  -21.4980  -12.4360 C.2     1  UNL1        0.0820
     23  C         25.7540  -20.3700  -12.5250 C.2     1  UNL1        0.0280
     24  C         26.0010  -19.7610  -13.7600 C.2     1  UNL1        0.0330
     25  C         25.3740  -20.3070  -14.8550 C.ar    1  UNL1        0.0630
     26  N         25.4260  -19.9260  -16.1900 N.ar    1  UNL1       -0.3070
     27  C         24.5250  -21.4120  -14.7570 C.ar    1  UNL1        0.0640
     28  C         24.6110  -20.7870  -16.9380 C.ar    1  UNL1        0.3250
     29  H         25.9460  -19.1630  -16.5900 H       1  UNL1        0.1700
     30  O         24.4210  -20.7450  -18.1400 O.2     1  UNL1       -0.2470
     31  N         24.0590  -21.7060  -16.0330 N.ar    1  UNL1       -0.3060
     32  H         23.4300  -22.4450  -16.3010 H       1  UNL1        0.1700
     33  C         24.2570  -22.0320  -13.5620 C.2     1  UNL1        0.0570
@<TRIPOS>BOND
     1    30    28    2
     2    28    26   ar
     3    28    31   ar
     4    29    26    1
     5    32    31    1
     6    26    25   ar
     7    31    27   ar
     8    25    27   ar
     9    25    24    1
    10    27    33    1
    11    24    23    2
    12    33    22    2
    13    23    22    1
    14    22    19    1
    15     2     1    1
    16     1    19    1
    17     1     3    1
    18     8     3    2
    19     8     7    1
    20    19    20    2
    21    19    21    2
    22     3     4    1
    23     7     6    2
    24     4     5    2
    25     6     5    1
    26     6     9    1
    27    10     9    2
    28     9    11   am
    29    11    12    1
    30    11    13    1
    31    18    13    1
    32    18    17    1
    33    13    14    1
    34    17    16    1
    35    14    15    1
    36    16    15    1
