@<TRIPOS>MOLECULE
83647_out_ligand_01.pdbqt
 39 43 0 0 0
SMALL
GASTEIGER

@<TRIPOS>ATOM
      1  C         23.2790  -22.5430   -9.7620 C.ar    1  UNL1        0.2310
      2  N         23.4240  -23.7440   -9.2400 N.ar    1  UNL1       -0.1140
      3  N         22.1600  -24.1610   -8.8740 N.ar    1  UNL1       -0.1190
      4  C         21.3310  -23.1850   -9.1910 C.ar    1  UNL1        0.2240
      5  O         21.9810  -22.1190   -9.7600 O.2     1  UNL1       -0.2620
      6  C         19.8930  -23.1480   -9.0400 C.ar    1  UNL1        0.1430
      7  N         19.3970  -23.8560   -8.0650 N.ar    1  UNL1       -0.1640
      8  N         18.0450  -23.8460   -7.8200 N.ar    1  UNL1       -0.2290
      9  C         17.1250  -23.1170   -8.5620 C.ar    1  UNL1        0.2750
     10  O         15.9180  -23.0870   -8.3360 O.2     1  UNL1       -0.2660
     11  C         17.6660  -22.3360   -9.6900 C.ar    1  UNL1        0.0460
     12  C         16.7830  -21.6090  -10.5060 C.2     1  UNL1        0.0180
     13  C         19.0360  -22.3420   -9.9490 C.ar    1  UNL1        0.0150
     14  C         17.2680  -20.8950  -11.5980 C.2     1  UNL1        0.0010
     15  C         18.6300  -20.9090  -11.8800 C.2     1  UNL1        0.0010
     16  C         19.5100  -21.6310  -11.0650 C.2     1  UNL1        0.0150
     17  C         17.5870  -24.6610   -6.6980 C.3     1  UNL1        0.1930
     18  C         17.0790  -23.8250   -5.5440 C.2     1  UNL1       -0.0380
     19  C         15.7670  -23.9870   -5.0690 C.2     1  UNL1        0.0090
     20  C         15.3040  -23.2230   -3.9940 C.2     1  UNL1        0.0010
     21  C         16.1380  -22.2790   -3.3950 C.2     1  UNL1        0.0000
     22  C         17.4370  -22.0980   -3.8700 C.2     1  UNL1        0.0010
     23  C         17.9060  -22.8620   -4.9420 C.2     1  UNL1        0.0090
     24  S         24.5790  -21.6140  -10.4420 S.3     1  UNL1       -0.0730
     25  C         24.8620  -22.5620  -11.9680 C.3     1  UNL1        0.1860
     26  C         24.5130  -21.7370  -13.2050 C.2     1  UNL1        0.2310
     27  N         25.6090  -21.5150  -14.0280 N.am    1  UNL1       -0.3260
     28  H         26.4790  -21.9150  -13.7130 H       1  UNL1        0.1690
     29  O         23.3620  -21.3450  -13.3920 O.2     1  UNL1       -0.2720
     30  C         25.6460  -20.8540  -15.2810 C.2     1  UNL1        0.0410
     31  C         26.1450  -19.5460  -15.3960 C.2     1  UNL1        0.0300
     32  C         26.1790  -18.8820  -16.6260 C.2     1  UNL1        0.0020
     33  C         25.7200  -19.5180  -17.7680 C.2     1  UNL1        0.0010
     34  C         25.2290  -20.8200  -17.6820 C.2     1  UNL1        0.0100
     35  C         25.1670  -21.5110  -16.4490 C.2     1  UNL1       -0.0280
     36  C         24.6410  -22.9520  -16.4660 C.3     1  UNL1        0.0160
     37  C         24.0480  -23.3430  -17.8340 C.3     1  UNL1        0.0150
     38  C         25.7270  -23.9740  -16.0530 C.3     1  UNL1        0.0040
     39  C         25.2310  -25.0300  -15.0690 C.3     1  UNL1        0.0060
@<TRIPOS>BOND
     1    37    36    1
     2    33    34    2
     3    33    32    1
     4    34    35    1
     5    32    31    2
     6    36    35    1
     7    36    38    1
     8    35    30    2
     9    38    39    1
    10    31    30    1
    11    30    27    1
    12    27    28    1
    13    27    26   am
    14    29    26    2
    15    26    25    1
    16    25    24    1
    17    15    14    2
    18    15    16    1
    19    14    12    1
    20    16    13    2
    21    12    11    2
    22    24     1    1
    23    13    11   ar
    24    13     6   ar
    25     1     5   ar
    26     1     2   ar
    27     5     4   ar
    28    11     9   ar
    29     2     3   ar
    30     4     6    1
    31     4     3   ar
    32     6     7   ar
    33     9    10    2
    34     9     8   ar
    35     7     8   ar
    36     8    17    1
    37    17    18    1
    38    18    19    2
    39    18    23    1
    40    19    20    1
    41    23    22    2
    42    20    21    2
    43    22    21    1
