@<TRIPOS>MOLECULE
83652_out_ligand_01.pdbqt
 34 37 0 0 0
SMALL
GASTEIGER

@<TRIPOS>ATOM
      1  N         21.8500  -22.5920  -10.0150 N.am    1  UNL1       -0.2400
      2  C         20.7370  -23.3550   -9.6620 C.2     1  UNL1        0.2740
      3  O         20.7700  -24.4810   -9.1680 O.2     1  UNL1       -0.2660
      4  H         21.7120  -21.9680  -10.8060 H       1  UNL1        0.1920
      5  N         23.1210  -23.1170   -9.9710 N.pl3   1  UNL1       -0.1450
      6  C         23.9400  -22.8180  -10.9370 C.2     1  UNL1        0.2050
      7  O         23.5010  -22.1370  -12.0710 O.2     1  UNL1       -0.2890
      8  C         25.3530  -23.2630  -10.9450 C.2     1  UNL1        0.0870
      9  C         24.3660  -21.8310  -13.1380 C.2     1  UNL1        0.0880
     10  C         23.8380  -21.1090  -14.2060 C.2     1  UNL1        0.0380
     11  C         25.6940  -22.2430  -13.1170 C.2     1  UNL1       -0.0010
     12  C         24.6630  -20.7930  -15.2830 C.2     1  UNL1        0.0030
     13  C         25.9990  -21.1990  -15.2800 C.2     1  UNL1        0.0010
     14  C         26.5160  -21.9220  -14.2000 C.3     1  UNL1        0.0140
     15  C         26.1790  -22.9850  -11.9660 C.2     1  UNL1        0.0350
     16  C         25.9310  -23.9900   -9.7900 C.2     1  UNL1        0.2530
     17  N         25.0330  -24.3650   -8.8320 N.am    1  UNL1       -0.3660
     18  H         24.0780  -24.0340   -8.8160 H       1  UNL1        0.1590
     19  H         25.4130  -24.7830   -7.9930 H       1  UNL1        0.1590
     20  O         27.1200  -24.2520   -9.6810 O.2     1  UNL1       -0.2680
     21  C         19.4180  -22.7280   -9.9760 C.2     1  UNL1        0.0600
     22  C         19.2540  -22.0380  -11.1910 C.2     1  UNL1        0.0190
     23  C         18.0340  -21.4410  -11.5020 C.2     1  UNL1        0.0010
     24  C         16.9780  -21.5210  -10.6000 C.2     1  UNL1        0.0020
     25  C         17.1410  -22.1930   -9.3860 C.2     1  UNL1        0.0300
     26  C         18.3560  -22.8050   -9.0440 C.2     1  UNL1        0.0480
     27  N         18.5060  -23.5050   -7.8290 N.pl3   1  UNL1       -0.3550
     28  H         18.6040  -24.5180   -7.9670 H       1  UNL1        0.1660
     29  C         18.3310  -23.1370   -6.4840 C.2     1  UNL1        0.0320
     30  C         17.6900  -23.9460   -5.5400 C.2     1  UNL1        0.0290
     31  C         17.5030  -23.5090   -4.2240 C.2     1  UNL1        0.0020
     32  C         17.9480  -22.2490   -3.8360 C.2     1  UNL1        0.0000
     33  C         18.5810  -21.4260   -4.7620 C.2     1  UNL1        0.0020
     34  C         18.7670  -21.8680   -6.0750 C.2     1  UNL1        0.0290
@<TRIPOS>BOND
     1    12    13    2
     2    12    10    1
     3    13    14    1
     4    10     9    2
     5    14    11    1
     6     9    11    1
     7     9     7    1
     8    11    15    2
     9     7     6    1
    10    15     8    1
    11    23    22    1
    12    23    24    2
    13    22    21    2
    14     8     6    2
    15     8    16    1
    16     6     5    1
    17     4     1    1
    18    24    25    1
    19     1     5    1
    20     1     2   am
    21    21     2    1
    22    21    26    1
    23    16    20    2
    24    16    17   am
    25     2     3    2
    26    25    26    2
    27    26    27    1
    28    17    18    1
    29    17    19    1
    30    28    27    1
    31    27    29    1
    32    29    34    2
    33    29    30    1
    34    34    33    1
    35    30    31    2
    36    33    32    2
    37    31    32    1
