@<TRIPOS>MOLECULE
83650_out_ligand_01.pdbqt
 29 32 0 0 0
SMALL
GASTEIGER

@<TRIPOS>ATOM
      1  C         22.3180  -22.3050  -11.0360 C.2     1  UNL1       -0.0190
      2  C         21.8940  -21.6150  -12.1820 C.2     1  UNL1        0.0100
      3  C         20.5780  -21.1640  -12.2990 C.2     1  UNL1        0.0030
      4  C         19.6570  -21.3930  -11.2750 C.2     1  UNL1        0.0290
      5  C         20.0420  -22.0720  -10.1240 C.2     1  UNL1        0.0350
      6  C         21.3660  -22.5290  -10.0180 C.2     1  UNL1        0.0390
      7  N         19.1810  -22.3450   -9.0400 N.am    1  UNL1       -0.3230
      8  C         17.9040  -22.8750   -9.0950 C.2     1  UNL1        0.2560
      9  O         17.2660  -23.1560  -10.1020 O.2     1  UNL1       -0.2670
     10  H         19.5120  -22.0470   -8.1320 H       1  UNL1        0.1690
     11  C         17.2540  -23.0740   -7.7690 C.2     1  UNL1        0.0320
     12  C         16.0350  -23.7750   -7.6450 C.2     1  UNL1        0.0170
     13  C         15.4460  -23.9590   -6.3900 C.2     1  UNL1        0.0090
     14  C         16.0750  -23.4190   -5.2820 C.2     1  UNL1       -0.0520
     15  C         17.2750  -22.7080   -5.4030 C.2     1  UNL1       -0.0510
     16  C         15.6560  -23.5110   -3.8470 C.3     1  UNL1        0.0390
     17  C         17.8760  -22.5270   -6.6380 C.2     1  UNL1        0.0240
     18  C         17.7670  -22.2600   -4.0640 C.3     1  UNL1        0.0390
     19  C         16.4910  -22.3860   -3.2200 C.3     1  UNL1        0.0090
     20  C         23.7400  -22.8340  -10.8850 C.3     1  UNL1        0.1390
     21  C         23.9660  -23.4940   -9.5230 C.3     1  UNL1        0.0540
     22  N         24.1300  -23.7440  -11.9460 N.am    1  UNL1       -0.3210
     23  C         25.1930  -23.2860  -12.6800 C.2     1  UNL1        0.3240
     24  H         23.7360  -24.6590  -12.1140 H       1  UNL1        0.1650
     25  O         25.7270  -23.8990  -13.5870 O.2     1  UNL1       -0.2470
     26  N         25.5570  -22.0750  -12.2100 N.am    1  UNL1       -0.2770
     27  C         24.8130  -21.7390  -11.1220 C.2     1  UNL1        0.2580
     28  H         26.3400  -21.5500  -12.5550 H       1  UNL1        0.1730
     29  O         24.9990  -20.7370  -10.4430 O.2     1  UNL1       -0.2700
@<TRIPOS>BOND
     1    25    23    2
     2    23    26   am
     3    23    22   am
     4    28    26    1
     5     3     2    1
     6     3     4    2
     7    26    27   am
     8     2     1    2
     9    24    22    1
    10    22    20    1
    11     4     5    1
    12    27    20    1
    13    27    29    2
    14     1    20    1
    15     1     6    1
    16    20    21    1
    17     5     6    2
    18     5     7    1
    19     9     8    2
    20     8     7   am
    21     8    11    1
    22     7    10    1
    23    11    12    2
    24    11    17    1
    25    12    13    1
    26    17    15    2
    27    13    14    2
    28    15    14    1
    29    15    18    1
    30    14    16    1
    31    18    19    1
    32    16    19    1
