@<TRIPOS>MOLECULE
83669_out_ligand_01.pdbqt
 33 36 0 0 0
SMALL
GASTEIGER

@<TRIPOS>ATOM
      1  O         21.2600  -21.1380  -12.6890 O.2     1  UNL1       -0.2670
      2  C         20.9940  -21.7980  -11.6900 C.2     1  UNL1        0.2560
      3  N         21.8710  -22.5830  -10.9640 N.am    1  UNL1       -0.3200
      4  H         21.5050  -23.1760  -10.2320 H       1  UNL1        0.1690
      5  C         19.5870  -21.8140  -11.2000 C.2     1  UNL1        0.0330
      6  C         18.5940  -21.0220  -11.7870 C.2     1  UNL1        0.0170
      7  C         17.2870  -21.0690  -11.2990 C.2     1  UNL1        0.0020
      8  C         16.9660  -21.9090  -10.2320 C.2     1  UNL1        0.0090
      9  C         17.9460  -22.7200   -9.6430 C.2     1  UNL1       -0.0330
     10  C         19.2570  -22.6690  -10.1400 C.2     1  UNL1        0.0260
     11  C         17.6070  -23.6400   -8.4940 C.3     1  UNL1        0.2140
     12  O         18.7140  -23.6600   -7.5940 O.2     1  UNL1       -0.3470
     13  C         18.7180  -22.7380   -6.5850 C.2     1  UNL1        0.0700
     14  C         19.5550  -21.6230   -6.4940 C.2     1  UNL1        0.0370
     15  C         19.4530  -20.7550   -5.4020 C.2     1  UNL1        0.0040
     16  C         18.5150  -20.9980   -4.3990 C.2     1  UNL1        0.0240
     17  C         17.6810  -22.1080   -4.4920 C.2     1  UNL1        0.0360
     18 CL         16.5220  -22.4090   -3.2560 Cl      1  UNL1       -0.0840
     19  C         17.7790  -22.9760   -5.5780 C.2     1  UNL1        0.0600
     20  C         23.2260  -22.6980  -11.2180 C.2     1  UNL1        0.0710
     21  C         24.2430  -22.9970  -10.2840 C.2     1  UNL1        0.1690
     22  N         25.4600  -23.0290  -10.8360 N.2     1  UNL1       -0.1830
     23  N         25.2180  -22.7600  -12.1390 N.pl3   1  UNL1       -0.2750
     24  C         23.8960  -22.5420  -12.4070 C.2     1  UNL1        0.1430
     25  C         26.3230  -22.6870  -13.0860 C.3     1  UNL1        0.1900
     26  C         26.4050  -21.3240  -13.7330 C.2     1  UNL1       -0.0170
     27  C         26.8540  -20.2360  -12.9580 C.2     1  UNL1        0.0120
     28  C         26.9590  -18.9580  -13.5090 C.2     1  UNL1        0.0240
     29  C         26.6230  -18.7520  -14.8430 C.2     1  UNL1        0.0350
     30 CL         26.7500  -17.1770  -15.5220 Cl      1  UNL1       -0.0840
     31  C         26.1830  -19.8120  -15.6300 C.2     1  UNL1        0.0480
     32  C         26.0770  -21.0930  -15.0790 C.2     1  UNL1        0.0430
     33 CL         25.5220  -22.3570  -16.1170 Cl      1  UNL1       -0.0840
@<TRIPOS>BOND
     1    33    32    1
     2    31    32    1
     3    31    29    2
     4    30    29    1
     5    32    26    2
     6    29    28    1
     7    26    25    1
     8    26    27    1
     9    28    27    2
    10    25    23    1
    11     1     2    2
    12    24    23    1
    13    24    20    2
    14    23    22    1
    15     6     7    1
    16     6     5    2
    17     2     5    1
    18     2     3   am
    19     7     8    2
    20    20     3    1
    21    20    21    1
    22     5    10    1
    23     3     4    1
    24    22    21    2
    25     8     9    1
    26    10     9    2
    27     9    11    1
    28    11    12    1
    29    12    13    1
    30    13    14    2
    31    13    19    1
    32    14    15    1
    33    19    17    2
    34    15    16    2
    35    17    16    1
    36    17    18    1
