@<TRIPOS>MOLECULE
83687_out_ligand_01.pdbqt
 31 34 0 0 0
SMALL
GASTEIGER

@<TRIPOS>ATOM
      1  C         18.0600  -20.8960  -11.2480 C.3     1  UNL1        0.0500
      2  C         19.4900  -21.3550  -11.3680 C.2     1  UNL1       -0.0350
      3  C         20.1880  -21.0390  -12.5460 C.2     1  UNL1        0.0100
      4  C         21.5130  -21.4340  -12.7220 C.2     1  UNL1        0.0170
      5  C         22.1560  -22.1570  -11.7170 C.2     1  UNL1        0.0340
      6  C         21.4770  -22.4650  -10.5290 C.2     1  UNL1        0.0470
      7  C         20.1440  -22.0770  -10.3410 C.2     1  UNL1        0.0420
      8  N         19.4170  -22.3850   -9.1680 N.am    1  UNL1       -0.3210
      9  C         19.3640  -23.5870   -8.4740 C.2     1  UNL1        0.2760
     10  O         19.9810  -24.6080   -8.7490 O.2     1  UNL1       -0.2660
     11  H         18.8970  -21.6260   -8.7500 H       1  UNL1        0.1690
     12  C         18.4520  -23.5240   -7.3160 C.ar    1  UNL1        0.1440
     13  N         17.4800  -24.4370   -7.2060 N.ar    1  UNL1       -0.2050
     14  S         16.6300  -24.1690   -5.8200 S.2     1  UNL1        0.0120
     15  C         17.5330  -22.8080   -5.2930 C.ar    1  UNL1        0.0360
     16  C         17.3730  -22.0300   -4.1350 C.2     1  UNL1        0.0210
     17  C         18.5260  -22.5470   -6.2410 C.ar    1  UNL1        0.0170
     18  C         18.2370  -20.9510   -3.9360 C.2     1  UNL1        0.0010
     19  C         19.2260  -20.6530   -4.8650 C.2     1  UNL1        0.0010
     20  C         19.3780  -21.4360   -6.0150 C.2     1  UNL1        0.0150
     21  C         23.5720  -22.5910  -11.8600 C.2     1  UNL1        0.2520
     22  O         24.2150  -22.9730  -10.8900 O.2     1  UNL1       -0.2680
     23  N         24.0940  -22.5500  -13.1390 N.am    1  UNL1       -0.3510
     24  H         23.4680  -22.3540  -13.9140 H       1  UNL1        0.1630
     25  C         25.4650  -22.9730  -13.4110 C.3     1  UNL1        0.0990
     26  C         26.3650  -21.7830  -13.7820 C.3     1  UNL1        0.0410
     27  C         25.9660  -21.3530  -15.1880 C.3     1  UNL1        0.1420
     28  S         25.5010  -22.8600  -16.0270 S.O2    1  UNL1        0.1460
     29  O         24.1200  -22.7410  -16.4550 O.2     1  UNL1       -0.2280
     30  O         26.5610  -23.2530  -16.9300 O.2     1  UNL1       -0.2280
     31  C         25.5410  -23.9250  -14.5990 C.3     1  UNL1        0.1650
@<TRIPOS>BOND
     1    30    28    2
     2    29    28    2
     3    28    27    1
     4    28    31    1
     5    27    26    1
     6    31    25    1
     7    24    23    1
     8    26    25    1
     9    25    23    1
    10    23    21   am
    11     4     3    1
    12     4     5    2
    13     3     2    2
    14    21     5    1
    15    21    22    2
    16     5     6    1
    17     2     1    1
    18     2     7    1
    19     6     7    2
    20     7     8    1
    21     8    11    1
    22     8     9   am
    23    10     9    2
    24     9    12    1
    25    12    13   ar
    26    12    17   ar
    27    13    14   ar
    28    17    20    1
    29    17    15   ar
    30    20    19    2
    31    14    15   ar
    32    15    16    1
    33    19    18    1
    34    16    18    2
