@<TRIPOS>MOLECULE
83717_out_ligand_01.pdbqt
 39 42 0 0 0
SMALL
GASTEIGER

@<TRIPOS>ATOM
      1  C         21.4790  -21.8440  -10.2060 C.2     1  UNL1       -0.0080
      2  C         21.4390  -21.1630  -11.4240 C.2     1  UNL1        0.0130
      3  C         20.2560  -21.1510  -12.1560 C.2     1  UNL1        0.0030
      4  C         19.1290  -21.8170  -11.6670 C.2     1  UNL1        0.0290
      5  C         19.1690  -22.5040  -10.4430 C.2     1  UNL1        0.0350
      6  C         20.3550  -22.5140   -9.7110 C.2     1  UNL1        0.0430
      7  C         22.7340  -21.8460   -9.4250 C.2     1  UNL1        0.0610
      8  C         22.5990  -21.6280   -7.9380 C.3     1  UNL1        0.0730
      9  N         23.9270  -22.0310   -9.9090 N.2     1  UNL1       -0.1760
     10  N         24.0750  -22.1300  -11.2630 N.am    1  UNL1       -0.2420
     11  C         25.2300  -21.6710  -11.8890 C.2     1  UNL1        0.2800
     12  O         26.2040  -21.2730  -11.2500 O.2     1  UNL1       -0.2650
     13  H         23.2760  -22.4050  -11.8230 H       1  UNL1        0.1920
     14  C         25.2020  -21.7220  -13.3510 C.ar    1  UNL1        0.0970
     15  S         25.2650  -20.2280  -14.1950 S.2     1  UNL1       -0.0820
     16  C         25.2100  -20.9760  -15.7370 C.ar    1  UNL1        0.0170
     17  C         25.2330  -20.3280  -16.9890 C.2     1  UNL1        0.0200
     18  C         25.1360  -22.3650  -15.6290 C.ar    1  UNL1        0.0040
     19  C         25.1780  -21.0950  -18.1520 C.2     1  UNL1        0.0010
     20  C         25.0990  -22.4780  -18.0780 C.2     1  UNL1        0.0010
     21  C         25.0780  -23.1150  -16.8330 C.2     1  UNL1        0.0140
     22  C         25.1310  -22.7780  -14.2440 C.ar    1  UNL1        0.0680
     23 CL         25.0320  -24.4510  -13.8320 Cl      1  UNL1       -0.0820
     24  N         17.9830  -23.1470  -10.0320 N.am    1  UNL1       -0.3270
     25  C         16.7290  -22.5870   -9.8790 C.2     1  UNL1        0.2220
     26  O         16.4190  -21.4240  -10.1130 O.2     1  UNL1       -0.2730
     27  H         18.0810  -24.1190   -9.7600 H       1  UNL1        0.1690
     28  C         15.6980  -23.5870   -9.3850 C.3     1  UNL1        0.1050
     29  C         15.6620  -23.6660   -7.8570 C.3     1  UNL1        0.0360
     30  C         16.4200  -24.8710   -7.2990 C.3     1  UNL1        0.1760
     31  O         16.7900  -24.5960   -5.9440 O.2     1  UNL1       -0.3490
     32  C         17.5330  -23.4560   -5.7700 C.2     1  UNL1        0.0900
     33  C         18.5320  -23.0660   -6.6670 C.2     1  UNL1        0.0400
     34  C         19.2440  -21.8840   -6.4520 C.2     1  UNL1        0.0260
     35  C         18.9510  -21.0860   -5.3470 C.2     1  UNL1        0.0350
     36 CL         19.8330  -19.6320   -5.0870 Cl      1  UNL1       -0.0840
     37  C         17.9440  -21.4510   -4.4580 C.2     1  UNL1        0.0500
     38  C         17.2310  -22.6320   -4.6750 C.2     1  UNL1        0.0690
     39 CL         15.9870  -23.0510   -3.5510 Cl      1  UNL1       -0.0810
@<TRIPOS>BOND
     1    19    20    2
     2    19    17    1
     3    20    21    1
     4    17    16    2
     5    21    18    2
     6    16    18   ar
     7    16    15   ar
     8    18    22   ar
     9    22    23    1
    10    22    14   ar
    11    15    14   ar
    12    14    11    1
    13     3     4    2
    14     3     2    1
    15    11    10   am
    16    11    12    2
    17    13    10    1
    18     4     5    1
    19     2     1    2
    20    10     9    1
    21     5    24    1
    22     5     6    2
    23     1     6    1
    24     1     7    1
    25    26    25    2
    26    24    25   am
    27    24    27    1
    28     9     7    2
    29    25    28    1
    30     7     8    1
    31    28    29    1
    32    29    30    1
    33    30    31    1
    34    33    34    1
    35    33    32    2
    36    34    35    2
    37    31    32    1
    38    32    38    1
    39    35    36    1
    40    35    37    1
    41    38    37    2
    42    38    39    1
