@<TRIPOS>MOLECULE
83713_out_ligand_01.pdbqt
 32 35 0 0 0
SMALL
GASTEIGER

@<TRIPOS>ATOM
      1  N         18.8880  -22.6240   -8.8180 N.am    1  UNL1       -0.3090
      2  C         18.8590  -22.4260  -10.1790 C.2     1  UNL1        0.3270
      3  O         17.8370  -22.4030  -10.8600 O.2     1  UNL1       -0.2460
      4  N         20.0940  -22.1590  -10.7480 N.am    1  UNL1       -0.2990
      5  C         20.1760  -21.6110  -12.1060 C.3     1  UNL1        0.1380
      6  C         21.6300  -21.1800  -12.3100 C.3     1  UNL1        0.0620
      7  C         22.3290  -21.9540  -11.2300 C.2     1  UNL1       -0.0140
      8  C         23.6930  -22.1760  -11.0540 C.2     1  UNL1        0.0400
      9  C         24.1090  -23.0050  -10.0050 C.2     1  UNL1        0.0180
     10  C         23.1700  -23.5790   -9.1370 C.2     1  UNL1        0.0030
     11  C         21.8040  -23.3330   -9.3040 C.2     1  UNL1        0.0300
     12  C         21.3970  -22.5070  -10.3420 C.2     1  UNL1        0.0460
     13  H         19.6920  -22.2230   -8.3590 H       1  UNL1        0.1700
     14  C         24.7290  -21.6130  -11.9510 C.2     1  UNL1        0.2520
     15  O         25.6970  -21.0280  -11.4840 O.2     1  UNL1       -0.2680
     16  N         24.4940  -21.7580  -13.2980 N.am    1  UNL1       -0.3490
     17  H         23.5820  -22.0680  -13.6050 H       1  UNL1        0.1630
     18  C         25.4000  -21.2210  -14.2990 C.3     1  UNL1        0.1150
     19  C         25.3220  -19.6920  -14.3460 C.3     1  UNL1        0.0370
     20  C         25.1090  -21.8840  -15.6270 C.2     1  UNL1       -0.0180
     21  C         24.9600  -21.1780  -16.8260 C.2     1  UNL1        0.0120
     22  C         24.6560  -21.8610  -18.0010 C.2     1  UNL1        0.0200
     23  C         24.4950  -23.2340  -17.9420 C.2     1  UNL1        0.1160
     24  N         24.6130  -23.9510  -16.8050 N.2     1  UNL1       -0.2730
     25  C         24.9140  -23.2630  -15.6790 C.2     1  UNL1        0.1250
     26  C         17.8290  -23.0300   -7.9840 C.2     1  UNL1        0.0360
     27  C         17.8070  -24.2440   -7.2970 C.2     1  UNL1        0.0300
     28  C         16.7260  -24.5730   -6.4710 C.2     1  UNL1        0.0090
     29  C         15.6490  -23.6920   -6.3210 C.2     1  UNL1       -0.0620
     30  C         14.5090  -24.0350   -5.4100 C.3     1  UNL1        0.0480
     31  C         15.6830  -22.4650   -6.9900 C.2     1  UNL1        0.0090
     32  C         16.7640  -22.1390   -7.8150 C.2     1  UNL1        0.0300
@<TRIPOS>BOND
     1    22    23    2
     2    22    21    1
     3    23    24    1
     4    21    20    2
     5    24    25    2
     6    25    20    1
     7    20    18    1
     8    19    18    1
     9    18    16    1
    10    17    16    1
    11    16    14   am
    12     6     5    1
    13     6     7    1
    14     5     4    1
    15    14    15    2
    16    14     8    1
    17     7     8    2
    18     7    12    1
    19     8     9    1
    20     3     2    2
    21     4    12    1
    22     4     2   am
    23    12    11    2
    24     2     1   am
    25     9    10    2
    26    11    10    1
    27     1    13    1
    28     1    26    1
    29    26    32    2
    30    26    27    1
    31    32    31    1
    32    27    28    2
    33    31    29    2
    34    28    29    1
    35    29    30    1
