@<TRIPOS>MOLECULE
83720_out_ligand_01.pdbqt
 30 33 0 0 0
SMALL
GASTEIGER

@<TRIPOS>ATOM
      1  C         18.7770  -23.1250   -9.2020 C.2     1  UNL1        0.2580
      2  O         18.4860  -23.5600  -10.3110 O.2     1  UNL1       -0.2670
      3  N         19.9890  -22.5660   -8.8260 N.am    1  UNL1       -0.3130
      4  C         20.3800  -22.1600   -7.4630 C.2     1  UNL1        0.1370
      5  C         21.8690  -21.7920   -7.4990 C.2     1  UNL1        0.0610
      6  C         22.1690  -21.8550   -8.9620 C.2     1  UNL1       -0.0290
      7  C         23.3680  -21.5430   -9.5860 C.2     1  UNL1        0.0180
      8  C         23.4690  -21.7010  -10.9760 C.2     1  UNL1       -0.0400
      9  C         22.3630  -22.1900  -11.7000 C.2     1  UNL1        0.0110
     10  C         21.1610  -22.5050  -11.0570 C.2     1  UNL1        0.0310
     11  C         21.0780  -22.3300   -9.6860 C.2     1  UNL1        0.0430
     12  C         24.7690  -21.3970  -11.6780 C.3     1  UNL1        0.1610
     13  N         24.6600  -21.6660  -13.0950 N.am    1  UNL1       -0.3530
     14  C         25.0260  -20.7270  -14.0340 C.2     1  UNL1        0.2520
     15  O         25.3760  -19.5850  -13.7540 O.2     1  UNL1       -0.2680
     16  H         24.6280  -22.6400  -13.3630 H       1  UNL1        0.1630
     17  C         25.0180  -21.1730  -15.4550 C.2     1  UNL1        0.0350
     18  C         25.5500  -20.3110  -16.4270 C.2     1  UNL1        0.0170
     19  C         25.5610  -20.6850  -17.7730 C.2     1  UNL1        0.0040
     20  C         25.0320  -21.9170  -18.1530 C.2     1  UNL1        0.0420
     21  C         24.4920  -22.7590  -17.1860 C.2     1  UNL1        0.1170
     22  F         23.9710  -23.9360  -17.5570 F       1  UNL1       -0.2060
     23  C         24.4740  -22.4010  -15.8410 C.2     1  UNL1        0.0590
     24  C         17.7400  -23.2320   -8.1540 C.2     1  UNL1        0.0320
     25  C         17.7770  -24.3170   -7.2760 C.2     1  UNL1        0.0170
     26  C         16.7990  -24.4350   -6.2860 C.2     1  UNL1        0.0070
     27  C         15.7830  -23.4750   -6.1740 C.2     1  UNL1       -0.0620
     28  C         14.7100  -23.6270   -5.1350 C.3     1  UNL1        0.0480
     29  C         15.7380  -22.4100   -7.0860 C.2     1  UNL1        0.0070
     30  C         16.7140  -22.2880   -8.0770 C.2     1  UNL1        0.0170
@<TRIPOS>BOND
     1    20    19    2
     2    20    21    1
     3    19    18    1
     4    22    21    1
     5    21    23    2
     6    18    17    2
     7    23    17    1
     8    17    14    1
     9    14    15    2
    10    14    13   am
    11    16    13    1
    12    13    12    1
    13     9    10    2
    14     9     8    1
    15    12     8    1
    16    10    11    1
    17     8     7    2
    18     2     1    2
    19    11     6    2
    20    11     3    1
    21     7     6    1
    22     1     3   am
    23     1    24    1
    24     6     5    1
    25     3     4    1
    26    24    30    2
    27    24    25    1
    28    30    29    1
    29     5     4    2
    30    25    26    2
    31    29    27    2
    32    26    27    1
    33    27    28    1
