@<TRIPOS>MOLECULE
83745_out_ligand_01.pdbqt
 34 37 0 0 0
SMALL
GASTEIGER

@<TRIPOS>ATOM
      1  C         19.0250  -23.3450   -9.8940 C.3     1  UNL1        0.1290
      2  C         18.1180  -22.6380  -10.9040 C.3     1  UNL1        0.1220
      3  C         18.7240  -21.3920  -11.5100 C.2     1  UNL1        0.2240
      4  O         18.0380  -20.4950  -11.9910 O.2     1  UNL1       -0.2730
      5  N         20.0870  -21.3190  -11.5430 N.am    1  UNL1       -0.3110
      6  C         20.9550  -22.1850  -10.9540 C.ar    1  UNL1        0.1450
      7  N         22.2730  -21.9250  -11.1890 N.ar    1  UNL1       -0.2060
      8  C         23.1210  -22.6830  -10.5820 C.ar    1  UNL1        0.1710
      9  N         22.7780  -23.7050   -9.7560 N.ar    1  UNL1       -0.3020
     10  C         21.4790  -24.0380   -9.5220 C.ar    1  UNL1        0.2580
     11  O         21.1590  -24.9960   -8.8330 O.2     1  UNL1       -0.2670
     12  C         20.4850  -23.1570  -10.1660 C.ar    1  UNL1        0.0700
     13  H         20.4880  -20.5370  -12.0510 H       1  UNL1        0.1700
     14  H         23.4990  -24.2670   -9.3260 H       1  UNL1        0.1710
     15  C         18.6880  -22.9080   -8.4610 C.2     1  UNL1        0.2310
     16  N         17.6190  -23.5830   -7.8900 N.am    1  UNL1       -0.3270
     17  H         17.2120  -24.3520   -8.4100 H       1  UNL1        0.1690
     18  O         19.3720  -22.0490   -7.9110 O.2     1  UNL1       -0.2720
     19  C         17.0290  -23.3470   -6.6290 C.2     1  UNL1        0.0350
     20  C         17.7220  -23.8180   -5.5070 C.2     1  UNL1        0.0290
     21  C         17.2050  -23.6360   -4.2230 C.2     1  UNL1        0.0030
     22  C         15.9840  -22.9880   -4.0500 C.2     1  UNL1        0.0070
     23  C         15.2700  -22.5250   -5.1580 C.2     1  UNL1       -0.0600
     24  C         13.9670  -21.8060   -4.9700 C.3     1  UNL1        0.0480
     25  C         15.8060  -22.6990   -6.4460 C.2     1  UNL1        0.0360
     26  S         24.8380  -22.5020  -10.7230 S.3     1  UNL1       -0.0870
     27  C         24.9410  -21.5400  -12.2620 C.3     1  UNL1        0.1240
     28  C         24.9750  -22.4290  -13.4790 C.2     1  UNL1       -0.0100
     29  C         25.4240  -23.7570  -13.4010 C.2     1  UNL1        0.0110
     30  C         25.4520  -24.5670  -14.5400 C.2     1  UNL1        0.0010
     31  C         25.0220  -24.0640  -15.7680 C.2     1  UNL1        0.0030
     32  C         24.5570  -22.7530  -15.8550 C.2     1  UNL1        0.0430
     33  C         24.5390  -21.9490  -14.7180 C.2     1  UNL1        0.1230
     34  F         24.0840  -20.6930  -14.8280 F       1  UNL1       -0.2060
@<TRIPOS>BOND
     1    32    31    2
     2    32    33    1
     3    31    30    1
     4    34    33    1
     5    33    28    2
     6    30    29    2
     7    28    29    1
     8    28    27    1
     9    27    26    1
    10    13     5    1
    11     4     3    2
    12     5     3   am
    13     5     6    1
    14     3     2    1
    15     7     6   ar
    16     7     8   ar
    17     6    12   ar
    18     2     1    1
    19    26     8    1
    20     8     9   ar
    21    12     1    1
    22    12    10   ar
    23     1    15    1
    24     9    10   ar
    25     9    14    1
    26    10    11    2
    27    15    18    2
    28    15    16   am
    29    17    16    1
    30    16    19    1
    31    19    25    2
    32    19    20    1
    33    25    23    1
    34    20    21    2
    35    23    24    1
    36    23    22    2
    37    21    22    1
