@<TRIPOS>MOLECULE
83771_out_ligand_01.pdbqt
 35 39 0 0 0
SMALL
GASTEIGER

@<TRIPOS>ATOM
      1  N         22.8370  -22.6520  -10.9760 N.ar    1  UNL1       -0.2080
      2  N         22.0810  -21.8700  -11.8370 N.ar    1  UNL1       -0.1490
      3  C         20.8770  -21.9670  -11.3580 C.ar    1  UNL1        0.1580
      4  C         19.6460  -21.3370  -11.8750 C.2     1  UNL1        0.0540
      5  C         18.4920  -21.6110  -11.2420 C.2     1  UNL1        0.0220
      6  C         18.4400  -22.4900  -10.0750 C.2     1  UNL1        0.0480
      7  C         19.5780  -23.0530   -9.6300 C.2     1  UNL1        0.1200
      8  N         20.7560  -22.7660  -10.2680 N.ar    1  UNL1       -0.2550
      9  C         22.0170  -23.2500  -10.0050 C.ar    1  UNL1        0.3510
     10  O         22.3500  -24.0350   -9.1340 O.2     1  UNL1       -0.2440
     11  C         24.2420  -22.9400  -11.1790 C.3     1  UNL1        0.2590
     12  C         24.6830  -22.6800  -12.6230 C.2     1  UNL1        0.2420
     13  O         25.0350  -23.6080  -13.3460 O.2     1  UNL1       -0.2710
     14  N         24.7540  -21.3350  -12.9320 N.am    1  UNL1       -0.3260
     15  H         24.5250  -20.7150  -12.1560 H       1  UNL1        0.1690
     16  C         25.0720  -20.7320  -14.1610 C.2     1  UNL1        0.0350
     17  C         24.7030  -21.4340  -15.3270 C.2     1  UNL1        0.0300
     18  C         24.9920  -20.9330  -16.6010 C.2     1  UNL1        0.0100
     19  C         25.6660  -19.7310  -16.6930 C.2     1  UNL1       -0.0520
     20  C         26.0370  -19.0270  -15.5430 C.2     1  UNL1       -0.0500
     21  C         26.0630  -18.9820  -17.9260 C.3     1  UNL1        0.0390
     22  C         25.7410  -19.5100  -14.2760 C.2     1  UNL1        0.0370
     23  C         26.7250  -17.7480  -15.9010 C.3     1  UNL1        0.0390
     24  C         27.1160  -18.0190  -17.3620 C.3     1  UNL1        0.0090
     25  C         17.1200  -22.8190   -9.4530 C.2     1  UNL1        0.2530
     26  O         16.0810  -22.3430   -9.8970 O.2     1  UNL1       -0.2680
     27  N         17.1710  -23.6420   -8.3590 N.am    1  UNL1       -0.3530
     28  H         18.0530  -23.8810   -7.9290 H       1  UNL1        0.1630
     29  C         15.9640  -24.0120   -7.6580 C.3     1  UNL1        0.1610
     30  C         15.9890  -23.4910   -6.2480 C.2     1  UNL1       -0.0410
     31  C         17.0570  -23.7880   -5.3890 C.2     1  UNL1        0.0090
     32  C         17.0590  -23.3100   -4.0780 C.2     1  UNL1        0.0010
     33  C         15.9920  -22.5490   -3.6060 C.2     1  UNL1        0.0000
     34  C         14.9190  -22.2590   -4.4460 C.2     1  UNL1        0.0010
     35  C         14.9170  -22.7290   -5.7600 C.2     1  UNL1        0.0090
@<TRIPOS>BOND
     1    21    24    1
     2    21    19    1
     3    24    23    1
     4    19    18    2
     5    19    20    1
     6    18    17    1
     7    23    20    1
     8    20    22    2
     9    17    16    2
    10    22    16    1
    11    16    14    1
    12    13    12    2
    13    14    12   am
    14    14    15    1
    15    12    11    1
    16     4     3    1
    17     4     5    2
    18     2     3   ar
    19     2     1   ar
    20     3     8   ar
    21     5     6    1
    22    11     1    1
    23     1     9   ar
    24     8     9   ar
    25     8     7    1
    26     6     7    2
    27     6    25    1
    28     9    10    2
    29    26    25    2
    30    25    27   am
    31    27    28    1
    32    27    29    1
    33    29    30    1
    34    30    35    2
    35    30    31    1
    36    35    34    1
    37    31    32    2
    38    34    33    2
    39    32    33    1
