@<TRIPOS>MOLECULE
83772_out_ligand_01.pdbqt
 35 37 0 0 0
SMALL
GASTEIGER

@<TRIPOS>ATOM
      1  C         25.4580  -20.0490  -17.6820 C.3     1  UNL1        0.0500
      2  C         25.5400  -20.6760  -16.3150 C.2     1  UNL1       -0.0340
      3  C         26.0190  -19.7970  -15.2660 C.2     1  UNL1        0.0330
      4  C         26.1050  -20.1960  -13.9860 C.2     1  UNL1        0.0120
      5  C         26.6040  -19.2470  -12.9280 C.3     1  UNL1        0.0680
      6  N         25.7430  -21.5010  -13.6480 N.am    1  UNL1       -0.3080
      7  C         25.3500  -22.4340  -14.6150 C.2     1  UNL1        0.2690
      8  O         25.1490  -23.6170  -14.3310 O.2     1  UNL1       -0.2660
      9  C         25.2120  -21.9500  -16.0210 C.2     1  UNL1        0.1180
     10  C         24.7330  -22.8710  -16.9930 C.1     1  UNL1        0.1050
     11  N         24.3370  -23.5810  -17.8220 N.1     1  UNL1       -0.1910
     12  C         25.8170  -21.9850  -12.2640 C.3     1  UNL1        0.2350
     13  C         24.5220  -21.7080  -11.4920 C.2     1  UNL1        0.2400
     14  O         24.5520  -21.1130  -10.4170 O.2     1  UNL1       -0.2710
     15  N         23.3940  -22.1860  -12.1380 N.am    1  UNL1       -0.3260
     16  H         23.5580  -22.6780  -13.0200 H       1  UNL1        0.1690
     17  C         22.0540  -22.1140  -11.7090 C.2     1  UNL1        0.0350
     18  C         21.1080  -21.2420  -12.2500 C.2     1  UNL1        0.0290
     19  C         19.7970  -21.2210  -11.7610 C.2     1  UNL1        0.0030
     20  C         19.4170  -22.0800  -10.7310 C.2     1  UNL1        0.0170
     21  C         20.3510  -22.9710  -10.1930 C.2     1  UNL1        0.0340
     22  C         21.6680  -22.9750  -10.6770 C.2     1  UNL1        0.0460
     23  C         20.0060  -23.9050   -9.0890 C.2     1  UNL1        0.2520
     24  O         20.7260  -24.8690   -8.8500 O.2     1  UNL1       -0.2680
     25  N         18.8490  -23.6380   -8.3920 N.am    1  UNL1       -0.3530
     26  H         18.2900  -22.8280   -8.6170 H       1  UNL1        0.1630
     27  C         18.4980  -24.4110   -7.2240 C.3     1  UNL1        0.1630
     28  C         17.4230  -23.7300   -6.4150 C.2     1  UNL1       -0.0190
     29  C         17.7970  -22.9900   -5.2780 C.2     1  UNL1        0.0130
     30  C         16.8350  -22.3510   -4.4970 C.2     1  UNL1        0.0430
     31  C         15.4940  -22.4540   -4.8430 C.2     1  UNL1        0.1180
     32  F         14.5710  -21.8390   -4.0920 F       1  UNL1       -0.2060
     33  C         15.0940  -23.1870   -5.9510 C.2     1  UNL1        0.0660
     34  C         16.0570  -23.8280   -6.7340 C.2     1  UNL1        0.0440
     35 CL         15.5020  -24.7570   -8.0810 Cl      1  UNL1       -0.0840
@<TRIPOS>BOND
     1    11    10    3
     2     1     2    1
     3    10     9    1
     4     2     9    2
     5     2     3    1
     6     9     7    1
     7     3     4    2
     8     7     8    2
     9     7     6   am
    10     4     6    1
    11     4     5    1
    12     6    12    1
    13    16    15    1
    14    12    13    1
    15    18    19    1
    16    18    17    2
    17    15    17    1
    18    15    13   am
    19    19    20    2
    20    17    22    1
    21    13    14    2
    22    20    21    1
    23    22    21    2
    24    21    23    1
    25    23    24    2
    26    23    25   am
    27    26    25    1
    28    25    27    1
    29    35    34    1
    30    27    28    1
    31    34    28    2
    32    34    33    1
    33    28    29    1
    34    33    31    2
    35    29    30    2
    36    31    30    1
    37    31    32    1
