@<TRIPOS>MOLECULE
83781_out_ligand_01.pdbqt
 35 39 0 0 0
SMALL
GASTEIGER

@<TRIPOS>ATOM
      1  C         20.9220  -22.2100  -10.7530 C.ar    1  UNL1        0.2130
      2  N         21.0780  -21.5770  -11.8970 N.ar    1  UNL1       -0.1200
      3  N         19.8440  -21.1200  -12.2990 N.ar    1  UNL1       -0.1280
      4  C         18.9710  -21.4690  -11.3730 C.ar    1  UNL1        0.1750
      5  C         17.5870  -21.2450  -11.2450 C.2     1  UNL1        0.0570
      6  C         16.9460  -21.7120  -10.1610 C.2     1  UNL1        0.0380
      7  C         17.7510  -22.4400   -9.1300 C.2     1  UNL1        0.0880
      8  N         19.0320  -22.6610   -9.2140 N.2     1  UNL1       -0.1630
      9  N         19.6040  -22.1690  -10.3580 N.ar    1  UNL1       -0.1870
     10  S         22.1700  -22.9850   -9.8430 S.3     1  UNL1       -0.0790
     11  C         23.3500  -21.6170   -9.6230 C.3     1  UNL1        0.1850
     12  C         24.4150  -21.6160  -10.7110 C.2     1  UNL1        0.2310
     13  N         24.1830  -22.5490  -11.7130 N.am    1  UNL1       -0.3260
     14  H         23.4430  -23.2270  -11.5360 H       1  UNL1        0.1690
     15  O         25.3590  -20.8280  -10.6620 O.2     1  UNL1       -0.2720
     16  C         24.9030  -22.7350  -12.9090 C.2     1  UNL1        0.0360
     17  C         25.6000  -23.9370  -13.0440 C.2     1  UNL1        0.0290
     18  C         26.3070  -24.2180  -14.2140 C.2     1  UNL1        0.0040
     19  C         26.3190  -23.2970  -15.2610 C.2     1  UNL1        0.0290
     20  C         25.6370  -22.0870  -15.1400 C.2     1  UNL1        0.0360
     21  C         24.9340  -21.8080  -13.9560 C.2     1  UNL1        0.0590
     22  N         25.6030  -21.0970  -16.1460 N.am    1  UNL1       -0.3270
     23  C         24.9150  -21.1350  -17.3460 C.2     1  UNL1        0.2180
     24  C         25.1170  -19.8770  -18.1510 C.3     1  UNL1        0.1170
     25  O         24.1760  -22.0290  -17.7460 O.2     1  UNL1       -0.2740
     26  H         26.0880  -20.2280  -15.9280 H       1  UNL1        0.1690
     27  C         17.0190  -22.8870   -7.9080 C.2     1  UNL1       -0.0030
     28  C         16.1280  -23.9830   -8.0270 C.2     1  UNL1        0.0170
     29  C         15.4530  -24.4890   -6.9060 C.2     1  UNL1        0.0400
     30  C         15.6750  -23.8670   -5.6980 C.2     1  UNL1        0.1050
     31  C         16.5160  -22.7800   -5.5830 C.2     1  UNL1        0.1050
     32  O         15.1260  -24.2270   -4.5070 O.2     1  UNL1       -0.3230
     33  C         17.1980  -22.2620   -6.6650 C.2     1  UNL1        0.0530
     34  O         16.5900  -22.3110   -4.3080 O.2     1  UNL1       -0.3230
     35  C         15.7180  -23.2450   -3.6280 C.3     1  UNL1        0.3520
@<TRIPOS>BOND
     1    24    23    1
     2    25    23    2
     3    23    22   am
     4    22    26    1
     5    22    20    1
     6    19    20    2
     7    19    18    1
     8    20    21    1
     9    18    17    2
    10    21    16    2
    11    17    16    1
    12    16    13    1
    13     3     2   ar
    14     3     4   ar
    15     2     1   ar
    16    13    14    1
    17    13    12   am
    18     4     5    1
    19     4     9   ar
    20     5     6    2
    21     1     9   ar
    22     1    10    1
    23    12    15    2
    24    12    11    1
    25     9     8    1
    26     6     7    1
    27    10    11    1
    28     8     7    2
    29     7    27    1
    30    28    27    2
    31    28    29    1
    32    27    33    1
    33    29    30    2
    34    33    31    2
    35    30    31    1
    36    30    32    1
    37    31    34    1
    38    32    35    1
    39    34    35    1
