@<TRIPOS>MOLECULE
83808_out_ligand_01.pdbqt
 34 37 0 0 0
SMALL
GASTEIGER

@<TRIPOS>ATOM
      1  C         25.6560  -22.5730  -11.3720 C.ar    1  UNL1        0.0810
      2  N         24.5520  -23.2220  -10.8720 N.ar    1  UNL1       -0.2250
      3  C         23.8780  -22.2850  -10.2330 C.ar    1  UNL1        0.1800
      4  O         24.4480  -21.0410  -10.3090 O.2     1  UNL1       -0.2940
      5  C         25.5890  -21.2350  -11.0340 C.ar    1  UNL1        0.0770
      6  C         26.4340  -20.0490  -11.2580 C.3     1  UNL1        0.0790
      7  C         22.6710  -22.4080   -9.4240 C.2     1  UNL1        0.0170
      8  C         21.6530  -23.2900   -9.8260 C.2     1  UNL1        0.0170
      9  C         20.4980  -23.4480   -9.0550 C.2     1  UNL1        0.0180
     10  C         20.3360  -22.7030   -7.8820 C.2     1  UNL1        0.0320
     11  C         21.3460  -21.8270   -7.4690 C.2     1  UNL1        0.0180
     12  C         22.5060  -21.6830   -8.2350 C.2     1  UNL1        0.0170
     13  C         19.0980  -22.8910   -7.0810 C.2     1  UNL1        0.2520
     14  O         18.6630  -21.9750   -6.3930 O.2     1  UNL1       -0.2680
     15  N         18.5290  -24.1470   -7.1570 N.am    1  UNL1       -0.3520
     16  H         19.1000  -24.8990   -7.5210 H       1  UNL1        0.1630
     17  C         17.3600  -24.5130   -6.3580 C.3     1  UNL1        0.0840
     18  C         17.3710  -23.6880   -5.0650 C.3     1  UNL1        0.0250
     19  C         16.0650  -23.6960   -4.2750 C.2     1  UNL1        0.0020
     20  C         14.8560  -23.0220   -4.9400 C.2     1  UNL1        0.0000
     21  C         15.1620  -22.1970   -6.1870 C.3     1  UNL1        0.0000
     22  C         15.5300  -23.0160   -7.4280 C.3     1  UNL1        0.0020
     23  C         16.0690  -24.4250   -7.1850 C.3     1  UNL1        0.0250
     24  C         26.7090  -23.3060  -12.1130 C.3     1  UNL1        0.2070
     25  S         26.1400  -24.1230  -13.5920 S.O2    1  UNL1        0.1810
     26  O         27.1210  -25.1150  -13.9990 O.2     1  UNL1       -0.2220
     27  O         24.7630  -24.5330  -13.3600 O.2     1  UNL1       -0.2220
     28  C         26.0910  -22.8770  -14.8620 C.2     1  UNL1        0.0590
     29  C         26.7570  -21.6640  -14.6630 C.2     1  UNL1        0.0240
     30  C         26.7390  -20.6930  -15.6670 C.2     1  UNL1        0.0080
     31  C         26.0670  -20.9330  -16.8740 C.2     1  UNL1       -0.0620
     32  C         26.1010  -19.9080  -17.9720 C.3     1  UNL1        0.0480
     33  C         25.4310  -22.1680  -17.0710 C.2     1  UNL1        0.0080
     34  C         25.4400  -23.1420  -16.0700 C.2     1  UNL1        0.0240
@<TRIPOS>BOND
     1    32    31    1
     2    33    31    2
     3    33    34    1
     4    31    30    1
     5    34    28    2
     6    30    29    2
     7    28    29    1
     8    28    25    1
     9    26    25    2
    10    25    27    2
    11    25    24    1
    12    24     1    1
    13     1     5   ar
    14     1     2   ar
    15     6     5    1
    16     5     4   ar
    17     2     3   ar
    18     4     3   ar
    19     3     7    1
    20     8     7    2
    21     8     9    1
    22     7    12    1
    23     9    10    2
    24    12    11    2
    25    10    11    1
    26    10    13    1
    27    16    15    1
    28    22    23    1
    29    22    21    1
    30    23    17    1
    31    15    13   am
    32    15    17    1
    33    13    14    2
    34    17    18    1
    35    21    20    1
    36    18    19    1
    37    20    19    2
