@<TRIPOS>MOLECULE
83817_out_ligand_01.pdbqt
 34 38 0 0 0
SMALL
GASTEIGER

@<TRIPOS>ATOM
      1  C         21.4400  -22.5080   -9.8160 C.2     1  UNL1        0.0320
      2  C         22.5960  -22.9480   -9.1630 C.2     1  UNL1        0.0170
      3  C         23.7900  -23.0950   -9.8720 C.2     1  UNL1        0.0100
      4  C         23.8500  -22.7920  -11.2400 C.2     1  UNL1       -0.0400
      5  C         22.6910  -22.3360  -11.8870 C.2     1  UNL1        0.0100
      6  C         21.4920  -22.1930  -11.1800 C.2     1  UNL1        0.0170
      7  C         25.1590  -22.9150  -11.9910 C.3     1  UNL1        0.1700
      8  N         25.6260  -21.6250  -12.5000 N.am    1  UNL1       -0.3170
      9  C         26.2000  -20.7140  -11.6190 C.2     1  UNL1        0.1140
     10  C         26.6760  -19.5420  -12.0570 C.2     1  UNL1        0.1360
     11  N         26.6100  -19.2230  -13.4050 N.ar    1  UNL1       -0.2370
     12  N         27.0440  -18.0840  -14.0060 N.ar    1  UNL1       -0.1720
     13  C         26.0570  -20.1020  -14.3160 C.ar    1  UNL1        0.1340
     14  C         26.7720  -18.2680  -15.2990 C.ar    1  UNL1        0.0640
     15  C         26.1610  -19.5120  -15.5550 C.ar    1  UNL1        0.0030
     16  C         27.1160  -17.2800  -16.3580 C.3     1  UNL1        0.0620
     17  C         25.7460  -19.9640  -16.9080 C.3     1  UNL1        0.0430
     18  C         26.4160  -19.1090  -18.0010 C.3     1  UNL1        0.0050
     19  C         26.3790  -17.6060  -17.6690 C.3     1  UNL1        0.0060
     20  C         25.5210  -21.3720  -13.8860 C.2     1  UNL1        0.2770
     21  O         25.0120  -22.1720  -14.6670 O.2     1  UNL1       -0.2650
     22  C         20.1900  -22.3460   -9.0230 C.2     1  UNL1        0.2560
     23  N         20.3830  -22.1800   -7.6640 N.am    1  UNL1       -0.3230
     24  H         21.3370  -22.0560   -7.3490 H       1  UNL1        0.1690
     25  O         19.1210  -22.3430   -9.6220 O.2     1  UNL1       -0.2670
     26  C         19.3950  -22.0770   -6.6620 C.2     1  UNL1        0.0350
     27  C         19.6000  -21.1240   -5.6590 C.2     1  UNL1        0.0290
     28  C         18.6750  -20.9690   -4.6250 C.2     1  UNL1        0.0030
     29  C         17.5350  -21.7690   -4.5830 C.2     1  UNL1        0.0070
     30  C         17.3070  -22.7360   -5.5730 C.2     1  UNL1       -0.0530
     31  C         18.2500  -22.8780   -6.6100 C.2     1  UNL1        0.0370
     32  C         16.0800  -23.6320   -5.5480 C.3     1  UNL1        0.0100
     33  C         15.7870  -24.2250   -6.9270 C.3     1  UNL1        0.0150
     34  C         14.8570  -22.8880   -5.0040 C.3     1  UNL1        0.0150
@<TRIPOS>BOND
     1    18    19    1
     2    18    17    1
     3    19    16    1
     4    17    15    1
     5    16    14    1
     6    15    14   ar
     7    15    13   ar
     8    14    12   ar
     9    21    20    2
    10    13    20    1
    11    13    11   ar
    12    12    11   ar
    13    20     8   am
    14    11    10    1
    15     8     7    1
    16     8     9    1
    17    10     9    2
    18     7     4    1
    19     5     4    2
    20     5     6    1
    21     4     3    1
    22     6     1    2
    23     3     2    2
    24     1     2    1
    25     1    22    1
    26    25    22    2
    27    22    23   am
    28    23    24    1
    29    23    26    1
    30    33    32    1
    31    26    31    2
    32    26    27    1
    33    31    30    1
    34    27    28    2
    35    30    32    1
    36    30    29    2
    37    32    34    1
    38    28    29    1
