@<TRIPOS>MOLECULE
83828_out_ligand_01.pdbqt
 36 40 0 0 0
SMALL
GASTEIGER

@<TRIPOS>ATOM
      1  C         20.9920  -22.1740  -10.7700 C.ar    1  UNL1        0.1960
      2  N         21.2610  -21.6150  -11.9320 N.ar    1  UNL1       -0.1220
      3  N         20.0840  -21.1250  -12.4460 N.ar    1  UNL1       -0.1290
      4  C         19.1280  -21.3800  -11.5780 C.ar    1  UNL1        0.1580
      5  C         17.7300  -21.1260  -11.5900 C.2     1  UNL1        0.0540
      6  C         16.9750  -21.5030  -10.5380 C.2     1  UNL1        0.0220
      7  C         17.5660  -22.1580   -9.3680 C.2     1  UNL1        0.0480
      8  C         18.8860  -22.4320   -9.3770 C.2     1  UNL1        0.1180
      9  N         19.6560  -22.0410  -10.4710 N.ar    1  UNL1       -0.2820
     10  S         22.1280  -23.0260   -9.7800 S.3     1  UNL1       -0.0810
     11  C         23.3710  -21.7250   -9.5030 C.3     1  UNL1        0.1850
     12  C         24.3490  -21.6580  -10.6690 C.2     1  UNL1        0.2310
     13  O         25.2890  -20.8670  -10.6550 O.2     1  UNL1       -0.2720
     14  N         24.0490  -22.5530  -11.6830 N.am    1  UNL1       -0.3260
     15  H         23.2440  -23.1620  -11.5300 H       1  UNL1        0.1690
     16  C         24.7700  -22.8000  -12.8680 C.2     1  UNL1        0.0370
     17  C         25.9020  -23.6180  -12.9370 C.2     1  UNL1        0.0320
     18  C         26.5560  -23.8190  -14.1600 C.2     1  UNL1        0.0420
     19  C         26.0870  -23.1960  -15.3130 C.2     1  UNL1        0.1020
     20  C         24.9470  -22.3900  -15.2550 C.2     1  UNL1        0.1040
     21  O         26.7900  -23.4200  -16.4680 O.2     1  UNL1       -0.3460
     22  C         24.2960  -22.1900  -14.0380 C.2     1  UNL1        0.0690
     23  O         24.4190  -21.7520  -16.3480 O.2     1  UNL1       -0.3460
     24  C         24.9710  -22.2510  -17.5710 C.3     1  UNL1        0.2020
     25  C         26.4770  -22.4340  -17.4580 C.3     1  UNL1        0.2020
     26  C         16.7590  -22.6000   -8.1860 C.2     1  UNL1        0.2570
     27  O         15.6380  -23.0620   -8.3520 O.2     1  UNL1       -0.2670
     28  N         17.4350  -22.4610   -6.9890 N.am    1  UNL1       -0.3230
     29  H         18.3970  -22.1580   -7.0350 H       1  UNL1        0.1690
     30  C         16.9480  -22.7430   -5.6950 C.2     1  UNL1        0.0370
     31  C         17.5150  -22.2470   -4.5180 C.2     1  UNL1        0.0290
     32  C         16.9840  -22.5920   -3.2690 C.2     1  UNL1        0.0050
     33  C         15.8760  -23.4300   -3.1880 C.2     1  UNL1        0.0420
     34  C         15.3110  -23.9150   -4.3570 C.2     1  UNL1        0.1180
     35  F         14.2460  -24.7230   -4.2870 F       1  UNL1       -0.2060
     36  C         15.8350  -23.5860   -5.6040 C.2     1  UNL1        0.0710
@<TRIPOS>BOND
     1    24    25    1
     2    24    23    1
     3    25    21    1
     4    21    19    1
     5    23    20    1
     6    19    20    2
     7    19    18    1
     8    20    22    1
     9    18    17    2
    10    22    16    2
    11    17    16    1
    12    16    14    1
    13     3     2   ar
    14     3     4   ar
    15     2     1   ar
    16    14    15    1
    17    14    12   am
    18     5     4    1
    19     5     6    2
    20     4     9   ar
    21     1     9   ar
    22     1    10    1
    23    12    13    2
    24    12    11    1
    25     6     7    1
    26     9     8    1
    27    10    11    1
    28     8     7    2
    29     7    26    1
    30    27    26    2
    31    26    28   am
    32    29    28    1
    33    28    30    1
    34    30    36    2
    35    30    31    1
    36    36    34    1
    37    31    32    2
    38    34    35    1
    39    34    33    2
    40    32    33    1
