@<TRIPOS>MOLECULE
83824_out_ligand_01.pdbqt
 31 34 0 0 0
SMALL
GASTEIGER

@<TRIPOS>ATOM
      1  C         20.1560  -22.8120   -8.3040 C.2     1  UNL1        0.0320
      2  C         21.3020  -22.2560   -7.7240 C.2     1  UNL1        0.0170
      3  C         22.3790  -21.8810   -8.5320 C.2     1  UNL1        0.0110
      4  C         22.3380  -22.0710   -9.9270 C.2     1  UNL1       -0.0250
      5  C         21.1810  -22.6330  -10.4930 C.2     1  UNL1        0.0110
      6  C         20.1030  -23.0120   -9.6870 C.2     1  UNL1        0.0170
      7  C         23.4950  -21.6520  -10.8250 C.3     1  UNL1        0.1810
      8  N         23.2270  -22.0920  -12.1820 N.pl3   1  UNL1       -0.2700
      9  C         24.2090  -21.8390  -13.1490 C.2     1  UNL1        0.0330
     10  H         22.3050  -21.7940  -12.4930 H       1  UNL1        0.1290
     11  C         23.8640  -21.9240  -14.5040 C.2     1  UNL1        0.0250
     12  C         25.5600  -21.6540  -12.8440 C.2     1  UNL1        0.0950
     13  C         24.8270  -21.7680  -15.5070 C.2     1  UNL1        0.0020
     14  C         26.1640  -21.5550  -15.1730 C.2     1  UNL1        0.0020
     15  C         26.5380  -21.5060  -13.8340 C.2     1  UNL1        0.0270
     16  S         26.0520  -21.6350  -11.1580 S.O2    1  UNL1        0.2440
     17  O         26.1860  -20.2520  -10.7620 O.2     1  UNL1       -0.2060
     18  O         27.1190  -22.5960  -10.9870 O.2     1  UNL1       -0.2060
     19  N         24.7160  -22.2710  -10.3850 N.3     1  UNL1       -0.1930
     20  H         24.7080  -23.2840  -10.4370 H       1  UNL1        0.1420
     21  C         18.9890  -23.2340   -7.4800 C.2     1  UNL1        0.2560
     22  O         18.6730  -24.4160   -7.4870 O.2     1  UNL1       -0.2670
     23  N         18.3540  -22.2050   -6.8080 N.am    1  UNL1       -0.3230
     24  H         18.6580  -21.2630   -7.0200 H       1  UNL1        0.1690
     25  C         17.2540  -22.3100   -5.9300 C.2     1  UNL1        0.0370
     26  C         17.5390  -22.4700   -4.5650 C.2     1  UNL1        0.0290
     27  C         16.5090  -22.5890   -3.6260 C.2     1  UNL1        0.0050
     28  C         15.1840  -22.5520   -4.0460 C.2     1  UNL1        0.0420
     29  C         14.9030  -22.3980   -5.3980 C.2     1  UNL1        0.1180
     30  F         13.6260  -22.3680   -5.8000 F       1  UNL1       -0.2060
     31  C         15.9210  -22.2780   -6.3410 C.2     1  UNL1        0.0710
@<TRIPOS>BOND
     1    13    14    2
     2    13    11    1
     3    14    15    1
     4    11     9    2
     5    15    12    2
     6     9    12    1
     7     9     8    1
     8    12    16    1
     9    10     8    1
    10     8     7    1
    11    16    18    2
    12    16    17    2
    13    16    19    1
    14     7    19    1
    15     7     4    1
    16     5     4    2
    17     5     6    1
    18    20    19    1
    19     4     3    1
    20     6     1    2
    21     3     2    2
    22     1     2    1
    23     1    21    1
    24    22    21    2
    25    21    23   am
    26    24    23    1
    27    23    25    1
    28    31    25    2
    29    31    29    1
    30    25    26    1
    31    30    29    1
    32    29    28    2
    33    26    27    2
    34    28    27    1
