@<TRIPOS>MOLECULE
83862_out_ligand_01.pdbqt
 30 33 0 0 0
SMALL
GASTEIGER

@<TRIPOS>ATOM
      1  C         20.0960  -22.0090  -10.9850 C.2     1  UNL1        0.0320
      2  C         18.9590  -21.6460  -11.7180 C.2     1  UNL1        0.0180
      3  C         17.6860  -21.8100  -11.1670 C.2     1  UNL1        0.0190
      4  C         17.5450  -22.3160   -9.8690 C.2     1  UNL1        0.0450
      5  C         18.6810  -22.6510   -9.1180 C.2     1  UNL1       -0.0380
      6  C         19.9580  -22.5060   -9.6810 C.2     1  UNL1        0.0250
      7  C         18.4940  -23.1930   -7.7290 C.3     1  UNL1        0.0770
      8  C         17.2370  -22.5580   -7.1290 C.3     1  UNL1        0.1690
      9  O         16.1090  -22.8310   -7.9910 O.3     1  UNL1       -0.3070
     10  C         16.1820  -22.5220   -9.3090 C.2     1  UNL1        0.2940
     11  O         15.1870  -22.4460  -10.0180 O.2     1  UNL1       -0.2590
     12  C         21.4330  -21.8230  -11.6120 C.2     1  UNL1        0.2560
     13  O         21.4950  -21.2090  -12.6710 O.2     1  UNL1       -0.2670
     14  N         22.4840  -22.4080  -10.9270 N.am    1  UNL1       -0.3230
     15  H         22.2420  -22.9970  -10.1400 H       1  UNL1        0.1690
     16  C         23.8530  -22.3600  -11.2620 C.2     1  UNL1        0.0370
     17  C         24.7660  -21.4670  -10.6890 C.2     1  UNL1        0.0290
     18  C         26.1140  -21.4790  -11.0660 C.2     1  UNL1        0.0050
     19  C         26.5700  -22.3860  -12.0190 C.2     1  UNL1        0.0360
     20  C         25.6630  -23.2830  -12.5920 C.2     1  UNL1        0.1050
     21  C         24.3100  -23.2750  -12.2170 C.2     1  UNL1        0.0650
     22  N         26.1290  -24.2480  -13.5940 N.pl3   1  UNL1       -0.1160
     23  O         25.5830  -24.2300  -14.7060 O.2     1  UNL1       -0.5320
     24  O         27.0380  -25.0260  -13.2700 O.2     1  UNL1       -0.5320
     25  C         16.8620  -23.0120   -5.7280 C.2     1  UNL1       -0.0290
     26  C         15.5380  -23.4270   -5.4920 C.2     1  UNL1        0.0100
     27  C         15.1250  -23.8410   -4.2240 C.2     1  UNL1        0.0010
     28  C         16.0280  -23.8460   -3.1670 C.2     1  UNL1        0.0000
     29  C         17.3430  -23.4400   -3.3780 C.2     1  UNL1        0.0010
     30  C         17.7580  -23.0260   -4.6480 C.2     1  UNL1        0.0100
@<TRIPOS>BOND
     1    23    22    2
     2    22    24    2
     3    22    20    1
     4    13    12    2
     5    20    21    1
     6    20    19    2
     7    21    16    2
     8    19    18    1
     9     2     3    1
    10     2     1    2
    11    12     1    1
    12    12    14   am
    13    16    14    1
    14    16    17    1
    15     3     4    2
    16    18    17    2
    17     1     6    1
    18    14    15    1
    19    11    10    2
    20     4    10    1
    21     4     5    1
    22     6     5    2
    23    10     9    1
    24     5     7    1
    25     9     8    1
    26     7     8    1
    27     8    25    1
    28    25    26    2
    29    25    30    1
    30    26    27    1
    31    30    29    2
    32    27    28    2
    33    29    28    1
