@<TRIPOS>MOLECULE
83888_out_ligand_01.pdbqt
 30 33 0 0 0
SMALL
GASTEIGER

@<TRIPOS>ATOM
      1  C         16.0050  -23.0410   -4.0420 C.3     1  UNL1        0.0480
      2  C         16.3750  -23.0610   -5.4970 C.2     1  UNL1       -0.0600
      3  C         15.5390  -22.4710   -6.4480 C.2     1  UNL1        0.0090
      4  C         15.8660  -22.5370   -7.8020 C.2     1  UNL1        0.0400
      5  C         17.0390  -23.1740   -8.2160 C.2     1  UNL1        0.1020
      6  C         17.8840  -23.7690   -7.2830 C.2     1  UNL1        0.0690
      7  C         17.5320  -23.7290   -5.9260 C.2     1  UNL1        0.0390
      8  N         19.0520  -24.4620   -7.6180 N.am    1  UNL1       -0.3200
      9  C         19.8430  -24.3710   -8.7330 C.2     1  UNL1        0.2590
     10  O         20.8330  -25.0980   -8.8130 O.2     1  UNL1       -0.2670
     11  C         19.6200  -23.3300   -9.7590 C.2     1  UNL1        0.0680
     12  C         20.7500  -22.8400  -10.4360 C.2     1  UNL1        0.0440
     13  C         20.6180  -21.8440  -11.4020 C.2     1  UNL1        0.0240
     14  C         19.3570  -21.3600  -11.7410 C.2     1  UNL1        0.0270
     15  C         18.2300  -21.8600  -11.0890 C.2     1  UNL1        0.0400
     16  C         18.3630  -22.8310  -10.0900 C.2     1  UNL1        0.0920
     17  O         17.1940  -23.3130   -9.5710 O.2     1  UNL1       -0.3070
     18  H         19.4690  -25.0560   -6.9100 H       1  UNL1        0.1690
     19  N         21.7850  -21.3780  -12.0960 N.pl3   1  UNL1       -0.1810
     20  H         21.7710  -21.7020  -13.0660 H       1  UNL1        0.1460
     21  S         23.2510  -21.9460  -11.4210 S.O2    1  UNL1        0.2470
     22  O         23.6490  -21.1390  -10.2920 O.2     1  UNL1       -0.2050
     23  O         23.0690  -23.3800  -11.2900 O.2     1  UNL1       -0.2050
     24  C         24.4040  -21.6700  -12.7430 C.2     1  UNL1        0.0920
     25  C         23.9050  -21.1330  -13.9420 C.2     1  UNL1        0.0260
     26  C         24.7590  -20.8980  -15.0200 C.2     1  UNL1        0.0020
     27  C         26.1120  -21.1990  -14.9100 C.2     1  UNL1        0.0010
     28  C         26.6110  -21.7380  -13.7230 C.2     1  UNL1        0.0200
     29  C         25.7630  -21.9790  -12.6320 C.2     1  UNL1        0.0330
     30 BR         26.5870  -22.7090  -11.0880 Br      1  UNL1       -0.0490
@<TRIPOS>BOND
     1    26    27    2
     2    26    25    1
     3    27    28    1
     4    25    24    2
     5    28    29    2
     6    20    19    1
     7    24    29    1
     8    24    21    1
     9    29    30    1
    10    19    21    1
    11    19    13    1
    12    14    13    2
    13    14    15    1
    14    21    23    2
    15    21    22    2
    16    13    12    1
    17    15    16    2
    18    12    11    2
    19    16    11    1
    20    16    17    1
    21    11     9    1
    22    17     5    1
    23    10     9    2
    24     9     8   am
    25     5     4    2
    26     5     6    1
    27     4     3    1
    28     8     6    1
    29     8    18    1
    30     6     7    2
    31     3     2    2
    32     7     2    1
    33     2     1    1
