@<TRIPOS>MOLECULE
83916_out_ligand_01.pdbqt
 33 36 0 0 0
SMALL
GASTEIGER

@<TRIPOS>ATOM
      1  N         21.1930  -23.3920   -9.9140 N.am    1  UNL1       -0.3570
      2  C         22.5550  -23.2510  -10.0860 C.2     1  UNL1        0.2510
      3  O         23.3710  -23.4860   -9.2020 O.2     1  UNL1       -0.2680
      4  H         20.5710  -22.9390  -10.5720 H       1  UNL1        0.1620
      5  C         23.0070  -22.7350  -11.4080 C.2     1  UNL1        0.0320
      6  C         22.2190  -21.8770  -12.1830 C.2     1  UNL1        0.0190
      7  C         22.6890  -21.4190  -13.4190 C.2     1  UNL1        0.0320
      8  C         23.9490  -21.8160  -13.9000 C.2     1  UNL1        0.0560
      9  C         24.7270  -22.6870  -13.1280 C.2     1  UNL1        0.0320
     10  C         24.2540  -23.1450  -11.8920 C.2     1  UNL1        0.0190
     11  N         24.3980  -21.3310  -15.1610 N.ar    1  UNL1       -0.2180
     12  N         24.0500  -21.9740  -16.3160 N.ar    1  UNL1        0.0120
     13  N         24.5900  -21.3330  -17.3450 N.ar    1  UNL1       -0.1560
     14  C         25.2890  -20.2720  -16.8570 C.ar    1  UNL1        0.1220
     15  C         26.0370  -19.2810  -17.5010 C.2     1  UNL1        0.0380
     16  C         25.1920  -20.2330  -15.4700 C.ar    1  UNL1        0.1780
     17  C         26.6400  -18.3110  -16.6990 C.2     1  UNL1        0.0220
     18  C         26.4730  -18.3750  -15.3200 C.2     1  UNL1        0.1190
     19  N         25.7590  -19.3120  -14.6520 N.2     1  UNL1       -0.2400
     20  C         20.6330  -23.7530   -8.6250 C.3     1  UNL1        0.1270
     21  C         20.2250  -22.5390   -7.7820 C.3     1  UNL1        0.0580
     22  C         19.0390  -22.8220   -6.8860 C.2     1  UNL1       -0.0570
     23  C         18.3260  -24.0230   -7.0080 C.2     1  UNL1        0.0090
     24  C         17.2160  -24.2730   -6.2000 C.2     1  UNL1        0.0250
     25  C         16.8230  -23.3160   -5.2610 C.2     1  UNL1        0.0740
     26  C         17.5120  -22.1080   -5.1370 C.2     1  UNL1        0.0250
     27  C         18.6220  -21.8660   -5.9470 C.2     1  UNL1        0.0090
     28  S         15.4110  -23.6150   -4.2310 S.O2    1  UNL1        0.2390
     29  O         14.2770  -23.8860   -5.0790 O.2     1  UNL1       -0.2060
     30  O         15.8060  -24.4930   -3.1530 O.2     1  UNL1       -0.2060
     31  N         15.1860  -22.1040   -3.5210 N.3     1  UNL1       -0.2250
     32  H         14.4170  -21.5770   -3.9330 H       1  UNL1        0.1360
     33  H         16.0660  -21.5870   -3.5610 H       1  UNL1        0.1360
@<TRIPOS>BOND
     1    15    14    2
     2    15    17    1
     3    13    14   ar
     4    13    12   ar
     5    14    16   ar
     6    17    18    2
     7    12    11   ar
     8    16    11   ar
     9    16    19    2
    10    18    19    1
    11    11     8    1
    12     8     7    2
    13     8     9    1
    14     7     6    1
    15     9    10    2
    16     6     5    2
    17    10     5    1
    18     5     2    1
    19     4     1    1
    20     2     1   am
    21     2     3    2
    22     1    20    1
    23    20    21    1
    24    21    22    1
    25    23    22    2
    26    23    24    1
    27    22    27    1
    28    24    25    2
    29    27    26    2
    30    25    26    1
    31    25    28    1
    32    29    28    2
    33    28    31    1
    34    28    30    2
    35    32    31    1
    36    33    31    1
