@<TRIPOS>MOLECULE
83922_out_ligand_01.pdbqt
 35 37 0 0 0
SMALL
GASTEIGER

@<TRIPOS>ATOM
      1  C         24.8910  -20.4160  -17.9320 C.3     1  UNL1        0.0500
      2  C         25.1200  -20.9460  -16.5420 C.2     1  UNL1       -0.0340
      3  C         25.6340  -19.9790  -15.5910 C.2     1  UNL1        0.0330
      4  C         25.8500  -20.2920  -14.3040 C.2     1  UNL1        0.0120
      5  C         26.4010  -19.2580  -13.3580 C.3     1  UNL1        0.0680
      6  N         25.5830  -21.5870  -13.8570 N.am    1  UNL1       -0.3080
      7  C         25.1650  -22.5990  -14.7280 C.2     1  UNL1        0.2690
      8  O         25.0540  -23.7710  -14.3600 O.2     1  UNL1       -0.2660
      9  C         24.8910  -22.2140  -16.1460 C.2     1  UNL1        0.1180
     10  C         24.4070  -23.2250  -17.0200 C.1     1  UNL1        0.1050
     11  N         24.0100  -24.0210  -17.7670 N.1     1  UNL1       -0.1910
     12  C         25.7960  -21.9710  -12.4550 C.3     1  UNL1        0.2350
     13  C         24.5490  -21.7260  -11.6000 C.2     1  UNL1        0.2400
     14  O         24.6280  -21.1000  -10.5470 O.2     1  UNL1       -0.2710
     15  N         23.3960  -22.2440  -12.1640 N.am    1  UNL1       -0.3260
     16  H         23.5030  -22.6690  -13.0870 H       1  UNL1        0.1690
     17  C         22.0980  -22.2660  -11.6180 C.2     1  UNL1        0.0350
     18  C         21.1620  -21.3860  -12.1750 C.2     1  UNL1        0.0290
     19  C         19.8450  -21.3530  -11.7100 C.2     1  UNL1        0.0030
     20  C         19.4500  -22.2030  -10.6790 C.2     1  UNL1        0.0170
     21  C         20.3780  -23.0820  -10.1090 C.2     1  UNL1        0.0340
     22  C         21.6980  -23.1160  -10.5860 C.2     1  UNL1        0.0460
     23  C         19.9860  -24.0290   -9.0300 C.2     1  UNL1        0.2520
     24  O         20.6600  -25.0280   -8.8050 O.2     1  UNL1       -0.2680
     25  N         18.8560  -23.7000   -8.3110 N.am    1  UNL1       -0.3530
     26  H         18.5310  -22.7450   -8.3480 H       1  UNL1        0.1630
     27  C         18.4810  -24.4730   -7.1470 C.3     1  UNL1        0.1640
     28  C         17.4210  -23.7610   -6.3560 C.2     1  UNL1       -0.0020
     29  C         17.7740  -22.9410   -5.2710 C.2     1  UNL1        0.0150
     30  C         16.7850  -22.2920   -4.5290 C.2     1  UNL1        0.0430
     31  C         15.4480  -22.4630   -4.8700 C.2     1  UNL1        0.1190
     32  F         14.5020  -21.8440   -4.1520 F       1  UNL1       -0.2060
     33  C         15.0770  -23.2680   -5.9380 C.2     1  UNL1        0.0850
     34  C         16.0680  -23.9090   -6.6720 C.2     1  UNL1        0.1270
     35  F         15.7010  -24.6950   -7.6960 F       1  UNL1       -0.2050
@<TRIPOS>BOND
     1     1     2    1
     2    11    10    3
     3    10     9    1
     4     2     9    2
     5     2     3    1
     6     9     7    1
     7     3     4    2
     8     7     8    2
     9     7     6   am
    10     4     6    1
    11     4     5    1
    12     6    12    1
    13    16    15    1
    14    12    13    1
    15    18    19    1
    16    18    17    2
    17    15    17    1
    18    15    13   am
    19    19    20    2
    20    17    22    1
    21    13    14    2
    22    20    21    1
    23    22    21    2
    24    21    23    1
    25    23    24    2
    26    23    25   am
    27    26    25    1
    28    25    27    1
    29    35    34    1
    30    27    28    1
    31    34    28    2
    32    34    33    1
    33    28    29    1
    34    33    31    2
    35    29    30    2
    36    31    30    1
    37    31    32    1
