@<TRIPOS>MOLECULE
83940_out_ligand_01.pdbqt
 38 41 0 0 0
SMALL
GASTEIGER

@<TRIPOS>ATOM
      1  N         20.0890  -23.4440   -9.2850 N.ar    1  UNL1       -0.2900
      2  C         21.4060  -23.6560   -9.6730 C.ar    1  UNL1        0.3330
      3  O         22.1030  -24.4900   -9.0900 O.2     1  UNL1       -0.2460
      4  N         21.8750  -22.9250  -10.7510 N.ar    1  UNL1       -0.2570
      5  C         21.1080  -22.0420  -11.4960 C.ar    1  UNL1        0.2640
      6  O         21.5750  -21.3220  -12.3770 O.2     1  UNL1       -0.2670
      7  C         19.6790  -21.9560  -11.1640 C.ar    1  UNL1        0.0590
      8  C         18.8380  -21.1510  -11.9490 C.2     1  UNL1        0.0190
      9  C         17.4890  -21.0420  -11.6310 C.2     1  UNL1        0.0010
     10  C         16.9840  -21.7410  -10.5380 C.2     1  UNL1        0.0020
     11  C         17.8250  -22.5460   -9.7620 C.2     1  UNL1        0.0310
     12  C         19.1930  -22.6550  -10.0570 C.ar    1  UNL1        0.0550
     13  C         19.6340  -24.1130   -8.0600 C.3     1  UNL1        0.2370
     14  C         18.8020  -23.1820   -7.1710 C.2     1  UNL1        0.2400
     15  N         17.5650  -23.7130   -6.8510 N.am    1  UNL1       -0.3260
     16  H         17.3870  -24.6580   -7.1860 H       1  UNL1        0.1690
     17  O         19.2680  -22.1100   -6.7880 O.2     1  UNL1       -0.2710
     18  C         16.5360  -23.1180   -6.0960 C.2     1  UNL1        0.0350
     19  C         16.7210  -23.0610   -4.7090 C.2     1  UNL1        0.0290
     20  C         15.7400  -22.5180   -3.8810 C.2     1  UNL1        0.0030
     21  C         14.5670  -22.0100   -4.4340 C.2     1  UNL1        0.0070
     22  C         14.3650  -22.0480   -5.8190 C.2     1  UNL1       -0.0560
     23  C         15.3550  -22.6090   -6.6430 C.2     1  UNL1        0.0360
     24  C         13.1110  -21.4670   -6.4220 C.3     1  UNL1        0.0340
     25  C         12.5970  -20.2840   -5.6150 C.3     1  UNL1        0.0100
     26  C         23.2880  -23.0470  -11.0980 C.3     1  UNL1        0.2390
     27  C         24.0510  -21.8100  -10.6160 C.2     1  UNL1        0.2360
     28  O         23.7170  -21.1690   -9.6260 O.2     1  UNL1       -0.2720
     29  N         25.1570  -21.4920  -11.3780 N.am    1  UNL1       -0.3590
     30  H         25.4060  -22.1050  -12.1550 H       1  UNL1        0.1620
     31  C         26.0190  -20.3660  -11.0770 C.3     1  UNL1        0.1270
     32  C         26.5640  -19.6990  -12.3420 C.3     1  UNL1        0.0580
     33  C         26.1660  -20.4510  -13.5870 C.2     1  UNL1       -0.0570
     34  C         24.9990  -20.1070  -14.2820 C.2     1  UNL1        0.0070
     35  C         24.6190  -20.8230  -15.4180 C.2     1  UNL1        0.0010
     36  C         25.3980  -21.8890  -15.8690 C.2     1  UNL1        0.0000
     37  C         26.5600  -22.2380  -15.1860 C.2     1  UNL1        0.0010
     38  C         26.9410  -21.5240  -14.0490 C.2     1  UNL1        0.0070
@<TRIPOS>BOND
     1    36    35    2
     2    36    37    1
     3    35    34    1
     4    37    38    2
     5    34    33    2
     6    38    33    1
     7    33    32    1
     8     6     5    2
     9    32    31    1
    10    30    29    1
    11     8     9    1
    12     8     7    2
    13     9    10    2
    14     5     7   ar
    15     5     4   ar
    16    29    31    1
    17    29    27   am
    18     7    12   ar
    19    26     4    1
    20    26    27    1
    21     4     2   ar
    22    27    28    2
    23    10    11    1
    24    12    11    2
    25    12     1   ar
    26     2     1   ar
    27     2     3    2
    28     1    13    1
    29    13    14    1
    30    16    15    1
    31    14    15   am
    32    14    17    2
    33    15    18    1
    34    23    18    2
    35    23    22    1
    36    24    22    1
    37    24    25    1
    38    18    19    1
    39    22    21    2
    40    19    20    2
    41    21    20    1
