@<TRIPOS>MOLECULE
83946_out_ligand_01.pdbqt
 34 37 0 0 0
SMALL
GASTEIGER

@<TRIPOS>ATOM
      1  C         22.9250  -22.4130  -10.4330 C.2     1  UNL1        0.0480
      2  C         22.7190  -23.5410   -9.5290 C.2     1  UNL1        0.0220
      3  C         21.4830  -23.9440   -9.1840 C.2     1  UNL1        0.0540
      4  C         20.3340  -23.2060   -9.7490 C.ar    1  UNL1        0.1580
      5  N         19.0730  -23.4070   -9.5140 N.ar    1  UNL1       -0.1490
      6  N         18.4430  -22.4500  -10.2950 N.ar    1  UNL1       -0.2080
      7  C         19.3890  -21.6510  -10.9610 C.ar    1  UNL1        0.3510
      8  O         19.1700  -20.6850  -11.6740 O.2     1  UNL1       -0.2440
      9  N         20.6050  -22.1850  -10.6020 N.ar    1  UNL1       -0.2550
     10  C         21.8620  -21.7780  -10.9590 C.2     1  UNL1        0.1200
     11  C         24.2790  -21.9420  -10.8400 C.2     1  UNL1        0.2530
     12  N         24.8450  -22.6790  -11.8500 N.am    1  UNL1       -0.3530
     13  H         24.4210  -23.5510  -12.1380 H       1  UNL1        0.1630
     14  O         24.8340  -21.0050  -10.2800 O.2     1  UNL1       -0.2680
     15  C         26.2080  -22.4350  -12.2580 C.3     1  UNL1        0.1610
     16  C         26.2840  -21.2280  -13.1540 C.2     1  UNL1       -0.0410
     17  C         25.5230  -21.1710  -14.3290 C.2     1  UNL1        0.0090
     18  C         25.5670  -20.0400  -15.1470 C.2     1  UNL1        0.0070
     19  C         26.3770  -18.9500  -14.8090 C.2     1  UNL1       -0.0620
     20  C         26.4060  -17.7240  -15.6740 C.3     1  UNL1        0.0480
     21  C         27.1210  -18.9970  -13.6240 C.2     1  UNL1        0.0070
     22  C         27.0750  -20.1260  -12.8020 C.2     1  UNL1        0.0090
     23  C         17.0140  -22.2020  -10.2660 C.3     1  UNL1        0.2590
     24  C         16.3420  -22.7900   -9.0210 C.2     1  UNL1        0.2420
     25  O         15.5750  -23.7440   -9.1160 O.2     1  UNL1       -0.2710
     26  N         16.8020  -22.2280   -7.8440 N.am    1  UNL1       -0.3260
     27  H         17.5250  -21.5220   -7.9770 H       1  UNL1        0.1690
     28  C         16.4140  -22.5080   -6.5230 C.2     1  UNL1        0.0350
     29  C         15.0810  -22.2430   -6.1840 C.2     1  UNL1        0.0290
     30  C         14.6120  -22.5040   -4.8960 C.2     1  UNL1        0.0030
     31  C         15.4700  -23.0330   -3.9350 C.2     1  UNL1        0.0070
     32  C         16.8040  -23.3040   -4.2560 C.2     1  UNL1       -0.0600
     33  C         17.7210  -23.8770   -3.2160 C.3     1  UNL1        0.0480
     34  C         17.2670  -23.0410   -5.5560 C.2     1  UNL1        0.0360
@<TRIPOS>BOND
     1    20    19    1
     2    18    19    2
     3    18    17    1
     4    19    21    1
     5    17    16    2
     6    21    22    2
     7    16    22    1
     8    16    15    1
     9    15    12    1
    10    13    12    1
    11    12    11   am
    12     8     7    2
    13     7     9   ar
    14     7     6   ar
    15    10     9    1
    16    10     1    2
    17    11     1    1
    18    11    14    2
    19     9     4   ar
    20     1     2    1
    21     6    23    1
    22     6     5   ar
    23    23    24    1
    24     4     5   ar
    25     4     3    1
    26     2     3    2
    27    25    24    2
    28    24    26   am
    29    27    26    1
    30    26    28    1
    31    28    29    2
    32    28    34    1
    33    29    30    1
    34    34    32    2
    35    30    31    2
    36    32    31    1
    37    32    33    1
