@<TRIPOS>MOLECULE
83956_out_ligand_01.pdbqt
 36 40 0 0 0
SMALL
GASTEIGER

@<TRIPOS>ATOM
      1  C         16.5210  -21.7470  -10.0060 C.3     1  UNL1        0.1210
      2  C         17.8480  -21.6660  -10.7210 C.2     1  UNL1       -0.0480
      3  C         18.3160  -20.4480  -11.2400 C.2     1  UNL1        0.0090
      4  C         19.5740  -20.3710  -11.8450 C.2     1  UNL1        0.0170
      5  C         20.3800  -21.5110  -11.9500 C.2     1  UNL1        0.0320
      6  C         19.9160  -22.7300  -11.4420 C.2     1  UNL1        0.0170
      7  C         18.6560  -22.8070  -10.8420 C.2     1  UNL1        0.0090
      8  C         21.7380  -21.3640  -12.5420 C.2     1  UNL1        0.2510
      9  O         21.8930  -20.7130  -13.5700 O.2     1  UNL1       -0.2680
     10  N         22.7740  -21.9780  -11.8720 N.am    1  UNL1       -0.3530
     11  H         22.5910  -22.5190  -11.0400 H       1  UNL1        0.1630
     12  C         24.1580  -21.7490  -12.2330 C.3     1  UNL1        0.1620
     13  C         24.6050  -22.7290  -13.2840 C.2     1  UNL1       -0.0230
     14  C         24.6550  -22.3670  -14.6360 C.2     1  UNL1        0.0120
     15  C         25.0900  -23.2890  -15.5830 C.2     1  UNL1        0.0200
     16  C         25.4590  -24.5510  -15.1520 C.2     1  UNL1        0.1160
     17  N         25.4090  -24.9450  -13.8620 N.2     1  UNL1       -0.2730
     18  C         24.9850  -24.0280  -12.9600 C.2     1  UNL1        0.1240
     19  S         16.0960  -23.4090   -9.4330 S.3     1  UNL1       -0.0870
     20  C         16.2040  -23.2270   -7.7140 C.ar    1  UNL1        0.1700
     21  N         15.2970  -22.6250   -6.9720 N.ar    1  UNL1       -0.2220
     22  C         15.7560  -22.7140   -5.6850 C.ar    1  UNL1        0.0890
     23  C         15.1800  -22.2410   -4.5070 C.2     1  UNL1        0.0530
     24  C         16.9710  -23.3970   -5.6400 C.ar    1  UNL1        0.0830
     25  C         15.8770  -22.5160   -3.3460 C.2     1  UNL1        0.1180
     26  N         17.0490  -23.1910   -3.2910 N.2     1  UNL1       -0.2710
     27  C         17.6210  -23.6350   -4.4390 C.2     1  UNL1        0.1480
     28  N         17.2430  -23.7170   -6.9580 N.ar    1  UNL1       -0.3180
     29  C         18.3400  -24.5640   -7.4030 C.3     1  UNL1        0.1730
     30  C         19.5890  -23.7970   -7.7410 C.2     1  UNL1       -0.0010
     31  C         19.7670  -22.4810   -7.2850 C.2     1  UNL1        0.0120
     32  C         20.9380  -21.7800   -7.5800 C.2     1  UNL1        0.0010
     33  C         21.9470  -22.3840   -8.3290 C.2     1  UNL1        0.0030
     34  C         21.7870  -23.6910   -8.7760 C.2     1  UNL1        0.0430
     35  C         20.6190  -24.3850   -8.4820 C.2     1  UNL1        0.1240
     36  F         20.4990  -25.6480   -8.9020 F       1  UNL1       -0.2050
@<TRIPOS>BOND
     1    15    16    2
     2    15    14    1
     3    16    17    1
     4    14    13    2
     5    17    18    2
     6     9     8    2
     7    13    18    1
     8    13    12    1
     9     8     5    1
    10     8    10   am
    11    12    10    1
    12     5     4    2
    13     5     6    1
    14    10    11    1
    15     4     3    1
    16     6     7    2
    17     3     2    2
    18     7     2    1
    19     2     1    1
    20     1    19    1
    21    19    20    1
    22    36    35    1
    23    34    35    1
    24    34    33    2
    25    35    30    2
    26    33    32    1
    27    30    29    1
    28    30    31    1
    29    20    21   ar
    30    20    28   ar
    31    32    31    2
    32    29    28    1
    33    21    22   ar
    34    28    24   ar
    35    22    24   ar
    36    22    23    1
    37    24    27    1
    38    23    25    2
    39    27    26    2
    40    25    26    1
