@<TRIPOS>MOLECULE
83955_out_ligand_01.pdbqt
 29 32 0 0 0
SMALL
GASTEIGER

@<TRIPOS>ATOM
      1  C         20.5830  -22.4910   -7.5760 C.2     1  UNL1        0.0320
      2  C         20.4990  -23.6140   -8.4090 C.2     1  UNL1        0.0170
      3  C         21.5430  -23.9090   -9.2900 C.2     1  UNL1        0.0100
      4  C         22.6720  -23.0780   -9.3670 C.2     1  UNL1       -0.0300
      5  C         22.7430  -21.9490   -8.5380 C.2     1  UNL1        0.0100
      6  C         21.7020  -21.6540   -7.6540 C.2     1  UNL1        0.0170
      7  C         19.4930  -22.1370   -6.6210 C.2     1  UNL1        0.2560
      8  N         18.5070  -23.0980   -6.4900 N.am    1  UNL1       -0.3220
      9  H         18.6810  -23.9760   -6.9560 H       1  UNL1        0.1690
     10  O         19.5790  -21.0720   -6.0210 O.2     1  UNL1       -0.2670
     11  C         17.3240  -23.0360   -5.7090 C.2     1  UNL1        0.0410
     12  C         17.3100  -23.4170   -4.3630 C.2     1  UNL1        0.0300
     13  C         16.1420  -23.3430   -3.6090 C.2     1  UNL1        0.0030
     14  C         14.9660  -22.8840   -4.1890 C.2     1  UNL1        0.0070
     15  C         14.9400  -22.4880   -5.5340 C.2     1  UNL1       -0.0540
     16  C         13.6330  -21.9980   -6.1020 C.3     1  UNL1        0.0490
     17  C         16.1260  -22.5590   -6.3080 C.2     1  UNL1       -0.0290
     18  C         16.1190  -22.1350   -7.7580 C.3     1  UNL1        0.0510
     19  C         23.8060  -23.4030  -10.3210 C.3     1  UNL1        0.3110
     20  N         24.0640  -22.3440  -11.3090 N.3     1  UNL1        0.0970
     21  C         24.1470  -22.9150  -12.6630 C.3     1  UNL1        0.2770
     22  C         24.2120  -21.8030  -13.7180 C.3     1  UNL1        0.0690
     23  C         25.2510  -20.7610  -13.3940 C.2     1  UNL1       -0.0490
     24  C         25.6820  -19.8640  -14.3790 C.2     1  UNL1        0.0070
     25  C         25.7430  -20.6490  -12.0820 C.2     1  UNL1       -0.0240
     26  C         26.6150  -18.8750  -14.0710 C.2     1  UNL1        0.0010
     27  C         27.1200  -18.7710  -12.7770 C.2     1  UNL1        0.0010
     28  C         26.6880  -19.6540  -11.7880 C.2     1  UNL1        0.0090
     29  C         25.3180  -21.6240  -11.0020 C.3     1  UNL1        0.3110
@<TRIPOS>BOND
     1    24    26    1
     2    24    23    2
     3    26    27    2
     4    22    23    1
     5    22    21    1
     6    23    25    1
     7    27    28    1
     8    21    20    1
     9    25    28    2
    10    25    29    1
    11    20    29    1
    12    20    19    1
    13    19     4    1
    14     4     3    2
    15     4     5    1
    16     3     2    1
    17     5     6    2
    18     2     1    2
    19    18    17    1
    20     6     1    1
    21     1     7    1
    22     9     8    1
    23     7     8   am
    24     7    10    2
    25     8    11    1
    26    17    11    2
    27    17    15    1
    28    16    15    1
    29    11    12    1
    30    15    14    2
    31    12    13    2
    32    14    13    1
