@<TRIPOS>MOLECULE
83950_out_ligand_01.pdbqt
 35 38 0 0 0
SMALL
GASTEIGER

@<TRIPOS>ATOM
      1  C         23.7480  -22.1520  -14.3340 C.2     1  UNL1        0.0480
      2  C         23.9070  -22.5770  -15.7240 C.2     1  UNL1        0.0220
      3  C         24.8290  -23.4960  -16.0770 C.2     1  UNL1        0.0540
      4  C         25.6700  -24.0650  -15.0820 C.ar    1  UNL1        0.1580
      5  N         26.6370  -24.9560  -15.1400 N.ar    1  UNL1       -0.1290
      6  N         27.1210  -25.1350  -13.8660 N.ar    1  UNL1       -0.1220
      7  C         26.4470  -24.3380  -13.0640 C.ar    1  UNL1        0.1960
      8  N         25.5040  -23.6300  -13.7700 N.ar    1  UNL1       -0.2820
      9  C         24.5610  -22.6760  -13.3960 C.2     1  UNL1        0.1180
     10  S         26.7250  -24.1520  -11.3670 S.3     1  UNL1       -0.0810
     11  C         26.7410  -22.3390  -11.2200 C.3     1  UNL1        0.1850
     12  C         25.4420  -21.8400  -10.5990 C.2     1  UNL1        0.2310
     13  O         25.1550  -20.6460  -10.6320 O.2     1  UNL1       -0.2720
     14  N         24.6830  -22.8520  -10.0390 N.am    1  UNL1       -0.3270
     15  H         25.0780  -23.7920  -10.0740 H       1  UNL1        0.1690
     16  C         23.4620  -22.7380   -9.3440 C.2     1  UNL1        0.0350
     17  C         23.0200  -21.5710   -8.7290 C.2     1  UNL1        0.0300
     18  C         21.7950  -21.5520   -8.0520 C.2     1  UNL1        0.0090
     19  C         20.9880  -22.6960   -7.9820 C.2     1  UNL1       -0.0560
     20  C         19.6670  -22.6210   -7.2650 C.3     1  UNL1        0.0490
     21  C         21.4190  -23.8760   -8.6150 C.2     1  UNL1       -0.0540
     22  C         20.5800  -25.1240   -8.6070 C.3     1  UNL1        0.0490
     23  C         22.6590  -23.8840   -9.2790 C.2     1  UNL1        0.0370
     24  C         22.7600  -21.1200  -13.9080 C.2     1  UNL1        0.2530
     25  N         22.0450  -21.4600  -12.7870 N.am    1  UNL1       -0.3530
     26  H         22.3420  -22.2550  -12.2410 H       1  UNL1        0.1630
     27  O         22.6550  -20.0530  -14.5010 O.2     1  UNL1       -0.2680
     28  C         21.1870  -20.5010  -12.1260 C.3     1  UNL1        0.1610
     29  C         19.9350  -21.1670  -11.6170 C.2     1  UNL1       -0.0410
     30  C         19.9300  -22.5280  -11.2840 C.2     1  UNL1        0.0090
     31  C         18.7700  -23.1310  -10.7880 C.2     1  UNL1        0.0070
     32  C         17.5980  -22.3860  -10.6180 C.2     1  UNL1       -0.0620
     33  C         16.3560  -23.0190  -10.0650 C.3     1  UNL1        0.0480
     34  C         17.6080  -21.0230  -10.9330 C.2     1  UNL1        0.0070
     35  C         18.7660  -20.4200  -11.4290 C.2     1  UNL1        0.0090
@<TRIPOS>BOND
     1     3     2    2
     2     3     4    1
     3     2     1    1
     4     5     4   ar
     5     5     6   ar
     6     4     8   ar
     7    27    24    2
     8     1    24    1
     9     1     9    2
    10    24    25   am
    11     6     7   ar
    12     8     9    1
    13     8     7   ar
    14     7    10    1
    15    25    26    1
    16    25    28    1
    17    28    29    1
    18    29    35    2
    19    29    30    1
    20    35    34    1
    21    10    11    1
    22    30    31    2
    23    11    12    1
    24    34    32    2
    25    31    32    1
    26    13    12    2
    27    32    33    1
    28    12    14   am
    29    15    14    1
    30    14    16    1
    31    16    23    2
    32    16    17    1
    33    23    21    1
    34    17    18    2
    35    21    22    1
    36    21    19    2
    37    18    19    1
    38    19    20    1
