@<TRIPOS>MOLECULE
83975_out_ligand_01.pdbqt
 31 34 0 0 0
SMALL
GASTEIGER

@<TRIPOS>ATOM
      1  C         17.2860  -22.7560   -9.8620 C.2     1  UNL1       -0.0400
      2  C         18.2810  -23.5870   -9.3090 C.2     1  UNL1        0.0110
      3  C         19.6280  -23.4380   -9.6580 C.2     1  UNL1        0.0310
      4  C         19.9690  -22.4520  -10.5670 C.2     1  UNL1        0.0430
      5  C         18.9910  -21.6280  -11.1230 C.2     1  UNL1       -0.0290
      6  C         17.6500  -21.7680  -10.7890 C.2     1  UNL1        0.0180
      7  C         19.5810  -20.6580  -12.0950 C.2     1  UNL1        0.0610
      8  C         21.0810  -20.9610  -11.9800 C.2     1  UNL1        0.1370
      9  N         21.2390  -22.1060  -11.0640 N.am    1  UNL1       -0.3130
     10  C         22.4180  -22.7760  -10.7830 C.2     1  UNL1        0.2580
     11  O         22.5420  -23.7960  -10.1140 O.2     1  UNL1       -0.2670
     12  C         15.8410  -22.9630   -9.4840 C.3     1  UNL1        0.1610
     13  N         15.6200  -22.5620   -8.1160 N.am    1  UNL1       -0.3560
     14  C         15.4970  -23.4630   -7.0840 C.2     1  UNL1        0.2270
     15  O         15.5790  -24.6790   -7.2420 O.2     1  UNL1       -0.2730
     16  H         15.5440  -21.5750   -7.9070 H       1  UNL1        0.1620
     17  C         15.1600  -22.8550   -5.7310 C.3     1  UNL1        0.1820
     18  S         16.3970  -23.3170   -4.4690 S.3     1  UNL1       -0.1210
     19  C         17.7910  -22.3300   -4.9880 C.2     1  UNL1        0.0010
     20  C         18.5380  -22.6250   -6.1340 C.2     1  UNL1        0.0180
     21  C         19.6150  -21.8140   -6.5040 C.2     1  UNL1        0.0010
     22  C         19.9440  -20.6960   -5.7390 C.2     1  UNL1        0.0000
     23  C         19.1940  -20.3840   -4.6070 C.2     1  UNL1        0.0010
     24  C         18.1200  -21.1960   -4.2360 C.2     1  UNL1        0.0180
     25  C         23.6560  -22.2200  -11.3690 C.2     1  UNL1        0.0320
     26  C         23.9910  -22.5520  -12.6860 C.2     1  UNL1        0.0200
     27  C         25.1670  -22.0460  -13.2430 C.2     1  UNL1        0.0430
     28  C         25.9930  -21.2290  -12.4750 C.2     1  UNL1        0.1160
     29  F         27.1210  -20.7440  -13.0120 F       1  UNL1       -0.2060
     30  C         25.6730  -20.9110  -11.1570 C.2     1  UNL1        0.0430
     31  C         24.4990  -21.4140  -10.5950 C.2     1  UNL1        0.0200
@<TRIPOS>BOND
     1    27    26    1
     2    27    28    2
     3    29    28    1
     4    26    25    2
     5    28    30    1
     6     7     8    2
     7     7     5    1
     8     8     9    1
     9    25    10    1
    10    25    31    1
    11    30    31    2
    12     5     6    1
    13     5     4    2
    14     9    10   am
    15     9     4    1
    16     6     1    2
    17    10    11    2
    18     4     3    1
    19     1    12    1
    20     1     2    1
    21     3     2    2
    22    12    13    1
    23    13    16    1
    24    13    14   am
    25    15    14    2
    26    14    17    1
    27    21    20    1
    28    21    22    2
    29    20    19    2
    30    22    23    1
    31    17    18    1
    32    19    18    1
    33    19    24    1
    34    23    24    2
