@<TRIPOS>MOLECULE
83995_out_ligand_01.pdbqt
 34 38 0 0 0
SMALL
GASTEIGER

@<TRIPOS>ATOM
      1  C         24.1000  -22.0040  -11.2420 C.2     1  UNL1       -0.0580
      2  C         23.9590  -21.7410   -9.8760 C.2     1  UNL1        0.0090
      3  C         22.7060  -21.8300   -9.2640 C.2     1  UNL1        0.0300
      4  C         21.5690  -22.1830  -10.0030 C.2     1  UNL1        0.0350
      5  C         21.7120  -22.4500  -11.3650 C.2     1  UNL1        0.0300
      6  C         22.9660  -22.3630  -11.9800 C.2     1  UNL1        0.0090
      7  N         20.3460  -22.2450   -9.3040 N.am    1  UNL1       -0.3230
      8  C         19.8490  -23.2880   -8.5490 C.2     1  UNL1        0.2620
      9  O         20.4090  -24.3690   -8.3790 O.2     1  UNL1       -0.2670
     10  H         19.7650  -21.4090   -9.3740 H       1  UNL1        0.1690
     11  C         18.5120  -23.0290   -7.9100 C.2     1  UNL1        0.1080
     12  C         18.4850  -22.9690   -6.5670 C.2     1  UNL1        0.0370
     13  C         17.2420  -22.7250   -5.8550 C.2     1  UNL1       -0.0010
     14  C         17.1840  -22.6580   -4.4610 C.2     1  UNL1        0.0140
     15  C         16.0720  -22.5510   -6.5850 C.2     1  UNL1        0.0890
     16  C         15.9620  -22.4190   -3.8230 C.2     1  UNL1        0.0010
     17  C         14.7970  -22.2470   -4.5740 C.2     1  UNL1        0.0030
     18  C         14.8490  -22.3140   -5.9640 C.2     1  UNL1        0.0380
     19  O         16.0890  -22.6120   -7.9890 O.3     1  UNL1       -0.2740
     20  C         17.2670  -22.8460   -8.6900 C.2     1  UNL1        0.3040
     21  O         17.2650  -22.8980   -9.9170 O.2     1  UNL1       -0.2590
     22  C         25.4470  -21.8680  -11.9150 C.3     1  UNL1        0.0460
     23  C         25.4140  -22.2080  -13.4090 C.3     1  UNL1        0.0830
     24  C         25.7220  -21.0290  -14.2700 C.ar    1  UNL1        0.1050
     25  N         25.5980  -21.0640  -15.6380 N.ar    1  UNL1       -0.3430
     26  C         25.9340  -19.8300  -16.1320 C.ar    1  UNL1        0.0620
     27  H         25.2720  -21.8520  -16.1780 H       1  UNL1        0.1670
     28  C         25.9660  -19.3120  -17.4260 C.2     1  UNL1        0.0320
     29  C         26.2670  -19.0900  -15.0050 C.ar    1  UNL1        0.0860
     30  C         26.3670  -17.9760  -17.5590 C.2     1  UNL1        0.0090
     31  C         26.7280  -17.1990  -16.4470 C.2     1  UNL1       -0.0600
     32  C         27.1210  -15.7610  -16.6240 C.3     1  UNL1        0.0480
     33  C         26.6660  -17.7540  -15.1560 C.2     1  UNL1        0.0400
     34  N         26.1300  -19.8440  -13.8640 N.ar    1  UNL1       -0.2330
@<TRIPOS>BOND
     1    30    28    1
     2    30    31    2
     3    28    26    2
     4    32    31    1
     5    31    33    1
     6    27    25    1
     7    26    25   ar
     8    26    29   ar
     9    25    24   ar
    10    33    29    2
    11    29    34   ar
    12    24    34   ar
    13    24    23    1
    14    23    22    1
    15     6     5    1
    16     6     1    2
    17    22     1    1
    18     5     4    2
    19     1     2    1
    20     4     7    1
    21     4     3    1
    22    21    20    2
    23     2     3    2
    24    10     7    1
    25     7     8   am
    26    20    19    1
    27    20    11    1
    28     8     9    2
    29     8    11    1
    30    19    15    1
    31    11    12    2
    32    15    18    1
    33    15    13    2
    34    12    13    1
    35    18    17    2
    36    13    14    1
    37    17    16    1
    38    14    16    2
