@<TRIPOS>MOLECULE
84004_out_ligand_01.pdbqt
 38 43 0 0 0
SMALL
GASTEIGER

@<TRIPOS>ATOM
      1  C         22.2520  -22.5580  -10.1110 C.2     1  UNL1        0.0350
      2  C         22.1460  -22.0330  -11.4020 C.2     1  UNL1        0.0310
      3  C         23.2740  -21.9350  -12.2240 C.2     1  UNL1        0.0270
      4  C         24.5120  -22.3700  -11.7520 C.2     1  UNL1        0.0790
      5  C         24.6390  -22.8750  -10.4580 C.2     1  UNL1        0.0270
      6  C         23.5080  -22.9670   -9.6440 C.2     1  UNL1        0.0310
      7  N         21.1630  -22.7220   -9.2380 N.am    1  UNL1       -0.3200
      8  C         20.5850  -23.9020   -8.7960 C.2     1  UNL1        0.2960
      9  O         20.9030  -25.0320   -9.1450 O.2     1  UNL1       -0.2640
     10  H         20.7480  -21.8870   -8.8330 H       1  UNL1        0.1690
     11  C         19.5070  -23.6450   -7.8120 C.2     1  UNL1        0.2560
     12  N         19.6000  -22.6700   -6.8860 N.2     1  UNL1       -0.1260
     13  N         18.4410  -22.7980   -6.1950 N.pl3   1  UNL1       -0.0560
     14  C         17.9760  -22.0800   -5.0950 C.3     1  UNL1        0.1200
     15  C         17.6790  -23.8320   -6.7540 C.cat   1  UNL1        0.7520
     16  C         16.7660  -22.3780   -4.5830 C.2     1  UNL1        0.0610
     17  C         16.0080  -23.4760   -5.2610 C.2     1  UNL1        0.0520
     18  C         14.6340  -23.8010   -4.7250 C.3     1  UNL1        0.0710
     19  N         16.4440  -24.1600   -6.2750 N.2     1  UNL1       -0.0660
     20  N         18.3460  -24.3710   -7.7470 N.pl3   1  UNL1       -0.0330
     21  C         18.8630  -21.0330   -4.5250 C.3     1  UNL1        0.4050
     22  F         18.8210  -19.8870   -5.2480 F       1  UNL1       -0.2070
     23  F         18.5220  -20.7080   -3.2500 F       1  UNL1       -0.2070
     24  S         25.9300  -22.2900  -12.8190 S.O2    1  UNL1        0.2590
     25  O         27.0310  -21.8180  -12.0100 O.2     1  UNL1       -0.2010
     26  O         26.0140  -23.5210  -13.5690 O.2     1  UNL1       -0.2010
     27  N         25.5640  -21.0440  -13.8680 N.3     1  UNL1       -0.3050
     28  H         25.3930  -20.1510  -13.3950 H       1  UNL1        0.1730
     29  C         25.7400  -21.0540  -15.3280 C.3     1  UNL1        0.0410
     30  C         27.0270  -21.7730  -15.7710 C.3     1  UNL1        0.0360
     31  C         27.1210  -21.8190  -17.3080 C.3     1  UNL1       -0.0120
     32  C         27.1170  -20.3830  -17.8540 C.3     1  UNL1        0.0090
     33  C         25.9090  -22.5770  -17.8720 C.3     1  UNL1        0.0090
     34  C         25.8210  -19.6640  -17.4420 C.3     1  UNL1       -0.0120
     35  C         24.6160  -20.4330  -18.0060 C.3     1  UNL1        0.0090
     36  C         25.7240  -19.6240  -15.9040 C.3     1  UNL1        0.0360
     37  C         24.6100  -21.8700  -17.4570 C.3     1  UNL1       -0.0120
     38  C         24.5270  -21.8220  -15.9220 C.3     1  UNL1        0.0360
@<TRIPOS>BOND
     1    35    37    1
     2    35    34    1
     3    33    37    1
     4    33    31    1
     5    32    34    1
     6    32    31    1
     7    37    38    1
     8    34    36    1
     9    31    30    1
    10    38    29    1
    11    36    29    1
    12    30    29    1
    13    29    27    1
    14    27    28    1
    15    27    24    1
    16    26    24    2
    17    24    25    2
    18    24     4    1
    19     3     4    2
    20     3     2    1
    21     4     5    1
    22     2     1    2
    23     5     6    2
    24     1     6    1
    25     1     7    1
    26     7    10    1
    27     7     8   am
    28     9     8    2
    29     8    11    1
    30    11    20    1
    31    11    12    2
    32    20    15    1
    33    12    13    1
    34    15    19    2
    35    15    13    1
    36    19    17    1
    37    13    14    1
    38    17    18    1
    39    17    16    2
    40    22    21    1
    41    14    16    1
    42    14    21    1
    43    21    23    1
