@<TRIPOS>MOLECULE
84026_out_ligand_01.pdbqt
 24 26 0 0 0
SMALL
GASTEIGER

@<TRIPOS>ATOM
      1  C         17.9300  -22.8610   -9.3910 C.2     1  UNL1        0.2580
      2  O         17.2470  -22.5570  -10.3750 O.2     1  UNL1       -0.2670
      3  N         19.3230  -23.0800   -9.3680 N.am    1  UNL1       -0.3130
      4  C         19.9360  -23.8400   -8.2660 C.3     1  UNL1        0.1330
      5  C         21.0540  -24.7550   -8.7290 C.3     1  UNL1        0.0250
      6  C         22.1410  -23.9200   -9.3700 C.3     1  UNL1        0.0420
      7  C         21.5650  -23.0110  -10.4230 C.2     1  UNL1       -0.0300
      8  C         22.4420  -22.5300  -11.4160 C.2     1  UNL1        0.0260
      9  C         21.9940  -21.6580  -12.4140 C.2     1  UNL1        0.0320
     10  C         20.6540  -21.2740  -12.4230 C.2     1  UNL1        0.0190
     11  C         19.7810  -21.7410  -11.4290 C.2     1  UNL1        0.0310
     12  C         20.2080  -22.6160  -10.4120 C.2     1  UNL1        0.0430
     13  C         17.1760  -23.0120   -8.1210 C.2     1  UNL1        0.0320
     14  C         16.3380  -24.1200   -7.9510 C.2     1  UNL1        0.0170
     15  C         15.6250  -24.2790   -6.7590 C.2     1  UNL1        0.0070
     16  C         15.7440  -23.3360   -5.7350 C.2     1  UNL1       -0.0620
     17  C         14.9540  -23.5020   -4.4680 C.3     1  UNL1        0.0480
     18  C         16.5420  -22.1990   -5.9380 C.2     1  UNL1        0.0070
     19  C         17.2550  -22.0340   -7.1270 C.2     1  UNL1        0.0170
     20  C         22.9710  -21.1810  -13.4300 C.2     1  UNL1        0.2490
     21  N         22.5180  -20.3270  -14.3960 N.am    1  UNL1       -0.3660
     22  H         23.2240  -19.9270  -15.0010 H       1  UNL1        0.1590
     23  H         21.6340  -19.8420  -14.3280 H       1  UNL1        0.1590
     24  O         24.1540  -21.5030  -13.3860 O.2     1  UNL1       -0.2680
@<TRIPOS>BOND
     1    22    21    1
     2    21    23    1
     3    21    20   am
     4    20    24    2
     5    20     9    1
     6    10     9    2
     7    10    11    1
     8     9     8    1
     9    11    12    2
    10     8     7    2
    11     7    12    1
    12     7     6    1
    13    12     3    1
    14     2     1    2
    15     1     3   am
    16     1    13    1
    17     6     5    1
    18     3     4    1
    19     5     4    1
    20    13    14    2
    21    13    19    1
    22    14    15    1
    23    19    18    2
    24    15    16    2
    25    18    16    1
    26    16    17    1
