@<TRIPOS>MOLECULE
84060_out_ligand_01.pdbqt
 30 33 0 0 0
SMALL
GASTEIGER

@<TRIPOS>ATOM
      1  C         19.3580  -23.3120   -7.5260 C.2     1  UNL1        0.0320
      2  C         19.8170  -24.4410   -8.2110 C.2     1  UNL1        0.0180
      3  C         21.1200  -24.4610   -8.7160 C.2     1  UNL1        0.0240
      4  C         21.9660  -23.3610   -8.5220 C.2     1  UNL1        0.0440
      5  C         23.3010  -23.3820   -9.0450 C.1     1  UNL1        0.0990
      6  N         24.3780  -23.3990   -9.4780 N.1     1  UNL1       -0.1910
      7  C         21.5070  -22.2430   -7.8130 C.2     1  UNL1        0.0240
      8  C         20.2050  -22.2210   -7.3060 C.2     1  UNL1        0.0180
      9  C         17.9960  -23.2870   -6.9540 C.2     1  UNL1        0.2530
     10  N         16.9040  -23.5400   -7.7910 N.am    1  UNL1       -0.3520
     11  C         15.5910  -23.4910   -7.1660 C.3     1  UNL1        0.1520
     12  O         17.8990  -23.0430   -5.7550 O.2     1  UNL1       -0.2670
     13  C         16.9500  -23.4120   -9.2580 C.3     1  UNL1        0.1330
     14  C         16.6420  -22.0060   -9.7850 C.3     1  UNL1        0.1030
     15  C         17.6590  -21.4940  -10.7340 C.ar    1  UNL1        0.1580
     16  N         17.4180  -20.4760  -11.5680 N.ar    1  UNL1       -0.1110
     17  O         18.6180  -20.3500  -12.2680 O.2     1  UNL1       -0.1890
     18  C         19.4680  -21.3140  -11.7830 C.ar    1  UNL1        0.2230
     19  C         20.8030  -21.4950  -12.2480 C.2     1  UNL1        0.0890
     20  N         18.9090  -22.0430  -10.8400 N.ar    1  UNL1       -0.2030
     21  C         21.7760  -22.3780  -11.8250 C.2     1  UNL1        0.0480
     22  N         21.3420  -20.7470  -13.2650 N.pl3   1  UNL1       -0.3520
     23  C         22.9410  -22.1550  -12.6090 C.2     1  UNL1       -0.0050
     24  C         24.2240  -22.7340  -12.6390 C.2     1  UNL1        0.0370
     25  C         22.6430  -21.1290  -13.5060 C.2     1  UNL1        0.0430
     26  C         25.1570  -22.2600  -13.5660 C.2     1  UNL1        0.0350
     27 CL         26.7310  -22.9600  -13.6140 Cl      1  UNL1       -0.0840
     28  C         24.8360  -21.2350  -14.4530 C.2     1  UNL1        0.0260
     29  C         23.5680  -20.6460  -14.4390 C.2     1  UNL1        0.0320
     30  H         20.8560  -20.0190  -13.7700 H       1  UNL1        0.1660
@<TRIPOS>BOND
     1    28    29    2
     2    28    26    1
     3    29    25    1
     4    30    22    1
     5    27    26    1
     6    26    24    2
     7    25    22    1
     8    25    23    2
     9    22    19    1
    10    24    23    1
    11    23    21    1
    12    17    18   ar
    13    17    16   ar
    14    19    21    2
    15    19    18    1
    16    18    20   ar
    17    16    15   ar
    18    20    15   ar
    19    15    14    1
    20    14    13    1
    21     6     5    3
    22    13    10    1
    23     5     4    1
    24     3     4    2
    25     3     2    1
    26     4     7    1
    27     2     1    2
    28     7     8    2
    29    10    11    1
    30    10     9   am
    31     1     8    1
    32     1     9    1
    33     9    12    2
