@<TRIPOS>MOLECULE
84067_out_ligand_01.pdbqt
 29 32 0 0 0
SMALL
GASTEIGER

@<TRIPOS>ATOM
      1  C         23.1920  -21.9840  -12.5770 C.2     1  UNL1        0.0320
      2  C         23.4020  -22.7900  -11.4610 C.2     1  UNL1        0.0190
      3  C         22.3640  -23.0140  -10.5460 C.2     1  UNL1        0.0310
      4  C         21.0850  -22.4630  -10.7250 C.2     1  UNL1        0.0430
      5  C         20.8750  -21.6640  -11.8710 C.2     1  UNL1       -0.0300
      6  C         21.9270  -21.4300  -12.7800 C.2     1  UNL1        0.0260
      7  C         19.5510  -21.0070  -12.1570 C.3     1  UNL1        0.0420
      8  C         18.4270  -21.7180  -11.4350 C.3     1  UNL1        0.0250
      9  C         18.7960  -21.8680   -9.9710 C.3     1  UNL1        0.1330
     10  N         20.0170  -22.6640   -9.7730 N.am    1  UNL1       -0.3130
     11  C         20.1190  -23.5670   -8.6960 C.2     1  UNL1        0.2610
     12  O         20.9170  -24.4990   -8.6010 O.2     1  UNL1       -0.2670
     13  C         24.2610  -21.7010  -13.5760 C.2     1  UNL1        0.2510
     14  O         24.4110  -20.5660  -14.0120 O.2     1  UNL1       -0.2680
     15  N         25.0720  -22.7600  -13.9260 N.am    1  UNL1       -0.3540
     16  H         25.0240  -23.6230  -13.4040 H       1  UNL1        0.1620
     17  C         26.1780  -22.5900  -14.8510 C.3     1  UNL1        0.1550
     18  C         25.8410  -22.9410  -16.3040 C.3     1  UNL1        0.1390
     19  C         24.5360  -23.7030  -16.4710 C.3     1  UNL1        0.0350
     20  C         24.1780  -23.3760  -17.8990 C.3     1  UNL1        0.0290
     21  C         24.6070  -21.9280  -18.0080 C.3     1  UNL1        0.1680
     22  O         25.6810  -21.7330  -17.0770 O.3     1  UNL1       -0.3840
     23  C         19.1680  -23.4500   -7.5730 C.2     1  UNL1        0.0710
     24  C         18.1700  -24.4210   -7.4230 C.2     1  UNL1        0.0200
     25  C         17.2820  -24.3410   -6.3480 C.2     1  UNL1        0.0010
     26  C         17.4000  -23.3070   -5.4170 C.2     1  UNL1        0.0030
     27  C         18.4120  -22.3550   -5.5530 C.2     1  UNL1        0.0430
     28  C         19.2960  -22.4360   -6.6260 C.2     1  UNL1        0.1320
     29  F         20.2680  -21.5180   -6.7270 F       1  UNL1       -0.2050
@<TRIPOS>BOND
     1    21    20    1
     2    21    22    1
     3    20    19    1
     4    22    18    1
     5    19    18    1
     6    18    17    1
     7    17    15    1
     8    14    13    2
     9    15    13   am
    10    15    16    1
    11    13     1    1
    12     6     1    2
    13     6     5    1
    14     1     2    1
    15     7     5    1
    16     7     8    1
    17     5     4    2
    18     2     3    2
    19     8     9    1
    20     4     3    1
    21     4    10    1
    22     9    10    1
    23    10    11   am
    24    11    12    2
    25    11    23    1
    26    23    24    2
    27    23    28    1
    28    24    25    1
    29    29    28    1
    30    28    27    2
    31    25    26    2
    32    27    26    1
