@<TRIPOS>MOLECULE
84092_out_ligand_01.pdbqt
 33 37 0 0 0
SMALL
GASTEIGER

@<TRIPOS>ATOM
      1  C         19.3810  -22.3010  -10.3930 C.2     1  UNL1        0.0320
      2  C         19.9490  -23.1630   -9.4410 C.2     1  UNL1        0.0180
      3  C         19.1460  -23.7900   -8.4860 C.2     1  UNL1        0.0260
      4  C         17.7690  -23.5500   -8.4870 C.2     1  UNL1        0.0800
      5  C         17.1930  -22.6730   -9.4130 C.2     1  UNL1        0.0260
      6  C         18.0010  -22.0460  -10.3650 C.2     1  UNL1        0.0180
      7  C         20.2840  -21.6520  -11.3880 C.2     1  UNL1        0.2560
      8  O         19.8600  -20.6930  -12.0210 O.2     1  UNL1       -0.2670
      9  N         21.5540  -22.1900  -11.4650 N.am    1  UNL1       -0.3220
     10  H         21.8080  -22.8980  -10.7860 H       1  UNL1        0.1690
     11  C         22.6020  -21.8060  -12.3340 C.2     1  UNL1        0.0540
     12  C         22.3990  -21.1990  -13.5820 C.2     1  UNL1        0.0330
     13  C         23.4700  -20.8440  -14.3990 C.2     1  UNL1        0.0280
     14  C         24.7700  -21.0970  -13.9740 C.2     1  UNL1        0.0640
     15 CL         26.1240  -20.6840  -14.9340 Cl      1  UNL1       -0.0820
     16  C         25.0390  -21.7080  -12.7320 C.2     1  UNL1        0.0980
     17  N         26.2820  -22.0230  -12.1850 N.2     1  UNL1       -0.2510
     18  C         23.9400  -22.0530  -11.9340 C.2     1  UNL1        0.0630
     19  C         26.1280  -22.5860  -11.0120 C.2     1  UNL1        0.1670
     20  S         24.5200  -22.7860  -10.4720 S.3     1  UNL1       -0.0780
     21  S         16.7170  -24.3280   -7.2720 S.O2    1  UNL1        0.2650
     22  O         15.6220  -24.9570   -7.9830 O.2     1  UNL1       -0.2000
     23  O         17.6090  -25.1040   -6.4350 O.2     1  UNL1       -0.2000
     24  N         16.1020  -22.9600   -6.4140 N.pl3   1  UNL1       -0.2710
     25  C         14.7550  -23.1470   -5.8010 C.3     1  UNL1        0.1420
     26  C         14.8660  -23.7040   -4.3900 C.3     1  UNL1        0.0260
     27  C         15.6490  -22.7460   -3.5060 C.3     1  UNL1        0.0420
     28  C         16.8840  -22.2090   -4.1770 C.2     1  UNL1       -0.0310
     29  C         17.8400  -21.5470   -3.3880 C.2     1  UNL1        0.0090
     30  C         17.0660  -22.2790   -5.5690 C.2     1  UNL1        0.0510
     31  C         18.9630  -20.9630   -3.9710 C.2     1  UNL1        0.0010
     32  C         19.1330  -21.0170   -5.3500 C.2     1  UNL1        0.0020
     33  C         18.1850  -21.6660   -6.1440 C.2     1  UNL1        0.0310
@<TRIPOS>BOND
     1    15    14    1
     2    13    14    2
     3    13    12    1
     4    14    16    1
     5    12    11    2
     6    16    17    1
     7    16    18    2
     8    11    18    1
     9    11     9    1
    10    17    19    2
    11     8     7    2
    12    18    20    1
    13     9     7   am
    14     9    10    1
    15     7     1    1
    16    19    20    1
    17     1     6    2
    18     1     2    1
    19     6     5    1
    20     2     3    2
    21     5     4    2
    22     4     3    1
    23     4    21    1
    24    22    21    2
    25    21    23    2
    26    21    24    1
    27    24    25    1
    28    24    30    1
    29    33    30    1
    30    33    32    2
    31    25    26    1
    32    30    28    2
    33    32    31    1
    34    26    27    1
    35    28    27    1
    36    28    29    1
    37    31    29    2
