@<TRIPOS>MOLECULE
84123_out_ligand_01.pdbqt
 29 32 0 0 0
SMALL
GASTEIGER

@<TRIPOS>ATOM
      1  C         20.4820  -22.8100   -9.7170 C.2     1  UNL1        0.0320
      2  C         19.9020  -21.9660  -10.6720 C.2     1  UNL1        0.0170
      3  C         20.6390  -21.5470  -11.7820 C.2     1  UNL1        0.0100
      4  C         21.9700  -21.9580  -11.9470 C.2     1  UNL1       -0.0300
      5  C         22.5510  -22.7870  -10.9750 C.2     1  UNL1        0.0100
      6  C         21.8150  -23.2090   -9.8650 C.2     1  UNL1        0.0170
      7  C         19.6520  -23.2310   -8.5540 C.2     1  UNL1        0.2520
      8  O         19.6310  -24.4070   -8.2100 O.2     1  UNL1       -0.2680
      9  N         18.9570  -22.2320   -7.9020 N.am    1  UNL1       -0.3520
     10  H         19.0350  -21.2780   -8.2230 H       1  UNL1        0.1630
     11  C         18.0440  -22.5190   -6.7910 C.3     1  UNL1        0.0840
     12  C         18.5590  -21.7800   -5.5450 C.3     1  UNL1        0.0250
     13  C         17.6920  -21.8220   -4.2860 C.3     1  UNL1        0.0020
     14  C         17.1380  -23.2030   -3.9490 C.3     1  UNL1        0.0000
     15  C         15.6190  -23.3130   -4.0620 C.3     1  UNL1        0.0000
     16  C         14.9520  -22.6830   -5.2860 C.3     1  UNL1        0.0000
     17  C         15.5240  -23.0910   -6.6410 C.3     1  UNL1        0.0020
     18  C         16.6060  -22.1550   -7.1990 C.3     1  UNL1        0.0250
     19  C         22.7760  -21.4980  -13.1460 C.3     1  UNL1        0.3110
     20  N         24.1780  -21.9410  -13.0940 N.3     1  UNL1        0.0970
     21  C         25.1170  -20.8190  -13.2570 C.3     1  UNL1        0.2770
     22  C         25.0600  -20.1330  -14.6300 C.3     1  UNL1        0.0690
     23  C         24.9560  -21.1150  -15.7710 C.2     1  UNL1       -0.0490
     24  C         25.1240  -20.6750  -17.0910 C.2     1  UNL1        0.0070
     25  C         24.6310  -22.4610  -15.5200 C.2     1  UNL1       -0.0240
     26  C         24.9880  -21.5670  -18.1530 C.2     1  UNL1        0.0010
     27  C         24.6820  -22.9030  -17.9070 C.2     1  UNL1        0.0010
     28  C         24.5070  -23.3500  -16.5970 C.2     1  UNL1        0.0090
     29  C         24.4830  -22.9730  -14.1020 C.3     1  UNL1        0.3110
@<TRIPOS>BOND
     1    26    27    2
     2    26    24    1
     3    27    28    1
     4    24    23    2
     5    28    25    2
     6    23    25    1
     7    23    22    1
     8    25    29    1
     9    22    21    1
    10    29    20    1
    11    21    20    1
    12    19    20    1
    13    19     4    1
    14     4     3    2
    15     4     5    1
    16     3     2    1
    17     5     6    2
    18     2     1    2
    19     6     1    1
    20     1     7    1
    21     7     8    2
    22     7     9   am
    23    10     9    1
    24     9    11    1
    25    18    11    1
    26    18    17    1
    27    11    12    1
    28    17    16    1
    29    12    13    1
    30    16    15    1
    31    13    14    1
    32    15    14    1
