@<TRIPOS>MOLECULE
84139_out_ligand_01.pdbqt
 30 33 0 0 0
SMALL
GASTEIGER

@<TRIPOS>ATOM
      1  C         25.4660  -22.1030  -13.7750 C.2     1  UNL1        0.0690
      2  C         25.4740  -23.0310  -12.7320 C.2     1  UNL1        0.0390
      3  C         24.3490  -23.2470  -11.9290 C.2     1  UNL1        0.0330
      4  C         23.2070  -22.4940  -12.2110 C.2     1  UNL1        0.0430
      5  N         21.9720  -22.4880  -11.6030 N.pl3   1  UNL1       -0.3520
      6  C         21.1410  -21.5820  -12.2140 C.2     1  UNL1        0.0890
      7  C         19.8020  -21.3770  -11.7760 C.2     1  UNL1        0.2230
      8  N         19.2650  -22.0240  -10.7600 N.2     1  UNL1       -0.2030
      9  C         17.9970  -21.4990  -10.7120 C.2     1  UNL1        0.1580
     10  N         17.7300  -20.5840  -11.6500 N.4     1  UNL1       -0.1110
     11  O         18.9310  -20.4930  -12.3560 O.2     1  UNL1       -0.1890
     12  C         21.8530  -20.9910  -13.2350 C.2     1  UNL1        0.0480
     13  C         23.1600  -21.5580  -13.2440 C.2     1  UNL1       -0.0040
     14  C         24.3080  -21.3590  -14.0390 C.2     1  UNL1        0.0500
     15  H         21.7050  -23.0670  -10.8180 H       1  UNL1        0.1660
     16  C         16.9900  -21.9390   -9.7170 C.3     1  UNL1        0.1030
     17  C         16.9810  -23.4530   -9.4880 C.3     1  UNL1        0.1330
     18  N         16.8190  -23.8580   -8.0820 N.am    1  UNL1       -0.3520
     19  C         15.4930  -24.2850   -7.6590 C.3     1  UNL1        0.1520
     20  C         17.8810  -24.1420   -7.2190 C.2     1  UNL1        0.2540
     21  O         17.7540  -24.6910   -6.1280 O.2     1  UNL1       -0.2670
     22  C         19.2470  -23.7660   -7.6340 C.2     1  UNL1        0.0380
     23  C         19.9620  -24.6770   -8.4200 C.2     1  UNL1        0.0170
     24  C         21.2510  -24.3620   -8.8470 C.2     1  UNL1        0.0010
     25  C         21.8250  -23.1470   -8.4780 C.2     1  UNL1        0.0010
     26  C         21.1210  -22.2480   -7.6700 C.2     1  UNL1        0.0070
     27  C         19.8270  -22.5520   -7.2240 C.2     1  UNL1       -0.0460
     28  C         19.0920  -21.5870   -6.3370 C.3     1  UNL1        0.0490
     29  O         26.6460  -22.0130  -14.4620 O.2     1  UNL1       -0.3560
     30  C         27.0060  -23.1230  -15.2740 C.3     1  UNL1        0.2100
@<TRIPOS>BOND
     1    30    29    1
     2    29     1    1
     3    14     1    2
     4    14    13    1
     5     1     2    1
     6    13    12    1
     7    13     4    2
     8    12     6    2
     9     2     3    2
    10    11     7    1
    11    11    10    1
    12     6     7    1
    13     6     5    1
    14     4     3    1
    15     4     5    1
    16     7     8    2
    17    10     9    1
    18     5    15    1
    19     8     9    2
    20     9    16    1
    21    16    17    1
    22    17    18    1
    23    24    25    2
    24    24    23    1
    25    25    26    1
    26    23    22    2
    27    18    19    1
    28    18    20   am
    29    26    27    2
    30    22    27    1
    31    22    20    1
    32    27    28    1
    33    20    21    2
