@<TRIPOS>MOLECULE
84141_out_ligand_01.pdbqt
 29 32 0 0 0
SMALL
GASTEIGER

@<TRIPOS>ATOM
      1  C         17.2950  -21.8500  -10.6560 C.ar    1  UNL1        0.1580
      2  N         17.0560  -20.7640  -11.4000 N.ar    1  UNL1       -0.1110
      3  O         18.2790  -20.5390  -12.0320 O.2     1  UNL1       -0.1890
      4  C         19.1400  -21.5110  -11.5920 C.ar    1  UNL1        0.2230
      5  C         20.4980  -21.6220  -12.0080 C.2     1  UNL1        0.0890
      6  C         21.2220  -20.8810  -12.9180 C.2     1  UNL1        0.0480
      7  C         22.5430  -21.4100  -12.9580 C.2     1  UNL1       -0.0050
      8  C         23.7060  -21.0800  -13.6800 C.2     1  UNL1        0.0370
      9  C         24.8680  -21.8280  -13.4670 C.2     1  UNL1        0.0350
     10 CL         26.2970  -21.4350  -14.3440 Cl      1  UNL1       -0.0840
     11  C         24.8910  -22.8840  -12.5570 C.2     1  UNL1        0.0260
     12  C         23.7460  -23.2270  -11.8280 C.2     1  UNL1        0.0320
     13  C         22.5900  -22.4720  -12.0540 C.2     1  UNL1        0.0430
     14  N         21.3360  -22.5790  -11.4950 N.pl3   1  UNL1       -0.3520
     15  N         18.5740  -22.3380  -10.7360 N.ar    1  UNL1       -0.2030
     16  H         21.0630  -23.2590  -10.7970 H       1  UNL1        0.1660
     17  C         16.2610  -22.4650   -9.7880 C.3     1  UNL1        0.1030
     18  C         16.5230  -22.2600   -8.2920 C.3     1  UNL1        0.1330
     19  N         16.5850  -23.5040   -7.5050 N.am    1  UNL1       -0.3520
     20  C         15.3200  -24.0400   -7.0220 C.3     1  UNL1        0.1520
     21  C         17.7430  -23.9770   -6.8810 C.2     1  UNL1        0.2530
     22  O         17.7440  -24.8060   -5.9750 O.2     1  UNL1       -0.2670
     23  C         19.0550  -23.4650   -7.3240 C.2     1  UNL1        0.0320
     24  C         19.5200  -22.2530   -6.8020 C.2     1  UNL1        0.0180
     25  C         20.7690  -21.7670   -7.1930 C.2     1  UNL1        0.0250
     26  C         21.5530  -22.5060   -8.0820 C.2     1  UNL1        0.0340
     27 CL         23.0940  -21.9080   -8.5590 Cl      1  UNL1       -0.0840
     28  C         21.1010  -23.7290   -8.5820 C.2     1  UNL1        0.0250
     29  C         19.8500  -24.2160   -8.1980 C.2     1  UNL1        0.0180
@<TRIPOS>BOND
     1    10     9    1
     2     8     9    1
     3     8     7    2
     4     9    11    2
     5     7     6    1
     6     7    13    1
     7     6     5    2
     8    11    12    1
     9    13    12    2
    10    13    14    1
    11     3     4   ar
    12     3     2   ar
    13     5     4    1
    14     5    14    1
    15     4    15   ar
    16    14    16    1
    17     2     1   ar
    18    15     1   ar
    19     1    17    1
    20    17    18    1
    21    28    29    1
    22    28    26    2
    23    27    26    1
    24    18    19    1
    25    29    23    2
    26    26    25    1
    27    19    20    1
    28    19    21   am
    29    23    21    1
    30    23    24    1
    31    25    24    2
    32    21    22    2
