@<TRIPOS>MOLECULE
84144_out_ligand_01.pdbqt
 29 32 0 0 0
SMALL
GASTEIGER

@<TRIPOS>ATOM
      1  C         18.1630  -22.1900  -10.3350 C.2     1  UNL1       -0.0400
      2  C         18.5810  -21.4600  -11.4670 C.2     1  UNL1        0.0110
      3  C         19.9090  -21.5020  -11.9070 C.2     1  UNL1        0.0310
      4  C         20.8160  -22.2670  -11.1950 C.2     1  UNL1        0.0430
      5  C         20.4130  -22.9890  -10.0700 C.2     1  UNL1       -0.0290
      6  C         19.0970  -22.9620   -9.6270 C.2     1  UNL1        0.0180
      7  C         21.5470  -23.7700   -9.4940 C.2     1  UNL1        0.0610
      8  C         22.7370  -23.2630  -10.3190 C.2     1  UNL1        0.1370
      9  N         22.1940  -22.4410  -11.4150 N.am    1  UNL1       -0.3130
     10  C         22.9110  -21.9080  -12.4730 C.2     1  UNL1        0.2580
     11  O         22.4560  -21.2850  -13.4260 O.2     1  UNL1       -0.2670
     12  C         16.7340  -22.0930   -9.8620 C.3     1  UNL1        0.1610
     13  N         16.6760  -22.1660   -8.4200 N.am    1  UNL1       -0.3530
     14  C         16.1460  -23.2560   -7.7670 C.2     1  UNL1        0.2550
     15  O         15.8350  -24.2920   -8.3440 O.2     1  UNL1       -0.2680
     16  H         16.8270  -21.3070   -7.9070 H       1  UNL1        0.1630
     17  C         15.9460  -23.1410   -6.2940 C.2     1  UNL1        0.0700
     18  C         14.9060  -22.3220   -5.8240 C.2     1  UNL1        0.0200
     19  C         14.6800  -22.1750   -4.4510 C.2     1  UNL1        0.0010
     20  C         15.4860  -22.8510   -3.5340 C.2     1  UNL1        0.0030
     21  C         16.5190  -23.6680   -3.9900 C.2     1  UNL1        0.0430
     22  C         16.7460  -23.8060   -5.3600 C.2     1  UNL1        0.1320
     23  F         17.7640  -24.5930   -5.7470 F       1  UNL1       -0.2050
     24  C         24.3710  -22.1290  -12.4640 C.2     1  UNL1        0.0320
     25  C         24.9140  -23.2640  -13.0770 C.2     1  UNL1        0.0170
     26  C         26.2940  -23.4650  -13.0530 C.2     1  UNL1        0.0010
     27  C         27.1210  -22.5410  -12.4110 C.2     1  UNL1        0.0000
     28  C         26.5730  -21.4190  -11.7820 C.2     1  UNL1        0.0010
     29  C         25.1940  -21.2130  -11.8010 C.2     1  UNL1        0.0170
@<TRIPOS>BOND
     1    11    10    2
     2    25    26    1
     3    25    24    2
     4    26    27    2
     5    10    24    1
     6    10     9   am
     7    24    29    1
     8    27    28    1
     9     3     2    1
    10     3     4    2
    11    29    28    2
    12     2     1    2
    13     9     4    1
    14     9     8    1
    15     4     5    1
    16     1    12    1
    17     1     6    1
    18     8     7    2
    19     5     6    2
    20     5     7    1
    21    12    13    1
    22    13    16    1
    23    13    14   am
    24    15    14    2
    25    14    17    1
    26    17    18    2
    27    17    22    1
    28    18    19    1
    29    23    22    1
    30    22    21    2
    31    19    20    2
    32    21    20    1
