@<TRIPOS>MOLECULE
84153_out_ligand_01.pdbqt
 33 35 0 0 0
SMALL
GASTEIGER

@<TRIPOS>ATOM
      1  C         21.6760  -23.5920   -9.0690 C.2     1  UNL1        0.0340
      2  C         21.4590  -22.4220   -8.3280 C.2     1  UNL1        0.0310
      3  C         20.3610  -22.3120   -7.4700 C.2     1  UNL1        0.0270
      4  C         19.4830  -23.3870   -7.3370 C.2     1  UNL1        0.0790
      5  C         19.6770  -24.5520   -8.0790 C.2     1  UNL1        0.0270
      6  C         20.7740  -24.6510   -8.9430 C.2     1  UNL1        0.0310
      7  N         22.8010  -23.6100   -9.9170 N.am    1  UNL1       -0.3270
      8  C         22.9760  -22.9230  -11.1050 C.2     1  UNL1        0.2260
      9  O         22.1530  -22.2040  -11.6630 O.2     1  UNL1       -0.2730
     10  H         23.5500  -24.2450   -9.6430 H       1  UNL1        0.1690
     11  C         24.3470  -23.1580  -11.7300 C.3     1  UNL1        0.1440
     12  C         25.0640  -21.8670  -12.0620 C.2     1  UNL1       -0.0160
     13  C         25.7640  -21.2180  -11.0300 C.2     1  UNL1        0.0100
     14  C         26.4570  -20.0270  -11.2640 C.2     1  UNL1        0.0010
     15  C         26.4700  -19.4580  -12.5350 C.2     1  UNL1        0.0020
     16  C         25.7780  -20.0730  -13.5790 C.2     1  UNL1        0.0370
     17  C         25.0760  -21.2640  -13.3360 C.2     1  UNL1        0.1090
     18  N         24.3520  -21.8440  -14.4640 N.pl3   1  UNL1       -0.1150
     19  O         24.9130  -22.7420  -15.1030 O.2     1  UNL1       -0.5320
     20  O         23.2200  -21.3950  -14.7040 O.2     1  UNL1       -0.5320
     21  S         18.0710  -23.2450   -6.2690 S.O2    1  UNL1        0.2580
     22  O         17.7480  -24.5590   -5.7600 O.2     1  UNL1       -0.2010
     23  O         18.2940  -22.1210   -5.3860 O.2     1  UNL1       -0.2010
     24  N         16.8750  -22.7750   -7.3300 N.3     1  UNL1       -0.3150
     25  H         16.5620  -21.8090   -7.2550 H       1  UNL1        0.1720
     26  C         16.1280  -23.7540   -8.1170 C.3     1  UNL1        0.1370
     27  C         15.7430  -23.1810   -9.4870 C.3     1  UNL1        0.0580
     28  C         16.7950  -22.3910  -10.2380 C.2     1  UNL1       -0.0570
     29  C         16.6090  -21.0640  -10.6480 C.2     1  UNL1        0.0070
     30  C         17.6040  -20.3930  -11.3650 C.2     1  UNL1        0.0010
     31  C         18.7900  -21.0420  -11.6960 C.2     1  UNL1        0.0000
     32  C         18.9850  -22.3650  -11.3090 C.2     1  UNL1        0.0010
     33  C         17.9930  -23.0350  -10.5910 C.2     1  UNL1        0.0070
@<TRIPOS>BOND
     1    19    18    2
     2    20    18    2
     3    18    17    1
     4    16    17    1
     5    16    15    2
     6    17    12    2
     7    15    14    1
     8    12    11    1
     9    12    13    1
    10    11     8    1
    11    31    30    2
    12    31    32    1
    13     9     8    2
    14    30    29    1
    15    32    33    2
    16    14    13    2
    17     8     7   am
    18    29    28    2
    19    33    28    1
    20    28    27    1
    21     7    10    1
    22     7     1    1
    23    27    26    1
    24     1     6    2
    25     1     2    1
    26     6     5    1
    27     2     3    2
    28    26    24    1
    29     5     4    2
    30     3     4    1
    31     4    21    1
    32    24    25    1
    33    24    21    1
    34    21    22    2
    35    21    23    2
