@<TRIPOS>MOLECULE
84187_out_ligand_01.pdbqt
 31 33 0 0 0
SMALL
GASTEIGER

@<TRIPOS>ATOM
      1  C         17.5400  -21.5680  -10.8910 C.2     1  UNL1        0.0080
      2  C         18.8920  -21.9190  -10.9540 C.2     1  UNL1        0.0400
      3  C         19.4450  -22.8350  -10.0460 C.2     1  UNL1        0.0350
      4  C         18.6580  -23.3500   -9.0150 C.2     1  UNL1        0.0420
      5  C         17.3250  -22.9420   -8.9120 C.2     1  UNL1        0.0820
      6  C         16.7670  -22.0580   -9.8400 C.2     1  UNL1        0.0480
      7  C         20.8790  -23.2020  -10.2010 C.2     1  UNL1        0.2520
      8  O         21.3980  -23.9940   -9.4230 O.2     1  UNL1       -0.2680
      9  N         21.5660  -22.5790  -11.2210 N.am    1  UNL1       -0.3530
     10  H         21.1550  -21.7740  -11.6720 H       1  UNL1        0.1630
     11  C         22.9970  -22.7410  -11.3620 C.3     1  UNL1        0.1620
     12  C         23.4970  -22.0550  -12.5990 C.2     1  UNL1       -0.0230
     13  C         24.8360  -22.1330  -12.9930 C.2     1  UNL1        0.0120
     14  C         25.2490  -21.5000  -14.1620 C.2     1  UNL1        0.0200
     15  C         24.3050  -20.8110  -14.9050 C.2     1  UNL1        0.1160
     16  N         23.0030  -20.7200  -14.5620 N.2     1  UNL1       -0.2730
     17  C         22.6270  -21.3470  -13.4230 C.2     1  UNL1        0.1240
     18  N         17.0330  -20.5710  -11.7300 N.pl3   1  UNL1       -0.3030
     19  H         16.1170  -20.7770  -12.1210 H       1  UNL1        0.1240
     20  H         17.6880  -20.2490  -12.4380 H       1  UNL1        0.1240
     21  S         16.3180  -23.5870   -7.6040 S.O2    1  UNL1        0.2630
     22  O         15.5040  -22.5190   -7.0670 O.2     1  UNL1       -0.2000
     23  O         15.7070  -24.8020   -8.1040 O.2     1  UNL1       -0.2000
     24  N         17.4600  -24.0760   -6.4570 N.pl3   1  UNL1       -0.2810
     25  H         17.2730  -25.0320   -6.1540 H       1  UNL1        0.1790
     26  C         17.8250  -23.1430   -5.4490 C.2     1  UNL1        0.0420
     27  C         18.5410  -21.9980   -5.8000 C.2     1  UNL1        0.0300
     28  C         18.8630  -21.0570   -4.8220 C.2     1  UNL1        0.0020
     29  C         18.4670  -21.2580   -3.5000 C.2     1  UNL1        0.0000
     30  C         17.7460  -22.4020   -3.1540 C.2     1  UNL1        0.0020
     31  C         17.4220  -23.3450   -4.1300 C.2     1  UNL1        0.0300
@<TRIPOS>BOND
     1    15    16    2
     2    15    14    1
     3    16    17    1
     4    14    13    2
     5    17    12    2
     6    13    12    1
     7    12    11    1
     8    20    18    1
     9    19    18    1
    10    18     1    1
    11    10     9    1
    12    11     9    1
    13     9     7   am
    14     2     1    2
    15     2     3    1
    16     1     6    1
    17     7     3    1
    18     7     8    2
    19     3     4    2
    20     6     5    2
    21     4     5    1
    22     5    21    1
    23    23    21    2
    24    21    22    2
    25    21    24    1
    26    24    25    1
    27    24    26    1
    28    27    26    2
    29    27    28    1
    30    26    31    1
    31    28    29    2
    32    31    30    2
    33    29    30    1
