@<TRIPOS>MOLECULE
84201_out_ligand_01.pdbqt
 30 33 0 0 0
SMALL
GASTEIGER

@<TRIPOS>ATOM
      1  N         19.8050  -22.7200   -9.9810 N.3     1  UNL1        0.0970
      2  C         18.8420  -22.2330  -10.9900 C.3     1  UNL1        0.2790
      3  C         19.4100  -21.0680  -11.8440 C.3     1  UNL1        0.0880
      4  C         20.8170  -21.3770  -12.2070 C.ar    1  UNL1        0.0200
      5  N         21.5730  -20.7330  -13.1400 N.ar    1  UNL1       -0.3580
      6  C         22.8350  -21.2930  -13.1740 C.ar    1  UNL1        0.0430
      7  C         23.9420  -20.9700  -13.9720 C.2     1  UNL1        0.0330
      8  C         25.1090  -21.7150  -13.7890 C.2     1  UNL1        0.0440
      9  C         25.1540  -22.7370  -12.8500 C.2     1  UNL1        0.1170
     10  F         26.2880  -23.4330  -12.6980 F       1  UNL1       -0.2060
     11  C         24.0510  -23.0580  -12.0600 C.2     1  UNL1        0.0560
     12  C         22.8630  -22.3190  -12.2230 C.ar    1  UNL1        0.0030
     13  C         21.5770  -22.3620  -11.6140 C.ar    1  UNL1        0.0050
     14  C         21.0420  -23.2810  -10.5600 C.3     1  UNL1        0.3140
     15  H         21.2710  -19.9620  -13.7180 H       1  UNL1        0.1660
     16  C         19.2350  -23.5480   -8.9140 C.3     1  UNL1        0.3140
     17  C         18.7530  -22.8000   -7.7050 C.2     1  UNL1        0.0030
     18  C         19.5390  -21.9800   -6.8340 C.2     1  UNL1        0.0540
     19  C         18.7040  -21.4850   -5.8600 C.2     1  UNL1        0.1430
     20  O         17.4320  -21.9250   -6.0960 O.2     1  UNL1       -0.3080
     21  C         17.4470  -22.7030   -7.2190 C.2     1  UNL1        0.0690
     22  C         18.9660  -20.6290   -4.7270 C.2     1  UNL1        0.2730
     23  N         19.5930  -19.4550   -5.0270 N.am    1  UNL1       -0.3640
     24  H         19.8730  -18.8500   -4.2690 H       1  UNL1        0.1590
     25  H         19.9200  -19.2790   -5.9680 H       1  UNL1        0.1590
     26  O         18.6830  -20.8980   -3.5620 O.2     1  UNL1       -0.2660
     27  C         16.0940  -23.2250   -7.6700 C.3     1  UNL1       -0.0010
     28  C         14.9850  -22.6830   -6.7450 C.3     1  UNL1        0.0210
     29  C         16.0370  -24.7710   -7.6010 C.3     1  UNL1        0.0210
     30  C         15.8160  -22.8170   -9.1260 C.3     1  UNL1        0.0210
@<TRIPOS>BOND
     1     7     8    1
     2     7     6    2
     3     8     9    2
     4    15     5    1
     5     6     5   ar
     6     6    12   ar
     7     5     4   ar
     8     9    10    1
     9     9    11    1
    10    12    11    2
    11    12    13   ar
    12     4     3    1
    13     4    13   ar
    14     3     2    1
    15    13    14    1
    16     2     1    1
    17    14     1    1
    18     1    16    1
    19    30    27    1
    20    16    17    1
    21    17    21    2
    22    17    18    1
    23    27    29    1
    24    27    21    1
    25    27    28    1
    26    21    20    1
    27    18    19    2
    28    20    19    1
    29    25    23    1
    30    19    22    1
    31    23    22   am
    32    23    24    1
    33    22    26    2
