@<TRIPOS>MOLECULE
84260_out_ligand_01.pdbqt
 28 31 0 0 0
SMALL
GASTEIGER

@<TRIPOS>ATOM
      1  C         23.2210  -22.6560  -10.4050 C.2     1  UNL1        0.2710
      2  O         23.8090  -23.2860   -9.5250 O.2     1  UNL1       -0.2660
      3  N         23.9260  -22.0740  -11.4610 N.am    1  UNL1       -0.3410
      4  C         25.3780  -21.9860  -11.3440 C.3     1  UNL1        0.1280
      5  C         26.0810  -23.2780  -11.7670 C.3     1  UNL1        0.0420
      6  C         25.3910  -24.0000  -12.9200 C.3     1  UNL1        0.1520
      7  N         25.0230  -23.1020  -13.9980 N.pl3   1  UNL1       -0.2720
      8  N         25.6380  -23.2140  -15.1900 N.2     1  UNL1       -0.1740
      9  C         25.0920  -22.2370  -15.9310 C.2     1  UNL1        0.0850
     10  C         24.1460  -21.4940  -15.1920 C.2     1  UNL1        0.0600
     11  C         24.1200  -22.0700  -13.9370 C.2     1  UNL1        0.0500
     12  C         23.3080  -21.7030  -12.7360 C.3     1  UNL1        0.1850
     13  C         21.7780  -22.5550  -10.3920 C.ar    1  UNL1        0.1080
     14  N         21.1220  -21.6760  -11.2250 N.ar    1  UNL1       -0.3510
     15  C         19.7670  -21.7130  -11.0160 C.ar    1  UNL1        0.0430
     16  H         21.5910  -21.0720  -11.8860 H       1  UNL1        0.1660
     17  C         18.7440  -20.9590  -11.5980 C.2     1  UNL1        0.0310
     18  C         19.5290  -22.7160  -10.0820 C.ar    1  UNL1       -0.0010
     19  C         17.4310  -21.2360  -11.2060 C.2     1  UNL1        0.0090
     20  C         17.1460  -22.2300  -10.2640 C.2     1  UNL1       -0.0610
     21  C         15.7250  -22.5360   -9.8890 C.3     1  UNL1        0.0480
     22  C         18.1940  -22.9850   -9.7120 C.2     1  UNL1        0.0210
     23  C         20.7980  -23.2820   -9.7230 C.ar    1  UNL1       -0.0170
     24  C         20.9860  -24.4510   -8.8190 C.3     1  UNL1        0.0520
     25  C         25.5310  -22.0420  -17.3550 C.3     1  UNL1        0.1670
     26  C         24.8630  -20.8350  -17.9980 C.3     1  UNL1        0.0460
     27  O         25.2240  -23.1920  -18.1530 O.3     1  UNL1       -0.3900
     28  H         24.4460  -23.5870  -17.7050 H       1  UNL1        0.2100
@<TRIPOS>BOND
     1    27    28    1
     2    27    25    1
     3    26    25    1
     4    25     9    1
     5     9    10    1
     6     9     8    2
     7    10    11    2
     8     8     7    1
     9     7    11    1
    10     7     6    1
    11    11    12    1
    12     6     5    1
    13    12     3    1
    14    16    14    1
    15     5     4    1
    16    17    19    1
    17    17    15    2
    18     3     4    1
    19     3     1   am
    20    14    15   ar
    21    14    13   ar
    22    19    20    2
    23    15    18   ar
    24     1    13    1
    25     1     2    2
    26    13    23   ar
    27    20    21    1
    28    20    22    1
    29    18    23   ar
    30    18    22    2
    31    23    24    1
