@<TRIPOS>MOLECULE
84320_out_ligand_01.pdbqt
 32 34 0 0 0
SMALL
GASTEIGER

@<TRIPOS>ATOM
      1  C         20.0680  -22.3450   -9.0490 C.2     0  UNK0        0.0340
      2  C         21.1950  -22.3080   -8.2250 C.2     0  UNK0        0.0300
      3  C         22.4730  -22.1350   -8.7720 C.2     0  UNK0        0.0190
      4  C         22.6360  -21.9860  -10.1540 C.2     0  UNK0        0.0320
      5  C         21.5120  -22.0360  -10.9830 C.2     0  UNK0        0.0190
      6  C         20.2370  -22.2090  -10.4330 C.2     0  UNK0        0.0300
      7  N         18.7500  -22.5080   -8.5790 N.am    0  UNK0       -0.3260
      8  C         18.2120  -23.6000   -7.9110 C.2     0  UNK0        0.2350
      9  O         18.8170  -24.6350   -7.6450 O.2     0  UNK0       -0.2720
     10  H         18.0990  -21.7740   -8.8310 H       0  UNK0        0.1690
     11  C         16.7260  -23.3860   -7.4790 C.3     0  UNK0        0.0680
     12  C         15.8660  -24.5500   -8.0210 C.3     0  UNK0        0.0240
     13  C         15.7080  -24.2490   -9.5060 C.3     0  UNK0        0.0020
     14  C         15.6620  -22.7280   -9.6030 C.3     0  UNK0        0.0020
     15  C         16.0930  -22.1930   -8.2350 C.3     0  UNK0        0.0240
     16  C         16.6590  -23.1660   -5.9630 C.2     0  UNK0       -0.0400
     17  C         15.5920  -23.7200   -5.2330 C.2     0  UNK0        0.0080
     18  C         15.4810  -23.5210   -3.8560 C.2     0  UNK0        0.0010
     19  C         16.4280  -22.7550   -3.1820 C.2     0  UNK0        0.0070
     20  C         17.4880  -22.1730   -3.8820 C.2     0  UNK0       -0.0610
     21  C         18.5280  -21.3730   -3.1540 C.3     0  UNK0        0.0480
     22  C         17.6000  -22.3890   -5.2640 C.2     0  UNK0        0.0150
     23  C         23.9750  -21.7980  -10.7800 C.2     0  UNK0        0.2520
     24  O         24.7690  -20.9920  -10.3090 O.2     0  UNK0       -0.2680
     25  N         24.2640  -22.6000  -11.8650 N.am    1  ALA1       -0.3430
     26  H         23.7410  -23.4660  -11.9320 H       1  ALA1        0.1630
     27  CA        25.6240  -22.6410  -12.4020 C.3     1  ALA1        0.1780
     28  CB        25.7490  -21.7150  -13.6010 C.3     1  ALA1        0.0430
     29  C         25.9430  -24.0740  -12.8250 C.2     1  ALA1        0.1630
     30  O         27.0180  -24.6440  -12.7040 O.2     1  ALA1       -0.6480
     31  OXT       24.8750  -24.7290  -13.3240 O.3     1  ALA1       -0.7750
     32  HXT       24.1180  -24.3820  -12.8060 H       1  ALA1        0.1670
@<TRIPOS>BOND
     1    28    27    1
     2    31    29    1
     3    31    32    1
     4    29    30    2
     5    29    27    1
     6    27    25    1
     7    26    25    1
     8    25    23   am
     9     5     6    1
    10     5     4    2
    11    23    24    2
    12    23     4    1
    13     6     1    2
    14     4     3    1
    15    14    13    1
    16    14    15    1
    17    13    12    1
    18     1     7    1
    19     1     2    1
    20    10     7    1
    21     3     2    2
    22     7     8   am
    23    15    11    1
    24    12    11    1
    25     8     9    2
    26     8    11    1
    27    11    16    1
    28    16    22    2
    29    16    17    1
    30    22    20    1
    31    17    18    2
    32    20    19    2
    33    20    21    1
    34    18    19    1
