@<TRIPOS>MOLECULE
84341_out_ligand_01.pdbqt
 24 26 0 0 0
SMALL
GASTEIGER

@<TRIPOS>ATOM
      1  N         19.1800  -20.5960  -12.1040 N.1     1  UNL1       -0.1910
      2  C         20.2460  -21.0550  -12.0990 C.1     1  UNL1        0.1020
      3  C         21.5580  -21.6330  -12.1520 C.2     1  UNL1        0.0720
      4  C         22.3200  -21.3250  -13.2980 C.2     1  UNL1        0.0440
      5  C         23.6190  -21.8020  -13.4330 C.2     1  UNL1        0.0120
      6 BR         24.6270  -21.3760  -14.9720 Br      1  UNL1       -0.0510
      7  C         24.1770  -22.5870  -12.4350 C.2     1  UNL1        0.0210
      8  C         23.4210  -22.8940  -11.3000 C.2     1  UNL1        0.0320
      9  C         22.0970  -22.4310  -11.1180 C.2     1  UNL1        0.0510
     10  N         21.4450  -22.8150   -9.9380 N.pl3   1  UNL1       -0.3800
     11  C         20.8750  -24.1760   -9.9660 C.3     1  UNL1        0.1230
     12  C         20.4630  -24.6540   -8.5740 C.3     1  UNL1        0.0290
     13  C         19.7790  -23.5570   -7.7450 C.3     1  UNL1        0.0220
     14  C         20.6450  -22.2770   -7.6820 C.3     1  UNL1        0.0290
     15  C         21.8490  -22.3040   -8.6280 C.3     1  UNL1        0.1230
     16  C         18.3350  -23.3340   -8.2060 C.2     1  UNL1       -0.0450
     17  C         18.0680  -22.5640   -9.3560 C.2     1  UNL1        0.0080
     18  C         16.7660  -22.3420   -9.8030 C.2     1  UNL1        0.0010
     19  C         15.6940  -22.8920   -9.1130 C.2     1  UNL1        0.0010
     20  C         15.9290  -23.6720   -7.9830 C.2     1  UNL1        0.0100
     21  C         17.2380  -23.9170   -7.5260 C.2     1  UNL1       -0.0280
     22  C         17.4000  -24.7740   -6.2920 C.3     1  UNL1        0.2030
     23  O         16.5360  -24.3450   -5.2510 O.3     1  UNL1       -0.3960
     24  H         16.9590  -23.5880   -4.8090 H       1  UNL1        0.2090
@<TRIPOS>BOND
     1     6     5    1
     2     5     4    1
     3     5     7    2
     4     4     3    2
     5     7     8    1
     6     3     2    1
     7     3     9    1
     8     1     2    3
     9     8     9    2
    10     9    10    1
    11    11    10    1
    12    11    12    1
    13    10    15    1
    14    18    17    1
    15    18    19    2
    16    17    16    2
    17    19    20    1
    18    15    14    1
    19    12    13    1
    20    16    13    1
    21    16    21    1
    22    20    21    2
    23    13    14    1
    24    21    22    1
    25    22    23    1
    26    23    24    1
