@<TRIPOS>MOLECULE
84363_out_ligand_01.pdbqt
 28 31 0 0 0
SMALL
GASTEIGER

@<TRIPOS>ATOM
      1  C         24.2630  -22.3080  -12.6800 C.2     1  UNL1        0.0750
      2  C         23.7230  -21.6040  -13.7770 C.2     1  UNL1        0.0270
      3  C         22.4070  -21.1390  -13.7360 C.2     1  UNL1        0.0320
      4  C         21.6750  -21.4070  -12.5950 C.2     1  UNL1        0.0460
      5  C         22.1990  -22.1160  -11.5080 C.2     1  UNL1        0.0080
      6  C         23.5030  -22.5810  -11.5350 C.2     1  UNL1        0.0390
      7  C         21.1210  -22.1980  -10.5140 C.2     1  UNL1        0.0450
      8  C         21.2110  -22.8250   -9.3320 C.2     1  UNL1        0.0290
      9  C         19.9290  -21.4800  -11.1040 C.2     1  UNL1        0.2570
     10  O         18.8290  -21.3010  -10.6210 O.2     1  UNL1       -0.2670
     11  N         20.3580  -21.0410  -12.3480 N.am    1  UNL1       -0.3220
     12  H         19.7530  -20.5310  -12.9760 H       1  UNL1        0.1690
     13  C         20.1630  -22.9430   -8.3120 C.2     1  UNL1       -0.0340
     14  C         19.2950  -24.0390   -8.3580 C.2     1  UNL1        0.0120
     15  C         18.3160  -24.2080   -7.3750 C.2     1  UNL1        0.0140
     16  C         18.1970  -23.2830   -6.3240 C.2     1  UNL1       -0.0080
     17  C         17.2390  -23.4000   -5.3140 C.2     1  UNL1        0.1280
     18  C         19.0710  -22.1810   -6.2630 C.2     1  UNL1       -0.0220
     19  N         17.0950  -22.5310   -4.2860 N.2     1  UNL1       -0.2720
     20  C         17.9450  -21.4840   -4.2630 C.2     1  UNL1        0.1170
     21  C         18.9340  -21.2690   -5.2100 C.2     1  UNL1        0.0310
     22  C         20.0550  -22.0270   -7.2570 C.2     1  UNL1        0.0240
     23  S         25.9360  -22.8950  -12.7780 S.O2    1  UNL1        0.2390
     24  O         26.4270  -22.6420  -14.1130 O.2     1  UNL1       -0.2060
     25  O         26.6380  -22.4630  -11.5950 O.2     1  UNL1       -0.2060
     26  N         25.7170  -24.5590  -12.6820 N.3     1  UNL1       -0.2250
     27  H         24.9600  -24.8340  -13.3120 H       1  UNL1        0.1360
     28  H         25.5710  -24.9040  -11.7340 H       1  UNL1        0.1360
@<TRIPOS>BOND
     1    24    23    2
     2     2     3    1
     3     2     1    2
     4     3     4    2
     5    27    26    1
     6    12    11    1
     7    23    26    1
     8    23     1    1
     9    23    25    2
    10    26    28    1
    11     1     6    1
    12     4    11    1
    13     4     5    1
    14    11     9   am
    15     6     5    2
    16     5     7    1
    17     9    10    2
    18     9     7    1
    19     7     8    2
    20     8    13    1
    21    14    13    2
    22    14    15    1
    23    13    22    1
    24    15    16    2
    25    22    18    2
    26    16    18    1
    27    16    17    1
    28    18    21    1
    29    17    19    2
    30    21    20    2
    31    19    20    1
