@<TRIPOS>MOLECULE
84396_out_ligand_01.pdbqt
 28 30 0 0 0
SMALL
GASTEIGER

@<TRIPOS>ATOM
      1  C         20.0150  -21.5990  -11.0680 C.2     1  UNL1        0.0360
      2  C         18.9580  -21.1420  -11.8510 C.2     1  UNL1        0.0310
      3  C         17.6360  -21.3940  -11.4700 C.2     1  UNL1        0.0270
      4  C         17.3470  -22.1130  -10.3050 C.2     1  UNL1        0.0490
      5 CL         15.6710  -22.3170   -9.9320 Cl      1  UNL1       -0.0830
      6  C         18.3970  -22.5940   -9.5110 C.2     1  UNL1        0.0550
      7  C         19.7230  -22.3200   -9.9030 C.2     1  UNL1        0.0480
      8  N         21.3760  -21.3850  -11.3670 N.am    1  UNL1       -0.3230
      9  C         22.4280  -22.2710  -11.2100 C.2     1  UNL1        0.2590
     10  O         22.3360  -23.4110  -10.7650 O.2     1  UNL1       -0.2670
     11  H         21.6010  -20.4690  -11.7450 H       1  UNL1        0.1690
     12  C         23.7820  -21.7840  -11.6200 C.2     1  UNL1        0.0700
     13  C         24.7230  -21.5050  -10.6160 C.2     1  UNL1        0.0200
     14  C         26.0030  -21.0480  -10.9450 C.2     1  UNL1        0.0010
     15  C         26.3580  -20.8640  -12.2800 C.2     1  UNL1        0.0030
     16  C         25.4320  -21.1370  -13.2860 C.2     1  UNL1        0.0430
     17  C         24.1580  -21.5920  -12.9520 C.2     1  UNL1        0.1320
     18  F         23.3000  -21.8390  -13.9550 F       1  UNL1       -0.2050
     19  C         18.2470  -23.3820   -8.2510 C.2     1  UNL1        0.2530
     20  O         18.9340  -24.3860   -8.0810 O.2     1  UNL1       -0.2680
     21  N         17.2960  -22.9740   -7.3440 N.am    1  UNL1       -0.3520
     22  H         16.6980  -22.1910   -7.5820 H       1  UNL1        0.1630
     23  C         16.9800  -23.7400   -6.1450 C.3     1  UNL1        0.0840
     24  C         17.7460  -23.1830   -4.9340 C.3     1  UNL1        0.0250
     25  C         16.9300  -22.1410   -4.1770 C.3     1  UNL1        0.0020
     26  C         15.6250  -22.7270   -3.6330 C.3     1  UNL1        0.0000
     27  C         15.0930  -23.9010   -4.4550 C.3     1  UNL1        0.0020
     28  C         15.4560  -23.7670   -5.9280 C.3     1  UNL1        0.0250
@<TRIPOS>BOND
     1    18    17    1
     2    16    17    1
     3    16    15    2
     4    17    12    2
     5    15    14    1
     6     2     3    1
     7     2     1    2
     8    11     8    1
     9    12     9    1
    10    12    13    1
    11     3     4    2
    12     8     9   am
    13     8     1    1
    14     9    10    2
    15     1     7    1
    16    14    13    2
    17     4     5    1
    18     4     6    1
    19     7     6    2
    20     6    19    1
    21    19    20    2
    22    19    21   am
    23    22    21    1
    24    21    23    1
    25    23    28    1
    26    23    24    1
    27    28    27    1
    28    24    25    1
    29    27    26    1
    30    25    26    1
