@<TRIPOS>MOLECULE
84394_out_ligand_01.pdbqt
 35 38 0 0 0
SMALL
GASTEIGER

@<TRIPOS>ATOM
      1  N         19.9280  -22.3700  -11.5490 N.am    1  UNL1       -0.3230
      2  C         20.9100  -21.4150  -11.7040 C.2     1  UNL1        0.2590
      3  O         20.7770  -20.2200  -11.4530 O.2     1  UNL1       -0.2670
      4  H         20.1710  -23.3060  -11.8570 H       1  UNL1        0.1690
      5  C         18.6350  -22.2180  -11.0110 C.2     1  UNL1        0.0350
      6  C         17.8230  -21.2320  -11.5910 C.2     1  UNL1        0.0290
      7  C         16.5230  -21.0090  -11.1340 C.2     1  UNL1        0.0030
      8  C         16.0180  -21.7760  -10.0870 C.2     1  UNL1        0.0170
      9  C         16.8200  -22.7630   -9.5040 C.2     1  UNL1        0.0340
     10  C         18.1220  -22.9910   -9.9700 C.2     1  UNL1        0.0460
     11  C         16.2920  -23.6130   -8.4090 C.2     1  UNL1        0.2520
     12  O         15.6620  -24.6300   -8.6630 O.2     1  UNL1       -0.2680
     13  N         16.5670  -23.1680   -7.1310 N.am    1  UNL1       -0.3520
     14  H         17.0890  -22.3110   -7.0100 H       1  UNL1        0.1630
     15  C         16.0190  -23.8280   -5.9530 C.3     1  UNL1        0.0840
     16  C         14.7440  -23.1070   -5.4700 C.3     1  UNL1        0.0250
     17  C         15.0570  -22.0780   -4.3890 C.3     1  UNL1        0.0020
     18  C         15.6870  -22.7280   -3.1530 C.3     1  UNL1        0.0000
     19  C         16.4910  -23.9900   -3.4680 C.3     1  UNL1        0.0020
     20  C         17.0990  -23.9330   -4.8630 C.3     1  UNL1        0.0250
     21  C         22.2450  -21.8940  -12.2230 C.2     1  UNL1        0.0650
     22  C         22.7150  -21.2630  -13.3910 C.2     1  UNL1        0.0200
     23  C         23.9430  -21.6050  -13.9540 C.2     1  UNL1        0.0010
     24  C         24.7210  -22.5890  -13.3580 C.2     1  UNL1        0.0030
     25  C         24.2730  -23.2320  -12.2010 C.2     1  UNL1        0.0380
     26  C         23.0430  -22.8910  -11.6170 C.2     1  UNL1        0.0840
     27  O         22.5540  -23.5100  -10.4950 O.2     1  UNL1       -0.3500
     28  C         23.1840  -23.2930   -9.2270 C.3     1  UNL1        0.1800
     29  C         23.0030  -21.8570   -8.7170 C.3     1  UNL1        0.0650
     30  C         21.8270  -21.7270   -7.7760 C.2     1  UNL1       -0.0560
     31  C         20.7270  -22.5880   -7.8850 C.2     1  UNL1        0.0070
     32  C         19.6300  -22.4430   -7.0340 C.2     1  UNL1        0.0010
     33  C         19.6200  -21.4350   -6.0720 C.2     1  UNL1        0.0000
     34  C         20.7080  -20.5740   -5.9560 C.2     1  UNL1        0.0010
     35  C         21.8090  -20.7220   -6.8010 C.2     1  UNL1        0.0070
@<TRIPOS>BOND
     1    23    22    1
     2    23    24    2
     3    22    21    2
     4    24    25    1
     5    21     2    1
     6    21    26    1
     7    25    26    2
     8     4     1    1
     9     2     1   am
    10     2     3    2
    11    26    27    1
    12     6     7    1
    13     6     5    2
    14     1     5    1
    15     7     8    2
    16     5    10    1
    17    27    28    1
    18     8     9    1
    19    10     9    2
    20     9    11    1
    21    28    29    1
    22    29    30    1
    23    12    11    2
    24    11    13   am
    25    31    30    2
    26    31    32    1
    27    30    35    1
    28    13    14    1
    29    13    15    1
    30    32    33    2
    31    35    34    2
    32    33    34    1
    33    15    16    1
    34    15    20    1
    35    16    17    1
    36    20    19    1
    37    17    18    1
    38    19    18    1
