@<TRIPOS>MOLECULE
84399_out_ligand_01.pdbqt
 31 36 0 0 0
SMALL
GASTEIGER

@<TRIPOS>ATOM
      1  C         19.2970  -22.5180   -8.3070 C.ar    1  UNL1        0.0750
      2  N         20.6460  -22.6060   -8.2340 N.ar    1  UNL1       -0.2390
      3  C         21.3170  -22.3110   -9.3690 C.ar    1  UNL1        0.1120
      4  S         23.0150  -22.3830   -9.3990 S.2     1  UNL1       -0.0640
      5  C         23.0760  -21.9330  -11.0590 C.ar    1  UNL1        0.0770
      6  C         24.1910  -21.7740  -11.8930 C.2     1  UNL1        0.1240
      7  N         23.9660  -21.4010  -13.1700 N.2     1  UNL1       -0.2290
      8  C         22.7030  -21.2340  -13.5840 C.2     1  UNL1        0.2350
      9  N         21.5850  -21.3740  -12.8670 N.2     1  UNL1       -0.2400
     10  C         21.7980  -21.7300  -11.5730 C.ar    1  UNL1        0.0920
     11  C         20.7720  -21.9400  -10.5920 C.ar    1  UNL1        0.0370
     12  C         19.3720  -21.8620  -10.6300 C.ar    1  UNL1       -0.0340
     13  C         18.6390  -22.1500   -9.4720 C.ar    1  UNL1       -0.0210
     14  C         17.1690  -22.0850   -9.7580 C.3     1  UNL1        0.0420
     15  C         17.1440  -21.2590  -11.0500 C.3     1  UNL1        0.0090
     16  C         18.4540  -21.5590  -11.7830 C.3     1  UNL1        0.0400
     17  N         25.5020  -21.9470  -11.4300 N.pl3   1  UNL1       -0.2700
     18  H         25.5640  -21.6480  -10.4610 H       1  UNL1        0.1290
     19  C         26.0180  -23.3050  -11.6250 C.3     1  UNL1        0.1530
     20  C         26.0970  -23.6600  -13.1020 C.2     1  UNL1        0.0470
     21  C         27.0320  -23.0270  -13.9230 C.2     1  UNL1        0.0280
     22  C         27.1210  -23.4030  -15.2600 C.2     1  UNL1        0.0030
     23  C         26.2840  -24.4030  -15.7420 C.2     1  UNL1        0.0190
     24  C         25.3880  -24.9860  -14.8630 C.2     1  UNL1        0.1170
     25  N         25.2780  -24.6400  -13.5630 N.2     1  UNL1       -0.2640
     26  C         18.5950  -22.8700   -7.0650 C.2     1  UNL1       -0.0070
     27  C         18.4950  -21.9650   -5.9930 C.2     1  UNL1        0.0140
     28  C         17.8190  -22.3130   -4.8190 C.2     1  UNL1        0.0010
     29  C         17.2400  -23.5740   -4.6940 C.2     1  UNL1        0.0000
     30  C         17.3440  -24.4920   -5.7370 C.2     1  UNL1        0.0010
     31  C         18.0210  -24.1420   -6.9090 C.2     1  UNL1        0.0140
@<TRIPOS>BOND
     1    23    22    2
     2    23    24    1
     3    22    21    1
     4    24    25    2
     5    21    20    2
     6     8     7    2
     7     8     9    1
     8    25    20    1
     9     7     6    1
    10    20    19    1
    11     9    10    2
    12     6    17    1
    13     6     5    2
    14    16    15    1
    15    16    12    1
    16    19    17    1
    17    10     5   ar
    18    10    11   ar
    19    17    18    1
    20     5     4   ar
    21    15    14    1
    22    12    11   ar
    23    12    13   ar
    24    11     3   ar
    25    14    13    1
    26    13     1   ar
    27     4     3   ar
    28     3     2   ar
    29     1     2   ar
    30     1    26    1
    31    26    31    2
    32    26    27    1
    33    31    30    1
    34    27    28    2
    35    30    29    2
    36    28    29    1
