@<TRIPOS>MOLECULE
84407_out_ligand_01.pdbqt
 29 33 0 0 0
SMALL
GASTEIGER

@<TRIPOS>ATOM
      1  C         24.5450  -22.0170  -12.2440 C.2     1  UNL1        0.1440
      2  N         24.3480  -21.5450  -13.4940 N.2     1  UNL1       -0.2230
      3  C         23.1020  -21.2430  -13.8840 C.2     1  UNL1        0.2360
      4  N         21.9800  -21.3420  -13.1710 N.2     1  UNL1       -0.2400
      5  C         22.1630  -21.8140  -11.9100 C.ar    1  UNL1        0.0920
      6  C         23.4210  -22.1580  -11.4210 C.ar    1  UNL1        0.0820
      7  S         23.3210  -22.7210   -9.7990 S.2     1  UNL1       -0.0630
      8  C         21.6350  -22.5120   -9.7530 C.ar    1  UNL1        0.1120
      9  N         20.9440  -22.8310   -8.6370 N.ar    1  UNL1       -0.2390
     10  C         19.6060  -22.6280   -8.6960 C.ar    1  UNL1        0.0750
     11  C         18.9800  -22.1270   -9.8260 C.ar    1  UNL1       -0.0210
     12  C         19.7330  -21.8180  -10.9660 C.ar    1  UNL1       -0.0340
     13  C         21.1230  -22.0120  -10.9420 C.ar    1  UNL1        0.0370
     14  C         18.8420  -21.3590  -12.0890 C.3     1  UNL1        0.0400
     15  C         17.5610  -21.0050  -11.3260 C.3     1  UNL1        0.0090
     16  C         17.5200  -21.9210  -10.0960 C.3     1  UNL1        0.0420
     17  N         25.8250  -22.3540  -11.8120 N.pl3   1  UNL1       -0.3720
     18  H         26.1190  -21.8280  -10.9950 H       1  UNL1        0.1610
     19  C         26.8530  -22.5650  -12.8280 C.3     1  UNL1        0.1510
     20  C         26.9400  -24.0470  -13.2640 C.3     1  UNL1        0.2900
     21  N         26.6720  -24.3650  -14.6780 N.3     1  UNL1        0.0810
     22  C         25.3290  -24.8940  -14.8940 C.3     1  UNL1        0.3090
     23  C         26.9370  -23.2310  -15.5590 C.3     1  UNL1        0.3090
     24  C         18.8780  -23.0050   -7.4760 C.2     1  UNL1       -0.0070
     25  C         18.7980  -22.1160   -6.3920 C.2     1  UNL1        0.0140
     26  C         18.1110  -22.4610   -5.2250 C.2     1  UNL1        0.0010
     27  C         17.4830  -23.7000   -5.1270 C.2     1  UNL1        0.0000
     28  C         17.5350  -24.5910   -6.1970 C.2     1  UNL1        0.0010
     29  C         18.2240  -24.2440   -7.3630 C.2     1  UNL1        0.0140
@<TRIPOS>BOND
     1    23    21    1
     2    22    21    1
     3    21    20    1
     4     3     2    1
     5     3     4    2
     6     2     1    2
     7    20    19    1
     8     4     5    1
     9    19    17    1
    10     1    17    1
    11     1     6    1
    12    14    15    1
    13    14    12    1
    14     5     6   ar
    15     5    13   ar
    16    17    18    1
    17     6     7   ar
    18    15    16    1
    19    12    13   ar
    20    12    11   ar
    21    13     8   ar
    22    16    11    1
    23    11    10   ar
    24     7     8   ar
    25     8     9   ar
    26    10     9   ar
    27    10    24    1
    28    24    29    2
    29    24    25    1
    30    29    28    1
    31    25    26    2
    32    28    27    2
    33    26    27    1
