@<TRIPOS>MOLECULE
84403_out_ligand_01.pdbqt
 33 38 0 0 0
SMALL
GASTEIGER

@<TRIPOS>ATOM
      1  C         19.5890  -22.6310   -8.8010 C.ar    1  UNL1        0.0750
      2  N         20.9100  -22.9310   -8.8050 N.ar    1  UNL1       -0.2390
      3  C         21.5910  -22.5780   -9.9160 C.ar    1  UNL1        0.1120
      4  S         23.2600  -22.8820  -10.0250 S.2     1  UNL1       -0.0640
      5  C         23.3570  -22.1900  -11.5960 C.ar    1  UNL1        0.0770
      6  C         24.4730  -22.0440  -12.4340 C.2     1  UNL1        0.1240
      7  N         24.2750  -21.4590  -13.6340 N.2     1  UNL1       -0.2290
      8  C         23.0430  -21.0480  -13.9640 C.2     1  UNL1        0.2350
      9  N         21.9300  -21.1490  -13.2340 N.2     1  UNL1       -0.2400
     10  C         22.1130  -21.7360  -12.0230 C.ar    1  UNL1        0.0920
     11  C         21.0810  -21.9620  -11.0510 C.ar    1  UNL1        0.0370
     12  C         19.7050  -21.6940  -11.0250 C.ar    1  UNL1       -0.0340
     13  C         18.9640  -22.0370   -9.8870 C.ar    1  UNL1       -0.0210
     14  C         17.5260  -21.6560  -10.0670 C.3     1  UNL1        0.0420
     15  C         17.4390  -21.4960  -11.5900 C.3     1  UNL1        0.0090
     16  C         18.8250  -21.0400  -12.0550 C.3     1  UNL1        0.0400
     17  N         25.7440  -22.4680  -12.0470 N.pl3   1  UNL1       -0.2760
     18  H         25.9580  -22.1800  -11.0970 H       1  UNL1        0.1290
     19  C         26.1240  -23.8410  -12.3600 C.3     1  UNL1        0.0960
     20  C         25.9110  -24.1780  -13.8350 C.3     1  UNL1        0.0450
     21  C         26.8750  -23.5090  -14.8260 C.3     1  UNL1        0.2730
     22  N         26.3430  -23.4620  -16.1980 N.3     1  UNL1        0.0920
     23  C         24.8960  -23.7780  -16.2130 C.3     1  UNL1        0.2980
     24  C         24.2290  -23.3080  -17.5140 C.3     1  UNL1        0.1980
     25  O         24.2560  -21.8830  -17.6670 O.3     1  UNL1       -0.3880
     26  C         25.3460  -21.2660  -16.9690 C.3     1  UNL1        0.1980
     27  C         26.5880  -22.1670  -16.8710 C.3     1  UNL1        0.2980
     28  C         18.8780  -23.0060   -7.5670 C.2     1  UNL1       -0.0070
     29  C         18.8030  -22.1080   -6.4890 C.2     1  UNL1        0.0140
     30  C         18.1370  -22.4460   -5.3080 C.2     1  UNL1        0.0010
     31  C         17.5260  -23.6930   -5.1880 C.2     1  UNL1        0.0000
     32  C         17.5740  -24.5930   -6.2490 C.2     1  UNL1        0.0010
     33  C         18.2410  -24.2510   -7.4280 C.2     1  UNL1        0.0140
@<TRIPOS>BOND
     1    25    24    1
     2    25    26    1
     3    24    23    1
     4    26    27    1
     5    27    22    1
     6    23    22    1
     7    22    21    1
     8    21    20    1
     9     8     7    2
    10     8     9    1
    11    20    19    1
    12     7     6    1
    13     9    10    2
    14     6    17    1
    15     6     5    2
    16    19    17    1
    17    16    15    1
    18    16    12    1
    19    17    18    1
    20    10     5   ar
    21    10    11   ar
    22     5     4   ar
    23    15    14    1
    24    11    12   ar
    25    11     3   ar
    26    12    13   ar
    27    14    13    1
    28     4     3   ar
    29     3     2   ar
    30    13     1   ar
    31     2     1   ar
    32     1    28    1
    33    28    33    2
    34    28    29    1
    35    33    32    1
    36    29    30    2
    37    32    31    2
    38    30    31    1
