@<TRIPOS>MOLECULE
84406_out_ligand_01.pdbqt
 33 38 0 0 0
SMALL
GASTEIGER

@<TRIPOS>ATOM
      1  C         23.5200  -21.3880  -13.0710 C.2     1  UNL1        0.1900
      2  N         24.6800  -21.7810  -12.5190 N.2     1  UNL1       -0.2090
      3  C         24.6850  -22.3190  -11.2830 C.3     1  UNL1        0.1260
      4  C         23.4570  -22.4430  -10.6270 C.ar    1  UNL1        0.0770
      5  S         23.1100  -23.0730   -9.0660 S.2     1  UNL1       -0.0640
      6  C         21.4460  -22.7690   -9.2340 C.ar    1  UNL1        0.1120
      7  N         20.5950  -23.0730   -8.2290 N.ar    1  UNL1       -0.2390
      8  C         19.2900  -22.7930   -8.4590 C.ar    1  UNL1        0.0750
      9  C         18.8490  -22.2260   -9.6450 C.ar    1  UNL1       -0.0210
     10  C         19.7670  -21.9160  -10.6580 C.ar    1  UNL1       -0.0340
     11  C         21.1260  -22.1980  -10.4590 C.ar    1  UNL1        0.0370
     12  C         22.2990  -22.0060  -11.2600 C.ar    1  UNL1        0.0930
     13  N         22.3150  -21.4660  -12.5030 N.pl3   1  UNL1       -0.2210
     14  C         19.0790  -21.2470  -11.8170 C.3     1  UNL1        0.0400
     15  C         17.6180  -21.6210  -11.5520 C.3     1  UNL1        0.0090
     16  C         17.4740  -21.7730  -10.0320 C.3     1  UNL1        0.0420
     17  N         25.8810  -22.7480  -10.7050 N.3     1  UNL1       -0.2720
     18  H         25.9370  -22.4910   -9.7240 H       1  UNL1        0.1290
     19  C         27.1010  -22.5000  -11.4550 C.3     1  UNL1        0.1340
     20  C         27.1200  -23.2900  -12.7340 C.2     1  UNL1       -0.0270
     21  C         27.1210  -22.6640  -13.9850 C.2     1  UNL1        0.0110
     22  C         27.1210  -23.4360  -15.1420 C.2     1  UNL1        0.0200
     23  C         27.1150  -24.8140  -15.0120 C.2     1  UNL1        0.1160
     24  N         27.1080  -25.4550  -13.8250 N.2     1  UNL1       -0.2730
     25  C         27.1040  -24.6810  -12.7150 C.2     1  UNL1        0.1240
     26  S         23.5610  -20.6710  -14.6990 S.3     1  UNL1       -0.0950
     27  C         25.1900  -19.8850  -14.6610 C.3     1  UNL1        0.0990
     28  C         18.3910  -23.1170   -7.3420 C.2     1  UNL1       -0.0070
     29  C         18.4630  -22.3950   -6.1390 C.2     1  UNL1        0.0140
     30  C         17.6150  -22.6900   -5.0690 C.2     1  UNL1        0.0010
     31  C         16.6820  -23.7180   -5.1830 C.2     1  UNL1        0.0000
     32  C         16.6050  -24.4580   -6.3610 C.2     1  UNL1        0.0010
     33  C         17.4560  -24.1620   -7.4300 C.2     1  UNL1        0.0140
@<TRIPOS>BOND
     1    22    23    2
     2    22    21    1
     3    23    24    1
     4    26    27    1
     5    26     1    1
     6    21    20    2
     7    24    25    2
     8     1     2    2
     9     1    13    1
    10    20    25    1
    11    20    19    1
    12     2     3    1
    13    13    12    1
    14    14    15    1
    15    14    10    1
    16    15    16    1
    17    19    17    1
    18     3    17    1
    19     3     4    1
    20    12     4   ar
    21    12    11   ar
    22    17    18    1
    23    10    11   ar
    24    10     9   ar
    25     4     5   ar
    26    11     6   ar
    27    16     9    1
    28     9     8   ar
    29     6     5   ar
    30     6     7   ar
    31     8     7   ar
    32     8    28    1
    33    33    28    2
    34    33    32    1
    35    28    29    1
    36    32    31    2
    37    29    30    2
    38    31    30    1
