@<TRIPOS>MOLECULE
84428_out_ligand_01.pdbqt
 28 31 0 0 0
SMALL
GASTEIGER

@<TRIPOS>ATOM
      1  C         21.3540  -22.5560  -10.1740 C.2     1  UNL1        0.0320
      2  C         20.4400  -22.3040  -11.2070 C.2     1  UNL1        0.0180
      3  C         19.0770  -22.1950  -10.9210 C.2     1  UNL1        0.0190
      4  C         18.6160  -22.3580   -9.6070 C.2     1  UNL1        0.0450
      5  C         19.5210  -22.6390   -8.5760 C.2     1  UNL1       -0.0380
      6  C         20.8900  -22.7310   -8.8610 C.2     1  UNL1        0.0250
      7  C         19.0010  -22.7950   -7.1760 C.3     1  UNL1        0.0770
      8  C         17.5920  -23.3890   -7.2480 C.3     1  UNL1        0.1690
      9  O         16.7570  -22.5400   -8.0710 O.3     1  UNL1       -0.3070
     10  C         17.1670  -22.1960   -9.3170 C.2     1  UNL1        0.2940
     11  O         16.4000  -21.7460  -10.1570 O.2     1  UNL1       -0.2590
     12  C         22.8160  -22.6790  -10.4290 C.2     1  UNL1        0.2560
     13  O         23.5520  -22.8780   -9.4710 O.2     1  UNL1       -0.2670
     14  N         23.1970  -22.5110  -11.7480 N.am    1  UNL1       -0.3230
     15  H         22.4820  -22.2180  -12.4010 H       1  UNL1        0.1690
     16  C         24.5020  -22.6110  -12.2790 C.2     1  UNL1        0.0370
     17  C         25.3210  -21.4770  -12.1770 C.2     1  UNL1        0.0290
     18  C         26.6250  -21.4860  -12.6810 C.2     1  UNL1        0.0050
     19  C         27.1210  -22.6320  -13.2940 C.2     1  UNL1        0.0420
     20  C         26.3060  -23.7540  -13.3980 C.2     1  UNL1        0.1180
     21  F         26.7850  -24.8550  -13.9930 F       1  UNL1       -0.2060
     22  C         25.0070  -23.7550  -12.8990 C.2     1  UNL1        0.0710
     23  C         16.8790  -23.5800   -5.9180 C.2     1  UNL1       -0.0290
     24  C         15.4980  -23.7950   -5.8010 C.2     1  UNL1        0.0100
     25  C         14.8990  -23.9420   -4.5460 C.2     1  UNL1        0.0010
     26  C         15.6690  -23.8750   -3.3880 C.2     1  UNL1        0.0000
     27  C         17.0410  -23.6600   -3.4830 C.2     1  UNL1        0.0010
     28  C         17.6390  -23.5120   -4.7350 C.2     1  UNL1        0.0100
@<TRIPOS>BOND
     1    21    20    1
     2    20    19    2
     3    20    22    1
     4    19    18    1
     5    22    16    2
     6    18    17    2
     7    15    14    1
     8    16    17    1
     9    16    14    1
    10    14    12   am
    11     2     3    1
    12     2     1    2
    13     3     4    2
    14    12     1    1
    15    12    13    2
    16     1     6    1
    17    11    10    2
    18     4    10    1
    19     4     5    1
    20    10     9    1
    21     6     5    2
    22     5     7    1
    23     9     8    1
    24     8     7    1
    25     8    23    1
    26    23    24    2
    27    23    28    1
    28    24    25    1
    29    28    27    2
    30    25    26    2
    31    27    26    1
