@<TRIPOS>MOLECULE
84427_out_ligand_01.pdbqt
 30 33 0 0 0
SMALL
GASTEIGER

@<TRIPOS>ATOM
      1  C         21.3540  -22.6940  -10.1340 C.2     1  UNL1        0.0320
      2  C         20.4190  -22.4190  -11.1410 C.2     1  UNL1        0.0180
      3  C         19.0670  -22.2770  -10.8160 C.2     1  UNL1        0.0190
      4  C         18.6400  -22.4270   -9.4910 C.2     1  UNL1        0.0450
      5  C         19.5660  -22.7320   -8.4860 C.2     1  UNL1       -0.0380
      6  C         20.9230  -22.8580   -8.8090 C.2     1  UNL1        0.0250
      7  C         19.0820  -22.8760   -7.0710 C.3     1  UNL1        0.0770
      8  C         17.6560  -23.4330   -7.1020 C.3     1  UNL1        0.1690
      9  O         16.8210  -22.5630   -7.9010 O.3     1  UNL1       -0.3070
     10  C         17.2040  -22.2300   -9.1590 C.2     1  UNL1        0.2940
     11  O         16.4260  -21.7600   -9.9770 O.2     1  UNL1       -0.2590
     12  C         22.8070  -22.8510  -10.4300 C.2     1  UNL1        0.2560
     13  O         23.5310  -23.2890   -9.5460 O.2     1  UNL1       -0.2670
     14  N         23.1990  -22.4360  -11.6900 N.am    1  UNL1       -0.3230
     15  H         22.5060  -21.9550  -12.2500 H       1  UNL1        0.1690
     16  C         24.4940  -22.5090  -12.2470 C.2     1  UNL1        0.0370
     17  C         25.3760  -21.4610  -11.9410 C.2     1  UNL1        0.0290
     18  C         26.6780  -21.4440  -12.4470 C.2     1  UNL1        0.0050
     19  C         27.1170  -22.4770  -13.2720 C.2     1  UNL1        0.0360
     20  C         26.2380  -23.5210  -13.5890 C.2     1  UNL1        0.1050
     21  C         24.9290  -23.5420  -13.0810 C.2     1  UNL1        0.0650
     22  N         26.6960  -24.6060  -14.4660 N.pl3   1  UNL1       -0.1160
     23  O         26.6380  -24.4290  -15.6890 O.2     1  UNL1       -0.5320
     24  O         27.1210  -25.6380  -13.9260 O.2     1  UNL1       -0.5320
     25  C         16.9780  -23.6070   -5.7530 C.2     1  UNL1       -0.0290
     26  C         15.6040  -23.8440   -5.6000 C.2     1  UNL1        0.0100
     27  C         15.0360  -23.9750   -4.3280 C.2     1  UNL1        0.0010
     28  C         15.8310  -23.8670   -3.1900 C.2     1  UNL1        0.0000
     29  C         17.1950  -23.6300   -3.3200 C.2     1  UNL1        0.0010
     30  C         17.7620  -23.4990   -4.5890 C.2     1  UNL1        0.0100
@<TRIPOS>BOND
     1    23    22    2
     2    22    24    2
     3    22    20    1
     4    20    19    2
     5    20    21    1
     6    19    18    1
     7    21    16    2
     8    18    17    2
     9    15    14    1
    10    16    17    1
    11    16    14    1
    12    14    12   am
    13     2     3    1
    14     2     1    2
    15     3     4    2
    16    12     1    1
    17    12    13    2
    18     1     6    1
    19    11    10    2
    20     4    10    1
    21     4     5    1
    22    10     9    1
    23     6     5    2
    24     5     7    1
    25     9     8    1
    26     8     7    1
    27     8    25    1
    28    25    26    2
    29    25    30    1
    30    26    27    1
    31    30    29    2
    32    27    28    2
    33    29    28    1
