@<TRIPOS>MOLECULE
84432_out_ligand_01.pdbqt
 29 32 0 0 0
SMALL
GASTEIGER

@<TRIPOS>ATOM
      1  C         20.3180  -21.9390  -10.6440 C.2     1  UNL1        0.0320
      2  C         19.2750  -21.9820  -11.5770 C.2     1  UNL1        0.0180
      3  C         17.9610  -22.1920  -11.1460 C.2     1  UNL1        0.0190
      4  C         17.6880  -22.3790   -9.7840 C.2     1  UNL1        0.0450
      5  C         18.7320  -22.3630   -8.8500 C.2     1  UNL1       -0.0380
      6  C         20.0450  -22.1370   -9.2820 C.2     1  UNL1        0.0250
      7  C         18.4080  -22.5510   -7.3970 C.3     1  UNL1        0.0770
      8  C         17.1990  -23.4790   -7.2970 C.3     1  UNL1        0.1690
      9  O         16.0910  -22.9450   -8.0530 O.3     1  UNL1       -0.3070
     10  C         16.2800  -22.5620   -9.3400 C.2     1  UNL1        0.2940
     11  O         15.3460  -22.3450  -10.1010 O.2     1  UNL1       -0.2590
     12  C         21.7330  -21.7200  -11.0580 C.2     1  UNL1        0.2560
     13  N         21.9850  -21.9240  -12.4010 N.am    1  UNL1       -0.3230
     14  H         21.1880  -22.0960  -13.0000 H       1  UNL1        0.1690
     15  O         22.5300  -21.3530  -10.2020 O.2     1  UNL1       -0.2670
     16  C         23.2290  -21.8310  -13.0630 C.2     1  UNL1        0.0350
     17  C         23.5210  -20.8850  -14.0400 C.2     1  UNL1        0.0300
     18  C         24.7830  -20.8580  -14.6440 C.2     1  UNL1        0.0090
     19  C         25.7790  -21.7740  -14.2810 C.2     1  UNL1       -0.0560
     20  C         27.1210  -21.7110  -14.9540 C.3     1  UNL1        0.0490
     21  C         25.4960  -22.7330  -13.2910 C.2     1  UNL1       -0.0540
     22  C         24.2220  -22.7480  -12.6930 C.2     1  UNL1        0.0370
     23  C         26.5250  -23.7410  -12.8600 C.3     1  UNL1        0.0490
     24  C         16.7850  -23.6700   -5.8510 C.2     1  UNL1       -0.0290
     25  C         15.4340  -23.7280   -5.4760 C.2     1  UNL1        0.0100
     26  C         15.0730  -23.8740   -4.1350 C.2     1  UNL1        0.0010
     27  C         16.0570  -23.9590   -3.1530 C.2     1  UNL1        0.0000
     28  C         17.4020  -23.8970   -3.5090 C.2     1  UNL1        0.0010
     29  C         17.7650  -23.7520   -4.8500 C.2     1  UNL1        0.0100
@<TRIPOS>BOND
     1    20    19    1
     2    18    19    2
     3    18    17    1
     4    19    21    1
     5    17    16    2
     6    21    23    1
     7    21    22    2
     8    16    22    1
     9    16    13    1
    10    14    13    1
    11    13    12   am
    12     2     3    1
    13     2     1    2
    14     3     4    2
    15    12     1    1
    16    12    15    2
    17     1     6    1
    18    11    10    2
    19     4    10    1
    20     4     5    1
    21    10     9    1
    22     6     5    2
    23     5     7    1
    24     9     8    1
    25     7     8    1
    26     8    24    1
    27    24    25    2
    28    24    29    1
    29    25    26    1
    30    29    28    2
    31    26    27    2
    32    28    27    1
