@<TRIPOS>MOLECULE
84433_out_ligand_01.pdbqt
 29 32 0 0 0
SMALL
GASTEIGER

@<TRIPOS>ATOM
      1  C         21.3090  -22.4240  -10.0510 C.2     1  UNL1        0.0320
      2  C         20.4250  -22.2000  -11.1160 C.2     1  UNL1        0.0180
      3  C         19.0480  -22.1530  -10.8810 C.2     1  UNL1        0.0190
      4  C         18.5460  -22.3490   -9.5870 C.2     1  UNL1        0.0450
      5  C         19.4250  -22.6010   -8.5250 C.2     1  UNL1       -0.0380
      6  C         20.8050  -22.6310   -8.7600 C.2     1  UNL1        0.0250
      7  C         18.8600  -22.7910   -7.1470 C.3     1  UNL1        0.0770
      8  C         17.4890  -23.4520   -7.2850 C.3     1  UNL1        0.1690
      9  O         16.6320  -22.6590   -8.1350 O.3     1  UNL1       -0.3070
     10  C         17.0810  -22.2590   -9.3510 C.2     1  UNL1        0.2940
     11  O         16.3300  -21.8140  -10.2090 O.2     1  UNL1       -0.2590
     12  C         22.7850  -22.4830  -10.2540 C.2     1  UNL1        0.2560
     13  N         23.1960  -22.3990  -11.5720 N.am    1  UNL1       -0.3230
     14  H         22.4880  -22.2000  -12.2660 H       1  UNL1        0.1690
     15  O         23.4960  -22.5680   -9.2610 O.2     1  UNL1       -0.2670
     16  C         24.5180  -22.4680  -12.0610 C.2     1  UNL1        0.0370
     17  C         25.4780  -21.4770  -11.8590 C.2     1  UNL1        0.0290
     18  C         26.7680  -21.6300  -12.3750 C.2     1  UNL1        0.0050
     19  C         27.1120  -22.7740  -13.0950 C.2     1  UNL1        0.0370
     20  C         26.1640  -23.7730  -13.3020 C.2     1  UNL1        0.0700
     21  C         24.8750  -23.6140  -12.7830 C.2     1  UNL1        0.0660
     22  O         26.3640  -24.9420  -13.9850 O.2     1  UNL1       -0.3560
     23  C         25.4620  -25.2280  -15.0470 C.3     1  UNL1        0.2100
     24  C         16.8380  -23.6260   -5.9260 C.2     1  UNL1       -0.0290
     25  C         17.6150  -23.5210   -4.7620 C.2     1  UNL1        0.0100
     26  C         17.0280  -23.6480   -3.5010 C.2     1  UNL1        0.0010
     27  C         15.6580  -23.8770   -3.3890 C.2     1  UNL1        0.0000
     28  C         14.8750  -23.9800   -4.5350 C.2     1  UNL1        0.0010
     29  C         15.4590  -23.8530   -5.7970 C.2     1  UNL1        0.0100
@<TRIPOS>BOND
     1    23    22    1
     2    22    20    1
     3    20    19    2
     4    20    21    1
     5    19    18    1
     6    21    16    2
     7    18    17    2
     8    14    13    1
     9    16    17    1
    10    16    13    1
    11    13    12   am
    12     2     3    1
    13     2     1    2
    14     3     4    2
    15    12     1    1
    16    12    15    2
    17    11    10    2
    18     1     6    1
    19     4    10    1
    20     4     5    1
    21    10     9    1
    22     6     5    2
    23     5     7    1
    24     9     8    1
    25     8     7    1
    26     8    24    1
    27    24    29    2
    28    24    25    1
    29    29    28    1
    30    25    26    2
    31    28    27    2
    32    26    27    1
