@<TRIPOS>MOLECULE
84444_out_ligand_01.pdbqt
 27 31 0 0 0
SMALL
GASTEIGER

@<TRIPOS>ATOM
      1  C         24.4200  -21.7720  -12.3380 C.2     1  UNL1        0.1140
      2  N         24.1970  -21.3770  -13.6080 N.2     1  UNL1       -0.2340
      3  C         22.9320  -21.1640  -13.9830 C.2     1  UNL1        0.2350
      4  N         21.8310  -21.3080  -13.2440 N.2     1  UNL1       -0.2400
      5  C         22.0580  -21.7180  -11.9670 C.ar    1  UNL1        0.0910
      6  C         23.3400  -21.9670  -11.4790 C.ar    1  UNL1        0.0720
      7  S         23.2820  -22.4760   -9.8370 S.2     1  UNL1       -0.0640
      8  C         21.5890  -22.3630   -9.7790 C.ar    1  UNL1        0.1120
      9  N         20.9250  -22.6710   -8.6440 N.ar    1  UNL1       -0.2390
     10  C         19.5760  -22.5720   -8.7020 C.ar    1  UNL1        0.0750
     11  C         18.9160  -22.1390   -9.8410 C.ar    1  UNL1       -0.0210
     12  C         19.6410  -21.8200  -10.9970 C.ar    1  UNL1       -0.0340
     13  C         21.0380  -21.9420  -10.9830 C.ar    1  UNL1        0.0370
     14  C         18.7160  -21.4050  -12.1080 C.3     1  UNL1        0.0400
     15  C         17.4520  -21.0480  -11.3200 C.3     1  UNL1        0.0090
     16  C         17.4480  -21.9480  -10.0780 C.3     1  UNL1        0.0420
     17  C         18.8810  -22.9380   -7.4560 C.2     1  UNL1       -0.0070
     18  C         18.2860  -24.1990   -7.2830 C.2     1  UNL1        0.0140
     19  C         17.6270  -24.5300   -6.0960 C.2     1  UNL1        0.0010
     20  C         17.5580  -23.6070   -5.0550 C.2     1  UNL1        0.0000
     21  C         18.1530  -22.3570   -5.1980 C.2     1  UNL1        0.0010
     22  C         18.8110  -22.0290   -6.3860 C.2     1  UNL1        0.0140
     23  S         26.0950  -22.0670  -11.8460 S.3     1  UNL1       -0.1070
     24  C         26.3670  -20.5660  -10.8380 C.3     1  UNL1        0.1070
     25  C         26.7070  -19.3480  -11.6950 C.3     1  UNL1        0.1740
     26  O         26.6900  -18.1520  -10.9240 O.3     1  UNL1       -0.4000
     27  H         26.2770  -18.3690  -10.0700 H       1  UNL1        0.2090
@<TRIPOS>BOND
     1     3     2    1
     2     3     4    2
     3     2     1    2
     4     4     5    1
     5     1    23    1
     6     1     6    1
     7    14    15    1
     8    14    12    1
     9     5     6   ar
    10     5    13   ar
    11    23    24    1
    12    25    26    1
    13    25    24    1
    14     6     7   ar
    15    15    16    1
    16    12    13   ar
    17    12    11   ar
    18    13     8   ar
    19    26    27    1
    20    16    11    1
    21    11    10   ar
    22     7     8   ar
    23     8     9   ar
    24    10     9   ar
    25    10    17    1
    26    17    18    2
    27    17    22    1
    28    18    19    1
    29    22    21    2
    30    19    20    2
    31    21    20    1
