@<TRIPOS>MOLECULE
84446_out_ligand_01.pdbqt
 29 33 0 0 0
SMALL
GASTEIGER

@<TRIPOS>ATOM
      1  C         24.5700  -22.0640  -12.2290 C.2     1  UNL1        0.1440
      2  N         24.3770  -21.6020  -13.4820 N.2     1  UNL1       -0.2230
      3  C         23.1360  -21.2850  -13.8770 C.2     1  UNL1        0.2360
      4  N         22.0100  -21.3760  -13.1680 N.2     1  UNL1       -0.2400
      5  C         22.1870  -21.8420  -11.9030 C.ar    1  UNL1        0.0920
      6  C         23.4400  -22.1920  -11.4070 C.ar    1  UNL1        0.0820
      7  S         23.3300  -22.7500   -9.7850 S.2     1  UNL1       -0.0630
      8  C         21.6460  -22.5310   -9.7460 C.ar    1  UNL1        0.1120
      9  N         20.9460  -22.8460   -8.6340 N.ar    1  UNL1       -0.2390
     10  C         19.6110  -22.6330   -8.6980 C.ar    1  UNL1        0.0750
     11  C         18.9940  -22.1290   -9.8320 C.ar    1  UNL1       -0.0210
     12  C         19.7540  -21.8250  -10.9690 C.ar    1  UNL1       -0.0340
     13  C         21.1420  -22.0290  -10.9390 C.ar    1  UNL1        0.0370
     14  C         18.8710  -21.3610  -12.0950 C.3     1  UNL1        0.0400
     15  C         17.5900  -20.9970  -11.3390 C.3     1  UNL1        0.0090
     16  C         17.5370  -21.9110  -10.1070 C.3     1  UNL1        0.0420
     17  N         25.8490  -22.3850  -11.7780 N.pl3   1  UNL1       -0.3740
     18  H         25.8330  -23.0530  -11.0130 H       1  UNL1        0.1610
     19  C         26.8830  -22.6060  -12.7800 C.3     1  UNL1        0.1210
     20  C         26.9620  -24.0930  -13.1450 C.3     1  UNL1        0.0230
     21  C         26.7300  -24.4170  -14.6330 C.3     1  UNL1       -0.0210
     22  C         27.0470  -23.2280  -15.5400 C.3     1  UNL1        0.0090
     23  C         25.3190  -24.9390  -14.9060 C.3     1  UNL1        0.0090
     24  C         18.8760  -23.0030   -7.4810 C.2     1  UNL1       -0.0070
     25  C         18.7710  -22.0980   -6.4100 C.2     1  UNL1        0.0140
     26  C         18.0770  -22.4370   -5.2460 C.2     1  UNL1        0.0010
     27  C         17.4680  -23.6840   -5.1360 C.2     1  UNL1        0.0000
     28  C         17.5450  -24.5890   -6.1920 C.2     1  UNL1        0.0010
     29  C         18.2400  -24.2490   -7.3550 C.2     1  UNL1        0.0140
@<TRIPOS>BOND
     1    22    21    1
     2    23    21    1
     3    21    20    1
     4     3     2    1
     5     3     4    2
     6     2     1    2
     7     4     5    1
     8    20    19    1
     9    19    17    1
    10     1    17    1
    11     1     6    1
    12    14    15    1
    13    14    12    1
    14     5     6   ar
    15     5    13   ar
    16    17    18    1
    17     6     7   ar
    18    15    16    1
    19    12    13   ar
    20    12    11   ar
    21    13     8   ar
    22    16    11    1
    23    11    10   ar
    24     7     8   ar
    25     8     9   ar
    26    10     9   ar
    27    10    24    1
    28    24    29    2
    29    24    25    1
    30    29    28    1
    31    25    26    2
    32    28    27    2
    33    26    27    1
