@<TRIPOS>MOLECULE
84455_out_ligand_01.pdbqt
 28 32 0 0 0
SMALL
GASTEIGER

@<TRIPOS>ATOM
      1  C         24.3210  -22.4660  -12.0670 C.2     1  UNL1        0.1240
      2  N         24.1530  -21.9160  -13.2880 N.2     1  UNL1       -0.2290
      3  C         22.9510  -21.4280  -13.6180 C.2     1  UNL1        0.2350
      4  N         21.8440  -21.4230  -12.8730 N.2     1  UNL1       -0.2400
      5  C         21.9900  -21.9770  -11.6410 C.ar    1  UNL1        0.0920
      6  C         23.2080  -22.5000  -11.2130 C.ar    1  UNL1        0.0770
      7  S         23.0870  -23.1240   -9.6210 S.2     1  UNL1       -0.0640
      8  C         21.4480  -22.6970   -9.5020 C.ar    1  UNL1        0.1120
      9  N         20.7830  -22.9540   -8.3610 N.ar    1  UNL1       -0.2390
     10  C         19.4910  -22.5670   -8.3410 C.ar    1  UNL1        0.0750
     11  C         18.8420  -21.9840   -9.4350 C.ar    1  UNL1       -0.0210
     12  C         19.5780  -21.7240  -10.6190 C.ar    1  UNL1       -0.0340
     13  C         20.9480  -22.0940  -10.6470 C.ar    1  UNL1        0.0370
     14  C         18.8420  -21.0360  -11.7460 C.3     1  UNL1        0.0400
     15  C         17.4840  -21.6880  -11.9950 C.3     1  UNL1        0.0050
     16  C         16.6840  -21.9790  -10.7220 C.3     1  UNL1        0.0050
     17  C         17.3860  -21.5780   -9.4240 C.3     1  UNL1        0.0410
     18  C         18.8310  -22.8170   -7.0490 C.2     1  UNL1       -0.0070
     19  C         18.2080  -24.0490   -6.7930 C.2     1  UNL1        0.0140
     20  C         17.5790  -24.2940   -5.5690 C.2     1  UNL1        0.0010
     21  C         17.5730  -23.3130   -4.5800 C.2     1  UNL1        0.0000
     22  C         18.1990  -22.0900   -4.8090 C.2     1  UNL1        0.0010
     23  C         18.8280  -21.8450   -6.0330 C.2     1  UNL1        0.0140
     24  N         25.5660  -22.9620  -11.6780 N.pl3   1  UNL1       -0.2730
     25  H         25.7470  -23.8750  -12.0840 H       1  UNL1        0.1290
     26  C         26.6720  -22.0310  -11.7870 C.3     1  UNL1        0.1200
     27  C         26.3320  -20.7320  -11.1040 C.2     1  UNL1       -0.0220
     28  C         26.7020  -19.4920  -11.4580 C.2     1  UNL1        0.0080
@<TRIPOS>BOND
     1     3     2    1
     2     3     4    2
     3     2     1    2
     4     4     5    1
     5    25    24    1
     6     1    24    1
     7     1     6    1
     8    15    14    1
     9    15    16    1
    10    26    24    1
    11    26    27    1
    12    14    12    1
    13     5     6   ar
    14     5    13   ar
    15    28    27    2
    16     6     7   ar
    17    16    17    1
    18    13    12   ar
    19    13     8   ar
    20    12    11   ar
    21     7     8   ar
    22     8     9   ar
    23    11    17    1
    24    11    10   ar
    25     9    10   ar
    26    10    18    1
    27    18    19    2
    28    18    23    1
    29    19    20    1
    30    23    22    2
    31    20    21    2
    32    22    21    1
