@<TRIPOS>MOLECULE
84459_out_ligand_01.pdbqt
 31 34 0 0 0
SMALL
GASTEIGER

@<TRIPOS>ATOM
      1  C         21.1930  -22.1260  -10.1560 C.2     1  UNL1        0.0320
      2  C         20.2800  -21.9920  -11.2100 C.2     1  UNL1        0.0180
      3  C         18.9060  -22.0510  -10.9550 C.2     1  UNL1        0.0190
      4  C         18.4400  -22.2660   -9.6510 C.2     1  UNL1        0.0450
      5  C         19.3500  -22.4300   -8.5990 C.2     1  UNL1       -0.0380
      6  C         20.7260  -22.3540   -8.8540 C.2     1  UNL1        0.0250
      7  C         18.8240  -22.6480   -7.2120 C.3     1  UNL1        0.0770
      8  C         17.5030  -23.4120   -7.3180 C.3     1  UNL1        0.1690
      9  O         16.5750  -22.6980   -8.1630 O.3     1  UNL1       -0.3070
     10  C         16.9750  -22.2840   -9.3930 C.2     1  UNL1        0.2940
     11  O         16.1800  -21.9090  -10.2440 O.2     1  UNL1       -0.2590
     12  C         22.6660  -22.0670  -10.3790 C.2     1  UNL1        0.2560
     13  O         23.3040  -21.2240   -9.7600 O.2     1  UNL1       -0.2670
     14  N         23.1530  -22.9650  -11.3110 N.am    1  UNL1       -0.3230
     15  H         22.4730  -23.5060  -11.8270 H       1  UNL1        0.1690
     16  C         24.4990  -23.1470  -11.6970 C.2     1  UNL1        0.0350
     17  C         25.5930  -22.8070  -10.9010 C.2     1  UNL1        0.0290
     18  C         26.8960  -23.0240  -11.3540 C.2     1  UNL1        0.0030
     19  C         27.1210  -23.5840  -12.6100 C.2     1  UNL1        0.0160
     20  C         26.0390  -23.9310  -13.4280 C.2     1  UNL1        0.0500
     21  C         24.7310  -23.7150  -12.9560 C.2     1  UNL1        0.0450
     22  C         26.2680  -24.5610  -14.7780 C.3     1  UNL1        0.4170
     23  F         25.1180  -25.0130  -15.3540 F       1  UNL1       -0.1660
     24  F         27.0970  -25.6390  -14.7110 F       1  UNL1       -0.1660
     25  F         26.8270  -23.7110  -15.6830 F       1  UNL1       -0.1660
     26  C         16.8920  -23.6130   -5.9460 C.2     1  UNL1       -0.0290
     27  C         15.5130  -23.8050   -5.7770 C.2     1  UNL1        0.0100
     28  C         14.9630  -23.9470   -4.5020 C.2     1  UNL1        0.0010
     29  C         15.7840  -23.8970   -3.3790 C.2     1  UNL1        0.0000
     30  C         17.1560  -23.7070   -3.5300 C.2     1  UNL1        0.0010
     31  C         17.7080  -23.5650   -4.8040 C.2     1  UNL1        0.0100
@<TRIPOS>BOND
     1    25    22    1
     2    23    22    1
     3    22    24    1
     4    22    20    1
     5    20    21    1
     6    20    19    2
     7    21    16    2
     8    19    18    1
     9    15    14    1
    10    16    14    1
    11    16    17    1
    12    18    17    2
    13    14    12   am
    14     2     3    1
    15     2     1    2
    16     3     4    2
    17    12     1    1
    18    12    13    2
    19    11    10    2
    20     1     6    1
    21     4    10    1
    22     4     5    1
    23    10     9    1
    24     6     5    2
    25     5     7    1
    26     9     8    1
    27     8     7    1
    28     8    26    1
    29    26    27    2
    30    26    31    1
    31    27    28    1
    32    31    30    2
    33    28    29    2
    34    30    29    1
