@<TRIPOS>MOLECULE
84465_out_ligand_01.pdbqt
 34 38 0 0 0
SMALL
GASTEIGER

@<TRIPOS>ATOM
      1  C         20.8180  -22.0780  -10.2960 C.2     1  UNL1        0.0330
      2  C         19.8400  -22.0380  -11.2990 C.2     1  UNL1        0.0180
      3  C         18.4900  -22.1630  -10.9630 C.2     1  UNL1        0.0190
      4  C         18.1110  -22.3500   -9.6270 C.2     1  UNL1        0.0450
      5  C         19.0850  -22.4170   -8.6240 C.2     1  UNL1       -0.0380
      6  C         20.4370  -22.2740   -8.9610 C.2     1  UNL1        0.0250
      7  C         18.6490  -22.6020   -7.1990 C.3     1  UNL1        0.0770
      8  C         17.3770  -23.4480   -7.2000 C.3     1  UNL1        0.1690
      9  O         16.3610  -22.8300   -8.0200 O.3     1  UNL1       -0.3070
     10  C         16.6650  -22.4440   -9.2840 C.2     1  UNL1        0.2940
     11  O         15.8040  -22.1530  -10.1040 O.2     1  UNL1       -0.2590
     12  C         22.2710  -21.9460  -10.6040 C.2     1  UNL1        0.2570
     13  O         22.9660  -21.3230   -9.8120 O.2     1  UNL1       -0.2670
     14  N         22.6610  -22.5250  -11.7890 N.am    1  UNL1       -0.3010
     15  H         21.9920  -22.9220  -12.4280 H       1  UNL1        0.1710
     16  C         23.9590  -22.5060  -12.2200 C.2     1  UNL1        0.1730
     17  N         25.0420  -22.9420  -11.6350 N.2     1  UNL1       -0.2350
     18  C         26.1300  -22.7030  -12.4500 C.2     1  UNL1        0.1340
     19  C         25.8510  -22.0930  -13.6590 C.2     1  UNL1        0.0080
     20  S         24.1590  -21.8150  -13.7700 S.3     1  UNL1       -0.0550
     21  C         26.7860  -21.7060  -14.7580 C.3     1  UNL1        0.0860
     22  C         26.7860  -20.2180  -15.0360 C.2     1  UNL1       -0.0530
     23  C         27.1210  -19.3040  -14.0240 C.2     1  UNL1        0.0100
     24  C         27.1040  -17.9320  -14.2770 C.2     1  UNL1        0.0430
     25  C         26.7510  -17.4720  -15.5400 C.2     1  UNL1        0.1160
     26  F         26.7350  -16.1550  -15.7810 F       1  UNL1       -0.2060
     27  C         26.4110  -18.3580  -16.5540 C.2     1  UNL1        0.0430
     28  C         26.4250  -19.7310  -16.3040 C.2     1  UNL1        0.0100
     29  C         16.8520  -23.6280   -5.7890 C.2     1  UNL1       -0.0290
     30  C         17.7480  -23.6570   -4.7090 C.2     1  UNL1        0.0100
     31  C         17.2820  -23.7930   -3.4000 C.2     1  UNL1        0.0010
     32  C         15.9150  -23.8960   -3.1530 C.2     1  UNL1        0.0000
     33  C         15.0130  -23.8630   -4.2140 C.2     1  UNL1        0.0010
     34  C         15.4760  -23.7270   -5.5230 C.2     1  UNL1        0.0100
@<TRIPOS>BOND
     1    27    28    1
     2    27    25    2
     3    28    22    2
     4    26    25    1
     5    25    24    1
     6    22    21    1
     7    22    23    1
     8    21    19    1
     9    24    23    2
    10    20    19    1
    11    20    16    1
    12    19    18    2
    13    18    17    1
    14    15    14    1
    15    16    14    1
    16    16    17    2
    17    14    12   am
    18     2     3    1
    19     2     1    2
    20     3     4    2
    21    12     1    1
    22    12    13    2
    23     1     6    1
    24    11    10    2
    25     4    10    1
    26     4     5    1
    27    10     9    1
    28     6     5    2
    29     5     7    1
    30     9     8    1
    31     8     7    1
    32     8    29    1
    33    29    34    2
    34    29    30    1
    35    34    33    1
    36    30    31    2
    37    33    32    2
    38    31    32    1
