@<TRIPOS>MOLECULE
84462_out_ligand_01.pdbqt
 34 38 0 0 0
SMALL
GASTEIGER

@<TRIPOS>ATOM
      1  C         21.0430  -22.0860  -10.1530 C.2     1  UNL1        0.0330
      2  C         20.0900  -22.0290  -11.1780 C.2     1  UNL1        0.0180
      3  C         18.7310  -22.1540  -10.8740 C.2     1  UNL1        0.0190
      4  C         18.3190  -22.3550   -9.5510 C.2     1  UNL1        0.0450
      5  C         19.2690  -22.4400   -8.5250 C.2     1  UNL1       -0.0380
      6  C         20.6300  -22.2980   -8.8280 C.2     1  UNL1        0.0250
      7  C         18.7990  -22.6390   -7.1140 C.3     1  UNL1        0.0770
      8  C         17.5220  -23.4800   -7.1560 C.3     1  UNL1        0.1690
      9  O         16.5300  -22.8470   -7.9920 O.3     1  UNL1       -0.3070
     10  C         16.8660  -22.4460   -9.2440 C.2     1  UNL1        0.2940
     11  O         16.0260  -22.1450  -10.0800 O.2     1  UNL1       -0.2590
     12  C         22.5040  -21.9550  -10.4240 C.2     1  UNL1        0.2570
     13  N         22.9280  -22.5590  -11.5840 N.am    1  UNL1       -0.3010
     14  H         22.2770  -22.9700  -12.2320 H       1  UNL1        0.1710
     15  O         23.1740  -21.3100   -9.6270 O.2     1  UNL1       -0.2670
     16  C         24.2370  -22.5450  -11.9820 C.2     1  UNL1        0.1730
     17  N         25.3120  -22.9050  -11.3340 N.2     1  UNL1       -0.2350
     18  C         26.4160  -22.7060  -12.1390 C.2     1  UNL1        0.1340
     19  C         26.1560  -22.2060  -13.4010 C.2     1  UNL1        0.0080
     20  S         24.4610  -21.9830  -13.5790 S.3     1  UNL1       -0.0550
     21  C         27.1120  -21.8870  -14.5050 C.3     1  UNL1        0.0860
     22  C         26.9420  -20.4860  -15.0490 C.2     1  UNL1       -0.0530
     23  C         26.6300  -20.2780  -16.3990 C.2     1  UNL1        0.0080
     24  C         26.4890  -18.9830  -16.9030 C.2     1  UNL1        0.0070
     25  C         26.6490  -17.8730  -16.0670 C.2     1  UNL1       -0.0620
     26  C         26.5320  -16.4830  -16.6180 C.3     1  UNL1        0.0480
     27  C         26.9790  -18.0770  -14.7230 C.2     1  UNL1        0.0070
     28  C         27.1210  -19.3720  -14.2170 C.2     1  UNL1        0.0080
     29  C         16.9610  -23.6730   -5.7600 C.2     1  UNL1       -0.0290
     30  C         15.5890  -23.8650   -5.5420 C.2     1  UNL1        0.0100
     31  C         15.0880  -24.0130   -4.2470 C.2     1  UNL1        0.0010
     32  C         15.9530  -23.9650   -3.1540 C.2     1  UNL1        0.0000
     33  C         17.3160  -23.7700   -3.3560 C.2     1  UNL1        0.0010
     34  C         17.8190  -23.6220   -4.6500 C.2     1  UNL1        0.0100
@<TRIPOS>BOND
     1    24    23    1
     2    24    25    2
     3    26    25    1
     4    23    22    2
     5    25    27    1
     6    22    21    1
     7    22    28    1
     8    27    28    2
     9    21    19    1
    10    20    19    1
    11    20    16    1
    12    19    18    2
    13    14    13    1
    14    18    17    1
    15    16    13    1
    16    16    17    2
    17    13    12   am
    18     2     3    1
    19     2     1    2
    20     3     4    2
    21    12     1    1
    22    12    15    2
    23     1     6    1
    24    11    10    2
    25     4    10    1
    26     4     5    1
    27    10     9    1
    28     6     5    2
    29     5     7    1
    30     9     8    1
    31     8     7    1
    32     8    29    1
    33    29    30    2
    34    29    34    1
    35    30    31    1
    36    34    33    2
    37    31    32    2
    38    33    32    1
