@<TRIPOS>MOLECULE
84489_out_ligand_01.pdbqt
 31 35 0 0 0
SMALL
GASTEIGER

@<TRIPOS>ATOM
      1  C         23.8670  -22.5710  -10.2660 C.2     1  UNL1        0.1820
      2  N         23.7890  -21.3570   -9.7590 N.2     1  UNL1       -0.2350
      3  C         22.7270  -21.2440   -8.8850 C.2     1  UNL1        0.1340
      4  C         21.9840  -22.3910   -8.7090 C.2     1  UNL1        0.0080
      5  S         22.6360  -23.6290   -9.6930 S.3     1  UNL1       -0.0540
      6  N         24.8330  -22.9990  -11.1770 N.am    1  UNL1       -0.2370
      7  C         24.5770  -22.8490  -12.5350 C.2     1  UNL1        0.2460
      8  C         25.8020  -23.1780  -13.3730 C.3     1  UNL1        0.1520
      9  O         23.5340  -22.4940  -13.0800 O.2     1  UNL1       -0.2710
     10  S         26.9340  -24.0530  -12.2580 S.3     1  UNL1       -0.0770
     11  C         26.0170  -23.5960  -10.8580 C.3     1  UNL1        0.1710
     12  C         25.4230  -23.9890  -14.6170 C.3     1  UNL1        0.0630
     13  C         25.2120  -23.1450  -15.8520 C.2     1  UNL1       -0.0570
     14  C         24.4550  -23.6300  -16.9290 C.2     1  UNL1        0.0070
     15  C         24.2730  -22.8510  -18.0730 C.2     1  UNL1        0.0010
     16  C         24.8440  -21.5820  -18.1530 C.2     1  UNL1        0.0000
     17  C         25.5990  -21.0900  -17.0880 C.2     1  UNL1        0.0010
     18  C         25.7820  -21.8670  -15.9430 C.2     1  UNL1        0.0070
     19  N         26.5260  -23.8510   -9.7080 N.3     1  UNL1       -0.2770
     20  H         27.5470  -23.7620   -9.7960 H       1  UNL1        0.1890
     21  C         20.7750  -22.6240   -7.8510 C.3     1  UNL1        0.0870
     22  C         19.4510  -22.6430   -8.6070 C.2     1  UNL1       -0.0420
     23  C         19.3880  -22.0210   -9.8710 C.2     1  UNL1        0.0080
     24  C         18.2050  -21.9870  -10.6010 C.2     1  UNL1        0.0010
     25  C         17.0510  -22.5610  -10.0770 C.2     1  UNL1        0.0120
     26  C         17.0600  -23.1600   -8.8110 C.2     1  UNL1       -0.0250
     27  C         15.8720  -23.7140   -8.3040 C.2     1  UNL1        0.0120
     28  C         18.2580  -23.1980   -8.0450 C.2     1  UNL1       -0.0190
     29  C         15.8320  -24.2970   -7.0400 C.2     1  UNL1        0.0010
     30  C         16.9820  -24.3260   -6.2640 C.2     1  UNL1        0.0010
     31  C         18.1740  -23.7840   -6.7580 C.2     1  UNL1        0.0130
@<TRIPOS>BOND
     1    16    15    2
     2    16    17    1
     3    15    14    1
     4    17    18    2
     5    14    13    2
     6    18    13    1
     7    13    12    1
     8    12     8    1
     9     8     7    1
    10     8    10    1
    11     9     7    2
    12     7     6   am
    13    10    11    1
    14     6    11    1
    15     6     1    1
    16    11    19    1
    17    24    25    2
    18    24    23    1
    19     1     2    2
    20     1     5    1
    21    25    26    1
    22    23    22    2
    23    20    19    1
    24     2     3    1
    25     5     4    1
    26     3     4    2
    27    26    27    2
    28    26    28    1
    29     4    21    1
    30    22    28    1
    31    22    21    1
    32    27    29    1
    33    28    31    2
    34    29    30    2
    35    31    30    1
