@<TRIPOS>MOLECULE
84484_out_ligand_01.pdbqt
 32 35 0 0 0
SMALL
GASTEIGER

@<TRIPOS>ATOM
      1  C         25.1820  -22.7420  -13.0800 C.2     1  UNL1        0.0340
      2  C         26.2700  -21.9180  -12.7810 C.2     1  UNL1        0.0170
      3  C         26.2720  -21.1800  -11.5980 C.2     1  UNL1        0.0030
      4  C         25.1950  -21.2660  -10.7090 C.2     1  UNL1        0.0290
      5  C         24.1080  -22.0930  -10.9900 C.2     1  UNL1        0.0350
      6  C         24.1120  -22.8350  -12.1780 C.2     1  UNL1        0.0460
      7  N         22.9930  -22.2490  -10.1390 N.am    1  UNL1       -0.3230
      8  C         22.8010  -23.2260   -9.1780 C.2     1  UNL1        0.2560
      9  O         23.6000  -24.0900   -8.8390 O.2     1  UNL1       -0.2670
     10  H         22.2890  -21.5250  -10.2040 H       1  UNL1        0.1690
     11  C         21.4890  -23.1620   -8.4750 C.2     1  UNL1        0.0320
     12  C         21.1650  -22.1120   -7.6100 C.2     1  UNL1        0.0180
     13  C         19.9190  -22.0920   -6.9710 C.2     1  UNL1        0.0130
     14  C         18.9720  -23.1070   -7.1890 C.2     1  UNL1       -0.0260
     15  C         19.3080  -24.1440   -8.0760 C.2     1  UNL1        0.0130
     16  C         20.5500  -24.1700   -8.7170 C.2     1  UNL1        0.0180
     17  C         17.6630  -23.0790   -6.5180 C.2     1  UNL1       -0.0260
     18  C         16.5580  -22.4430   -7.1100 C.2     1  UNL1        0.0120
     19  C         15.3150  -22.4140   -6.4720 C.2     1  UNL1        0.0010
     20  C         15.1550  -23.0230   -5.2300 C.2     1  UNL1        0.0000
     21  C         16.2360  -23.6590   -4.6250 C.2     1  UNL1        0.0010
     22  C         17.4790  -23.6860   -5.2640 C.2     1  UNL1        0.0120
     23  C         25.1240  -23.5590  -14.3240 C.2     1  UNL1        0.2510
     24  O         25.3680  -24.7600  -14.2850 O.2     1  UNL1       -0.2680
     25  N         24.7500  -22.9000  -15.4780 N.am    1  UNL1       -0.3540
     26  H         24.2520  -22.0240  -15.3830 H       1  UNL1        0.1620
     27  C         24.4850  -23.6410  -16.7010 C.3     1  UNL1        0.1550
     28  C         24.9810  -22.8770  -17.9380 C.3     1  UNL1        0.1390
     29  C         26.3830  -22.3120  -17.7540 C.3     1  UNL1        0.0350
     30  C         26.1220  -20.9200  -17.2380 C.3     1  UNL1        0.0290
     31  C         24.8710  -20.5380  -17.9970 C.3     1  UNL1        0.1680
     32  O         24.1080  -21.7420  -18.1530 O.3     1  UNL1       -0.3840
@<TRIPOS>BOND
     1    32    31    1
     2    32    28    1
     3    31    30    1
     4    28    29    1
     5    28    27    1
     6    29    30    1
     7    27    25    1
     8    25    26    1
     9    25    23   am
    10    23    24    2
    11    23     1    1
    12     1     2    2
    13     1     6    1
    14     2     3    1
    15     6     5    2
    16     3     4    2
    17     5     4    1
    18     5     7    1
    19    10     7    1
    20     7     8   am
    21     8     9    2
    22     8    11    1
    23    16    11    2
    24    16    15    1
    25    11    12    1
    26    15    14    2
    27    12    13    2
    28    14    13    1
    29    14    17    1
    30    18    17    2
    31    18    19    1
    32    17    22    1
    33    19    20    2
    34    22    21    2
    35    20    21    1
