@<TRIPOS>MOLECULE
844_out_ligand_01.pdbqt
 43 46 0 0 0
SMALL
GASTEIGER

@<TRIPOS>ATOM
      1  N         21.2840  -21.8970  -10.9290 N.am    1  UNL1       -0.3230
      2  C         20.6310  -22.8300  -10.1400 C.2     1  UNL1        0.2560
      3  O         21.1420  -23.7520   -9.5170 O.2     1  UNL1       -0.2670
      4  H         20.7240  -21.1480  -11.3220 H       1  UNL1        0.1690
      5  C         22.6720  -21.8060  -11.1670 C.2     1  UNL1        0.0360
      6  C         23.1040  -21.9560  -12.4890 C.2     1  UNL1        0.0560
      7  C         24.4690  -21.8620  -12.8170 C.2     1  UNL1        0.0980
      8  C         25.4130  -21.6070  -11.8240 C.2     1  UNL1        0.0570
      9  C         24.9810  -21.4660  -10.5010 C.2     1  UNL1        0.0280
     10 CL         27.1100  -21.4730  -12.1020 Cl      1  UNL1       -0.0830
     11  C         23.6230  -21.5680  -10.1750 C.2     1  UNL1        0.0310
     12  S         24.9290  -22.0520  -14.5200 S.O2    1  UNL1        0.2470
     13  O         25.1980  -23.4590  -14.7450 O.2     1  UNL1       -0.2050
     14  O         23.9440  -21.3710  -15.3300 O.2     1  UNL1       -0.2050
     15  N         26.3840  -21.2010  -14.6460 N.pl3   1  UNL1       -0.1790
     16  H         27.1650  -21.8410  -14.8130 H       1  UNL1        0.1460
     17  C         26.4260  -20.0280  -15.4720 C.2     1  UNL1        0.0560
     18  C         26.2760  -18.7550  -14.9200 C.2     1  UNL1        0.0270
     19  C         26.3070  -17.6300  -15.7420 C.2     1  UNL1        0.0020
     20  C         26.4980  -17.7770  -17.1160 C.2     1  UNL1        0.0030
     21  C         26.6680  -19.0480  -17.6730 C.2     1  UNL1        0.0380
     22  C         26.6400  -20.1810  -16.8560 C.2     1  UNL1        0.0900
     23  O         26.8060  -21.4730  -17.2870 O.2     1  UNL1       -0.3540
     24  C         25.8080  -22.0030  -18.1530 C.3     1  UNL1        0.2100
     25  C         19.1570  -22.6410  -10.0290 C.2     1  UNL1        0.0330
     26  C         18.5120  -21.8770  -11.0020 C.2     1  UNL1        0.0170
     27  C         17.1290  -21.6940  -10.9520 C.2     1  UNL1        0.0090
     28  C         16.3560  -22.2580   -9.9210 C.2     1  UNL1       -0.0390
     29  C         14.8690  -22.0330   -9.9570 C.3     1  UNL1        0.0500
     30  C         17.0180  -23.0070   -8.9290 C.2     1  UNL1        0.0810
     31  C         18.4140  -23.1930   -8.9830 C.2     1  UNL1        0.0420
     32  S         16.1710  -23.8180   -7.5790 S.O2    1  UNL1        0.2460
     33  O         15.3010  -22.8950   -6.8880 O.2     1  UNL1       -0.2060
     34  O         15.6380  -25.0560   -8.1130 O.2     1  UNL1       -0.2060
     35  N         17.4420  -24.2770   -6.5580 N.pl3   1  UNL1       -0.1810
     36  H         17.3440  -25.2610   -6.3110 H       1  UNL1        0.1460
     37  C         17.7870  -23.3940   -5.4970 C.2     1  UNL1        0.0230
     38  C         17.4560  -23.7140   -4.1810 C.2     1  UNL1        0.0240
     39  C         17.7660  -22.8210   -3.1560 C.2     1  UNL1        0.0020
     40  C         18.3950  -21.6100   -3.4500 C.2     1  UNL1        0.0070
     41  C         18.7110  -21.2740   -4.7730 C.2     1  UNL1       -0.0600
     42  C         19.4130  -19.9830   -5.0830 C.3     1  UNL1        0.0480
     43  C         18.4100  -22.1820   -5.7960 C.2     1  UNL1        0.0310
@<TRIPOS>BOND
     1    24    23    1
     2    21    20    2
     3    21    22    1
     4    23    22    1
     5    20    19    1
     6    22    17    2
     7    19    18    2
     8    17    18    1
     9    17    15    1
    10    14    12    2
    11    16    15    1
    12    13    12    2
    13    15    12    1
    14    12     7    1
    15     7     6    1
    16     7     8    2
    17     6     5    2
    18    10     8    1
    19     8     9    1
    20     4     1    1
    21     5     1    1
    22     5    11    1
    23    26    27    1
    24    26    25    2
    25    27    28    2
    26     1     2   am
    27     9    11    2
    28     2    25    1
    29     2     3    2
    30    25    31    1
    31    29    28    1
    32    28    30    1
    33    31    30    2
    34    30    32    1
    35    34    32    2
    36    32    33    2
    37    32    35    1
    38    35    36    1
    39    35    37    1
    40    43    37    2
    41    43    41    1
    42    37    38    1
    43    42    41    1
    44    41    40    2
    45    38    39    2
    46    40    39    1
