@<TRIPOS>MOLECULE
84513_out_ligand_01.pdbqt
 33 36 0 0 0
SMALL
GASTEIGER

@<TRIPOS>ATOM
      1  N         19.8440  -22.9950   -9.3160 N.am    1  UNL1       -0.3260
      2  C         19.9820  -22.7940   -7.9490 C.2     1  UNL1        0.2350
      3  O         20.9320  -22.2260   -7.4090 O.2     1  UNL1       -0.2720
      4  H         18.9770  -23.4180   -9.6210 H       1  UNL1        0.1690
      5  C         20.7400  -22.6200  -10.3370 C.2     1  UNL1        0.0350
      6  C         20.2420  -21.7690  -11.3340 C.2     1  UNL1        0.0290
      7  C         21.0640  -21.3130  -12.3690 C.2     1  UNL1        0.0030
      8  C         22.3950  -21.7180  -12.4220 C.2     1  UNL1        0.0170
      9  C         22.8970  -22.5810  -11.4410 C.2     1  UNL1        0.0340
     10  C         22.0700  -23.0370  -10.4050 C.2     1  UNL1        0.0460
     11  C         24.3050  -23.0500  -11.4910 C.2     1  UNL1        0.2510
     12  O         25.0910  -22.7690  -10.5940 O.2     1  UNL1       -0.2680
     13  N         24.6480  -23.7730  -12.6140 N.am    1  UNL1       -0.3540
     14  H         24.0660  -23.6640  -13.4390 H       1  UNL1        0.1620
     15  C         26.0400  -24.0850  -12.8820 C.3     1  UNL1        0.1550
     16  C         26.3720  -23.8800  -14.3600 C.3     1  UNL1        0.1390
     17  C         26.2310  -22.4350  -14.8060 C.3     1  UNL1        0.0350
     18  C         25.8530  -22.5850  -16.2610 C.3     1  UNL1        0.0290
     19  C         24.9550  -23.8040  -16.2230 C.3     1  UNL1        0.1680
     20  O         25.4630  -24.6530  -15.1810 O.3     1  UNL1       -0.3840
     21  C         18.7820  -23.2750   -7.1010 C.3     1  UNL1        0.1440
     22  C         18.6230  -22.5260   -5.7770 C.2     1  UNL1       -0.0410
     23  C         18.9880  -21.1810   -5.6090 C.2     1  UNL1        0.0080
     24  C         18.8250  -20.5470   -4.3740 C.2     1  UNL1        0.0010
     25  C         18.2920  -21.2420   -3.2930 C.2     1  UNL1        0.0000
     26  C         17.9160  -22.5760   -3.4440 C.2     1  UNL1        0.0010
     27  C         18.0770  -23.2120   -4.6770 C.2     1  UNL1        0.0080
     28  C         17.4940  -23.4210   -7.9200 C.2     1  UNL1       -0.0410
     29  C         17.1110  -22.5000   -8.9120 C.2     1  UNL1        0.0080
     30  C         15.9360  -22.6930   -9.6460 C.2     1  UNL1        0.0010
     31  C         15.1330  -23.8100   -9.4080 C.2     1  UNL1        0.0000
     32  C         15.5030  -24.7360   -8.4340 C.2     1  UNL1        0.0010
     33  C         16.6740  -24.5440   -7.6960 C.2     1  UNL1        0.0080
@<TRIPOS>BOND
     1    18    19    1
     2    18    17    1
     3    19    20    1
     4    20    16    1
     5    17    16    1
     6    16    15    1
     7    14    13    1
     8    15    13    1
     9    13    11   am
    10     8     7    2
    11     8     9    1
    12     7     6    1
    13    11     9    1
    14    11    12    2
    15     9    10    2
    16     6     5    2
    17    10     5    1
    18     5     1    1
    19    30    31    2
    20    30    29    1
    21     4     1    1
    22    31    32    1
    23     1     2   am
    24    29    28    2
    25    32    33    2
    26     2     3    2
    27     2    21    1
    28    28    33    1
    29    28    21    1
    30    21    22    1
    31    22    23    2
    32    22    27    1
    33    23    24    1
    34    27    26    2
    35    24    25    2
    36    26    25    1
