@<TRIPOS>MOLECULE
84521_out_ligand_01.pdbqt
 32 35 0 0 0
SMALL
GASTEIGER

@<TRIPOS>ATOM
      1  C         22.1900  -22.8060  -10.9370 C.2     1  UNL1        0.0460
      2  C         22.7240  -23.5090   -9.8540 C.2     1  UNL1        0.0300
      3  C         21.9660  -23.7480   -8.7190 C.2     1  UNL1        0.0030
      4  C         20.6560  -23.2850   -8.6490 C.2     1  UNL1        0.0140
      5  C         20.0440  -22.5650   -9.7040 C.2     1  UNL1        0.0030
      6  C         18.6890  -22.0830   -9.6420 C.2     1  UNL1        0.0460
      7  C         18.1550  -21.3800  -10.7240 C.2     1  UNL1        0.0300
      8  C         18.9130  -21.1410  -11.8590 C.2     1  UNL1        0.0030
      9  C         20.2230  -21.6040  -11.9290 C.2     1  UNL1        0.0140
     10  C         20.8350  -22.3240  -10.8740 C.2     1  UNL1        0.0030
     11  N         22.9750  -22.5640  -12.1010 N.am    1  UNL1       -0.3220
     12  C         24.1440  -21.8310  -12.2240 C.2     1  UNL1        0.2590
     13  O         24.7260  -21.2420  -11.3190 O.2     1  UNL1       -0.2670
     14  H         22.6350  -22.9820  -12.9540 H       1  UNL1        0.1690
     15  C         24.7440  -21.7550  -13.5940 C.2     1  UNL1        0.0700
     16  C         25.9420  -22.4510  -13.8370 C.2     1  UNL1        0.0200
     17  C         26.5460  -22.4170  -15.0980 C.2     1  UNL1        0.0010
     18  C         25.9630  -21.6870  -16.1320 C.2     1  UNL1        0.0030
     19  C         24.7760  -20.9930  -15.9050 C.2     1  UNL1        0.0430
     20  C         24.1780  -21.0300  -14.6460 C.2     1  UNL1        0.1320
     21  F         23.0350  -20.3460  -14.4770 F       1  UNL1       -0.2050
     22  N         17.9030  -22.3250   -8.4770 N.am    1  UNL1       -0.3220
     23  C         16.7200  -23.0340   -8.3590 C.2     1  UNL1        0.2590
     24  O         16.1220  -23.5990   -9.2700 O.2     1  UNL1       -0.2670
     25  H         18.2550  -21.9250   -7.6200 H       1  UNL1        0.1690
     26  C         16.1230  -23.1150   -6.9880 C.2     1  UNL1        0.0700
     27  C         15.0770  -22.2350   -6.6630 C.2     1  UNL1        0.0200
     28  C         14.4830  -22.2660   -5.3960 C.2     1  UNL1        0.0010
     29  C         14.9260  -23.1770   -4.4400 C.2     1  UNL1        0.0030
     30  C         15.9620  -24.0550   -4.7490 C.2     1  UNL1        0.0430
     31  C         16.5510  -24.0200   -6.0130 C.2     1  UNL1        0.1320
     32  F         17.5460  -24.8860   -6.2630 F       1  UNL1       -0.2050
@<TRIPOS>BOND
     1    18    19    2
     2    18    17    1
     3    19    20    1
     4    17    16    2
     5    20    21    1
     6    20    15    2
     7    16    15    1
     8    15    12    1
     9    14    11    1
    10    12    11   am
    11    12    13    2
    12    11     1    1
    13     9     8    2
    14     9    10    1
    15     8     7    1
    16     1    10    2
    17     1     2    1
    18    10     5    1
    19     7     6    2
    20     2     3    2
    21     5     6    1
    22     5     4    2
    23     6    22    1
    24    24    23    2
    25     3     4    1
    26    22    23   am
    27    22    25    1
    28    23    26    1
    29    26    27    2
    30    26    31    1
    31    27    28    1
    32    32    31    1
    33    31    30    2
    34    28    29    2
    35    30    29    1
