@<TRIPOS>MOLECULE
84619_out_ligand_01.pdbqt
 31 34 0 0 0
SMALL
GASTEIGER

@<TRIPOS>ATOM
      1  C         21.5730  -22.3160  -10.8740 C.2     1  UNL1        0.0320
      2  C         20.5750  -21.4430  -11.3260 C.2     1  UNL1        0.0170
      3  C         19.2490  -21.6320  -10.9260 C.2     1  UNL1        0.0100
      4  C         18.9000  -22.6870  -10.0690 C.2     1  UNL1       -0.0300
      5  C         19.9110  -23.5410   -9.6030 C.2     1  UNL1        0.0100
      6  C         21.2380  -23.3550   -9.9990 C.2     1  UNL1        0.0170
      7  C         23.0020  -22.1510  -11.2710 C.2     1  UNL1        0.2560
      8  O         23.7320  -21.4880  -10.5450 O.2     1  UNL1       -0.2670
      9  N         23.3620  -22.8150  -12.4270 N.am    1  UNL1       -0.3220
     10  H         22.6730  -23.4420  -12.8370 H       1  UNL1        0.1690
     11  C         24.6160  -22.8270  -13.0860 C.2     1  UNL1        0.0510
     12  C         25.5680  -23.8270  -12.8400 C.2     1  UNL1        0.0300
     13  C         26.8050  -23.8250  -13.4930 C.2     1  UNL1        0.0020
     14  C         27.1170  -22.8220  -14.4020 C.2     1  UNL1        0.0010
     15  C         26.1880  -21.8160  -14.6580 C.2     1  UNL1        0.0200
     16  C         24.9380  -21.8040  -14.0090 C.2     1  UNL1        0.0640
     17  C         24.0430  -20.6710  -14.3750 C.2     1  UNL1        0.1780
     18  O         22.8380  -20.7440  -14.5440 O.2     1  UNL1       -0.6460
     19  O         24.6650  -19.4830  -14.5200 O.3     1  UNL1       -0.7730
     20  H         24.0560  -18.8690  -14.0500 H       1  UNL1        0.1670
     21  C         17.4630  -22.8910   -9.6340 C.3     1  UNL1        0.3110
     22  N         17.1930  -22.8660   -8.1930 N.3     1  UNL1        0.0970
     23  C         16.8350  -24.1670   -7.6240 C.3     1  UNL1        0.2770
     24  C         16.2160  -23.9850   -6.2310 C.3     1  UNL1        0.0690
     25  C         17.0230  -23.0670   -5.3480 C.2     1  UNL1       -0.0490
     26  C         16.7920  -23.0340   -3.9670 C.2     1  UNL1        0.0070
     27  C         17.9680  -22.1970   -5.9200 C.2     1  UNL1       -0.0240
     28  C         17.5130  -22.1610   -3.1540 C.2     1  UNL1        0.0010
     29  C         18.4640  -21.3110   -3.7140 C.2     1  UNL1        0.0010
     30  C         18.6930  -21.3290   -5.0890 C.2     1  UNL1        0.0090
     31  C         18.2620  -22.2360   -7.4070 C.3     1  UNL1        0.3110
@<TRIPOS>BOND
     1    15    14    2
     2    15    16    1
     3    18    17    2
     4    19    17    1
     5    19    20    1
     6    14    13    1
     7    17    16    1
     8    16    11    2
     9    13    12    2
    10    11    12    1
    11    11     9    1
    12    10     9    1
    13     9     7   am
    14     2     3    1
    15     2     1    2
    16     7     1    1
    17     7     8    2
    18     3     4    2
    19     1     6    1
    20     4    21    1
    21     4     5    1
    22     6     5    2
    23    21    22    1
    24    22    23    1
    25    22    31    1
    26    23    24    1
    27    31    27    1
    28    24    25    1
    29    27    25    2
    30    27    30    1
    31    25    26    1
    32    30    29    2
    33    26    28    2
    34    29    28    1
