@<TRIPOS>MOLECULE
84657_out_ligand_01.pdbqt
 31 34 0 0 0
SMALL
GASTEIGER

@<TRIPOS>ATOM
      1  C         19.1220  -22.3730  -11.2560 C.3     1  UNL1        0.1300
      2  C         17.9200  -21.5070  -10.7940 C.3     1  UNL1        0.0400
      3  C         17.3200  -22.2080   -9.5640 C.3     1  UNL1        0.1300
      4  N         18.3990  -23.0770   -9.1310 N.pl3   1  UNL1       -0.3460
      5  C         18.6210  -23.8370   -8.0250 C.2     1  UNL1        0.0860
      6  C         19.8600  -24.4400   -8.2550 C.2     1  UNL1        0.0360
      7  C         20.3400  -24.0520   -9.5410 C.2     1  UNL1        0.0280
      8  C         19.4010  -23.1960  -10.0450 C.2     1  UNL1        0.0250
      9  C         20.3100  -21.5120  -11.6900 C.2     1  UNL1        0.2320
     10  N         21.3930  -22.2270  -12.1770 N.am    1  UNL1       -0.3270
     11  H         21.2480  -23.2210  -12.3110 H       1  UNL1        0.1690
     12  O         20.2670  -20.2940  -11.5340 O.2     1  UNL1       -0.2720
     13  C         22.6430  -21.7280  -12.5930 C.2     1  UNL1        0.0340
     14  C         22.7020  -21.1370  -13.8610 C.2     1  UNL1        0.0300
     15  C         23.9050  -20.6170  -14.3500 C.2     1  UNL1        0.0190
     16  C         25.0670  -20.6770  -13.5740 C.2     1  UNL1        0.0320
     17  C         25.0160  -21.2830  -12.3160 C.2     1  UNL1        0.0190
     18  C         23.8090  -21.8020  -11.8280 C.2     1  UNL1        0.0300
     19  C         26.3220  -20.1090  -14.1380 C.2     1  UNL1        0.2490
     20  N         26.5370  -18.7680  -13.9780 N.am    1  UNL1       -0.3660
     21  H         25.7960  -18.1280  -13.7340 H       1  UNL1        0.1590
     22  H         27.3310  -18.3890  -14.4770 H       1  UNL1        0.1590
     23  O         27.1210  -20.8020  -14.7530 O.2     1  UNL1       -0.2680
     24  C         17.7160  -23.9050   -6.8900 C.2     1  UNL1        0.2080
     25  O         16.7240  -24.6320   -6.8780 O.2     1  UNL1       -0.2850
     26  C         17.9660  -23.0690   -5.6870 C.2     1  UNL1        0.0160
     27  C         17.5540  -23.4760   -4.4120 C.2     1  UNL1        0.0150
     28  C         17.7910  -22.6550   -3.3070 C.2     1  UNL1        0.0010
     29  C         18.4250  -21.4230   -3.4750 C.2     1  UNL1        0.0000
     30  C         18.8170  -21.0050   -4.7460 C.2     1  UNL1        0.0010
     31  C         18.5820  -21.8220   -5.8540 C.2     1  UNL1        0.0150
@<TRIPOS>BOND
     1    23    19    2
     2    22    20    1
     3    15    14    1
     4    15    16    2
     5    19    20   am
     6    19    16    1
     7    20    21    1
     8    14    13    2
     9    16    17    1
    10    13    10    1
    11    13    18    1
    12    17    18    2
    13    11    10    1
    14    10     9   am
    15     9    12    2
    16     9     1    1
    17     1     2    1
    18     1     8    1
    19     2     3    1
    20     8     7    2
    21     8     4    1
    22     3     4    1
    23     7     6    1
    24     4     5    1
    25     6     5    2
    26     5    24    1
    27    24    25    2
    28    24    26    1
    29    31    26    2
    30    31    30    1
    31    26    27    1
    32    30    29    2
    33    27    28    2
    34    29    28    1
