@<TRIPOS>MOLECULE
84659_out_ligand_01.pdbqt
 32 35 0 0 0
SMALL
GASTEIGER

@<TRIPOS>ATOM
      1  C         19.0140  -22.2980  -11.2190 C.3     1  UNL1        0.1300
      2  C         17.7760  -21.4850  -10.7520 C.3     1  UNL1        0.0400
      3  C         17.1900  -22.2540   -9.5590 C.3     1  UNL1        0.1300
      4  N         18.3390  -22.9970   -9.0710 N.pl3   1  UNL1       -0.3460
      5  C         18.6020  -23.7450   -7.9660 C.2     1  UNL1        0.0860
      6  C         19.8350  -24.3440   -8.2210 C.2     1  UNL1        0.0360
      7  C         20.3170  -23.9020   -9.4860 C.2     1  UNL1        0.0280
      8  C         19.3480  -23.0770   -9.9910 C.2     1  UNL1        0.0250
      9  C         20.1830  -21.4210  -11.6770 C.2     1  UNL1        0.2320
     10  N         21.2800  -22.1780  -12.0720 N.am    1  UNL1       -0.3270
     11  H         21.1940  -23.1800  -11.9460 H       1  UNL1        0.1690
     12  O         20.1080  -20.1970  -11.7110 O.2     1  UNL1       -0.2720
     13  C         22.5130  -21.7170  -12.5740 C.2     1  UNL1        0.0340
     14  C         23.7320  -21.8630  -11.9060 C.2     1  UNL1        0.0310
     15  C         24.9160  -21.3740  -12.4710 C.2     1  UNL1        0.0270
     16  C         24.8800  -20.7450  -13.7140 C.2     1  UNL1        0.0740
     17  C         23.6700  -20.5790  -14.3890 C.2     1  UNL1        0.0270
     18  C         22.4920  -21.0670  -13.8160 C.2     1  UNL1        0.0310
     19  S         26.3750  -20.1210  -14.4330 S.O2    1  UNL1        0.2390
     20  O         26.9580  -21.1570  -15.2530 O.2     1  UNL1       -0.2060
     21  O         27.1200  -19.4280  -13.4090 O.2     1  UNL1       -0.2060
     22  N         25.7770  -18.9700  -15.5060 N.3     1  UNL1       -0.2250
     23  H         25.3880  -19.3760  -16.3560 H       1  UNL1        0.1360
     24  H         26.5160  -18.2950  -15.7110 H       1  UNL1        0.1360
     25  C         17.7590  -23.9380   -6.8030 C.2     1  UNL1        0.2080
     26  O         16.8810  -24.7970   -6.7590 O.2     1  UNL1       -0.2850
     27  C         17.9650  -23.0920   -5.5970 C.2     1  UNL1        0.0160
     28  C         17.5840  -23.5350   -4.3230 C.2     1  UNL1        0.0150
     29  C         17.7840  -22.7130   -3.2120 C.2     1  UNL1        0.0010
     30  C         18.3530  -21.4500   -3.3710 C.2     1  UNL1        0.0000
     31  C         18.7140  -20.9980   -4.6410 C.2     1  UNL1        0.0010
     32  C         18.5170  -21.8150   -5.7540 C.2     1  UNL1        0.0150
@<TRIPOS>BOND
     1    23    22    1
     2    24    22    1
     3    22    19    1
     4    20    19    2
     5    19    16    1
     6    19    21    2
     7    17    18    1
     8    17    16    2
     9    18    13    2
    10    16    15    1
    11    13    10    1
    12    13    14    1
    13    15    14    2
    14    10    11    1
    15    10     9   am
    16    12     9    2
    17     9     1    1
    18     1     2    1
    19     1     8    1
    20     2     3    1
    21     8     7    2
    22     8     4    1
    23     3     4    1
    24     7     6    1
    25     4     5    1
    26     6     5    2
    27     5    25    1
    28    25    26    2
    29    25    27    1
    30    32    27    2
    31    32    31    1
    32    27    28    1
    33    31    30    2
    34    28    29    2
    35    30    29    1
