@<TRIPOS>MOLECULE
84706_out_ligand_01.pdbqt
 31 36 0 0 0
SMALL
GASTEIGER

@<TRIPOS>ATOM
      1  C         17.9270  -22.7380   -6.9320 C.ar    1  UNL1        0.0750
      2  N         19.2780  -22.6840   -6.8610 N.ar    1  UNL1       -0.2390
      3  C         19.9190  -22.4610   -8.0290 C.ar    1  UNL1        0.1120
      4  S         21.6160  -22.3720   -8.0660 S.2     1  UNL1       -0.0640
      5  C         21.6360  -22.0760   -9.7590 C.ar    1  UNL1        0.0770
      6  C         22.7300  -21.8750  -10.6130 C.2     1  UNL1        0.1240
      7  N         22.4710  -21.6630  -11.9210 N.2     1  UNL1       -0.2290
      8  C         21.1970  -21.6470  -12.3350 C.2     1  UNL1        0.2350
      9  N         20.1000  -21.8320  -11.5990 N.2     1  UNL1       -0.2400
     10  C         20.3450  -22.0510  -10.2800 C.ar    1  UNL1        0.0920
     11  C         19.3430  -22.2790   -9.2790 C.ar    1  UNL1        0.0370
     12  C         17.9420  -22.3390   -9.3130 C.ar    1  UNL1       -0.0340
     13  C         17.2400  -22.5750   -8.1240 C.ar    1  UNL1       -0.0210
     14  C         15.7630  -22.5210   -8.3740 C.3     1  UNL1        0.0420
     15  C         15.7010  -22.7180   -9.8950 C.3     1  UNL1        0.0090
     16  C         16.9940  -22.1270  -10.4620 C.3     1  UNL1        0.0400
     17  N         24.0420  -21.8720  -10.1460 N.pl3   1  UNL1       -0.2720
     18  H         24.1180  -22.2080   -9.1910 H       1  UNL1        0.1290
     19  C         25.0400  -22.3870  -11.0650 C.3     1  UNL1        0.1340
     20  C         25.7180  -21.2350  -11.7530 C.2     1  UNL1       -0.0270
     21  C         26.3800  -20.2340  -11.0350 C.2     1  UNL1        0.0110
     22  C         26.9800  -19.1790  -11.7190 C.2     1  UNL1        0.0200
     23  C         26.8930  -19.1570  -13.1010 C.2     1  UNL1        0.1160
     24  N         26.2550  -20.1000  -13.8270 N.2     1  UNL1       -0.2730
     25  C         25.6780  -21.1100  -13.1380 C.2     1  UNL1        0.1240
     26  C         17.2570  -22.9570   -5.6420 C.2     1  UNL1       -0.0070
     27  C         16.1310  -23.7890   -5.5290 C.2     1  UNL1        0.0140
     28  C         15.5040  -23.9890   -4.2960 C.2     1  UNL1        0.0010
     29  C         15.9970  -23.3640   -3.1540 C.2     1  UNL1        0.0000
     30  C         17.1230  -22.5460   -3.2410 C.2     1  UNL1        0.0010
     31  C         17.7480  -22.3490   -4.4740 C.2     1  UNL1        0.0140
@<TRIPOS>BOND
     1    24    25    1
     2    24    23    2
     3    25    20    2
     4    23    22    1
     5     8     7    2
     6     8     9    1
     7     7     6    1
     8    20    19    1
     9    20    21    1
    10    22    21    2
    11     9    10    2
    12    19    17    1
    13     6    17    1
    14     6     5    2
    15    16    15    1
    16    16    12    1
    17    10     5   ar
    18    10    11   ar
    19    17    18    1
    20    15    14    1
    21     5     4   ar
    22    12    11   ar
    23    12    13   ar
    24    11     3   ar
    25    14    13    1
    26    13     1   ar
    27     4     3   ar
    28     3     2   ar
    29     1     2   ar
    30     1    26    1
    31    26    27    2
    32    26    31    1
    33    27    28    1
    34    31    30    2
    35    28    29    2
    36    30    29    1
