@<TRIPOS>MOLECULE
84715_out_ligand_01.pdbqt
 37 39 0 0 0
SMALL
GASTEIGER

@<TRIPOS>ATOM
      1  N         21.6460  -23.0630  -10.2560 N.am    1  UNL1       -0.2620
      2  C         20.9450  -22.4040  -11.2450 C.2     1  UNL1        0.2700
      3  O         21.4480  -22.1210  -12.3290 O.2     1  UNL1       -0.2660
      4  H         21.3000  -23.2460   -9.3180 H       1  UNL1        0.1900
      5  N         23.0290  -23.2370  -10.4400 N.am    1  UNL1       -0.2490
      6  C         23.8160  -22.1250  -10.2360 C.2     1  UNL1        0.3350
      7  O         23.3990  -21.0980   -9.7070 O.2     1  UNL1       -0.2460
      8  N         25.1130  -22.3160  -10.6300 N.am    1  UNL1       -0.3380
      9  H         25.2850  -23.0290  -11.3220 H       1  UNL1        0.1640
     10  H         23.2650  -23.8810  -11.1910 H       1  UNL1        0.1920
     11  C         26.0560  -21.2260  -10.5530 C.3     1  UNL1        0.1620
     12  C         26.1820  -20.5330  -11.8840 C.2     1  UNL1       -0.0400
     13  C         26.9030  -19.3390  -12.0040 C.2     1  UNL1        0.0090
     14  C         27.0030  -18.6940  -13.2370 C.2     1  UNL1        0.0010
     15  C         26.3800  -19.2330  -14.3630 C.2     1  UNL1        0.0160
     16  C         25.6500  -20.4260  -14.2680 C.2     1  UNL1        0.0480
     17  C         25.5570  -21.0660  -13.0210 C.2     1  UNL1        0.0250
     18  C         24.9630  -21.0210  -15.4720 C.3     1  UNL1        0.4170
     19  F         25.5250  -22.1870  -15.9010 F       1  UNL1       -0.1660
     20  F         24.9790  -20.1840  -16.5460 F       1  UNL1       -0.1660
     21  F         23.6520  -21.3040  -15.2390 F       1  UNL1       -0.1660
     22  C         19.5270  -22.0680  -10.9470 C.2     1  UNL1        0.0340
     23  C         18.7770  -21.2120  -11.7660 C.2     1  UNL1        0.0170
     24  C         17.4450  -20.9320  -11.4530 C.2     1  UNL1        0.0020
     25  C         16.8560  -21.4990  -10.3210 C.2     1  UNL1        0.0170
     26  C         17.6020  -22.3530   -9.4990 C.2     1  UNL1        0.0330
     27  C         18.9300  -22.6540   -9.8230 C.2     1  UNL1        0.0340
     28  C         17.0030  -22.9870   -8.2910 C.2     1  UNL1        0.2560
     29  O         16.2920  -23.9700   -8.4490 O.2     1  UNL1       -0.2670
     30  N         17.3570  -22.3930   -7.0930 N.am    1  UNL1       -0.3230
     31  H         18.0590  -21.6670   -7.1280 H       1  UNL1        0.1690
     32  C         16.9160  -22.7470   -5.8000 C.2     1  UNL1        0.0350
     33  C         15.6080  -22.3900   -5.4500 C.2     1  UNL1        0.0290
     34  C         15.0940  -22.7080   -4.1890 C.2     1  UNL1        0.0020
     35  C         15.8840  -23.3880   -3.2680 C.2     1  UNL1        0.0000
     36  C         17.1840  -23.7500   -3.6090 C.2     1  UNL1        0.0020
     37  C         17.6990  -23.4320   -4.8700 C.2     1  UNL1        0.0290
@<TRIPOS>BOND
     1    20    18    1
     2    19    18    1
     3    18    21    1
     4    18    16    1
     5    15    16    2
     6    15    14    1
     7    16    17    1
     8    14    13    2
     9    17    12    2
    10     3     2    2
    11    13    12    1
    12    12    11    1
    13    23    24    1
    14    23    22    2
    15    24    25    2
    16     9     8    1
    17     2    22    1
    18     2     1   am
    19    10     5    1
    20    22    27    1
    21     8    11    1
    22     8     6   am
    23     5     1    1
    24     5     6   am
    25    25    26    1
    26     1     4    1
    27     6     7    2
    28    27    26    2
    29    26    28    1
    30    29    28    2
    31    28    30   am
    32    31    30    1
    33    30    32    1
    34    32    33    2
    35    32    37    1
    36    33    34    1
    37    37    36    2
    38    34    35    2
    39    36    35    1
