@<TRIPOS>MOLECULE
84728_out_ligand_01.pdbqt
 42 47 0 0 0
SMALL
GASTEIGER

@<TRIPOS>ATOM
      1  C         22.5250  -23.0400  -10.1150 C.2     1  UNL1        0.0340
      2  C         22.4280  -24.1380   -9.2490 C.2     1  UNL1        0.0170
      3  C         21.2410  -24.3730   -8.5570 C.2     1  UNL1        0.0030
      4  C         20.1480  -23.5230   -8.7420 C.2     1  UNL1        0.0300
      5  C         20.2330  -22.4440   -9.6260 C.2     1  UNL1        0.0430
      6  C         21.4230  -22.1960  -10.3070 C.2     1  UNL1        0.0470
      7  C         23.7700  -22.7680  -10.8820 C.2     1  UNL1        0.2560
      8  O         24.6930  -22.2110  -10.3010 O.2     1  UNL1       -0.2670
      9  N         23.7470  -23.2030  -12.1950 N.am    1  UNL1       -0.3230
     10  H         22.9350  -23.7300  -12.4900 H       1  UNL1        0.1690
     11  C         24.7660  -23.0640  -13.1620 C.2     1  UNL1        0.0370
     12  C         25.5620  -24.1130  -13.6090 C.2     1  UNL1        0.0290
     13  C         26.5420  -23.8770  -14.5690 C.2     1  UNL1        0.0040
     14  C         26.7380  -22.5920  -15.0860 C.2     1  UNL1        0.0300
     15  C         25.9640  -21.5060  -14.6540 C.2     1  UNL1        0.0480
     16  C         24.9760  -21.7760  -13.6880 C.2     1  UNL1        0.0590
     17  N         26.1640  -20.1870  -15.1750 N.am    1  UNL1       -0.2440
     18  C         25.8820  -19.7940  -16.4700 C.2     1  UNL1        0.2660
     19  O         25.4060  -20.3910  -17.4200 O.2     1  UNL1       -0.2670
     20  C         26.2390  -18.3850  -16.5830 C.2     1  UNL1        0.0480
     21  C         26.1620  -17.5250  -17.6630 C.2     1  UNL1        0.0180
     22  C         26.7000  -17.9700  -15.3550 C.2     1  UNL1        0.0480
     23  C         26.5780  -16.2050  -17.4640 C.2     1  UNL1        0.0010
     24  C         27.0540  -15.7820  -16.2060 C.2     1  UNL1        0.0010
     25  C         27.1180  -16.6710  -15.1310 C.2     1  UNL1        0.0180
     26  C         26.6420  -19.1110  -14.4500 C.2     1  UNL1        0.2660
     27  O         26.9810  -18.9910  -13.2880 O.2     1  UNL1       -0.2670
     28  N         19.0830  -21.6230   -9.7980 N.pl3   1  UNL1       -0.2810
     29  H         18.9510  -20.8360   -9.1660 H       1  UNL1        0.1790
     30  S         17.6100  -22.3000  -10.2690 S.O2    1  UNL1        0.2630
     31  O         16.8140  -21.1980  -10.7720 O.2     1  UNL1       -0.2000
     32  O         17.8550  -23.4750  -11.0750 O.2     1  UNL1       -0.2000
     33  C         16.8950  -22.8140   -8.7260 C.2     1  UNL1        0.0800
     34  C         15.9730  -23.8610   -8.7030 C.2     1  UNL1        0.0260
     35  C         15.4300  -24.2670   -7.4850 C.2     1  UNL1        0.0140
     36  C         15.7900  -23.6240   -6.2880 C.2     1  UNL1       -0.0260
     37  C         15.2530  -24.0240   -5.0550 C.2     1  UNL1        0.0120
     38  C         16.7070  -22.5480   -6.3220 C.2     1  UNL1       -0.0250
     39  C         15.6120  -23.3740   -3.8730 C.2     1  UNL1        0.0010
     40  C         16.5130  -22.3130   -3.9100 C.2     1  UNL1        0.0010
     41  C         17.0580  -21.9020   -5.1260 C.2     1  UNL1        0.0120
     42  C         17.2500  -22.1460   -7.5510 C.2     1  UNL1        0.0370
@<TRIPOS>BOND
     1    21    23    1
     2    21    20    2
     3    23    24    2
     4    19    18    2
     5    20    18    1
     6    20    22    1
     7    18    17   am
     8    24    25    1
     9    22    25    2
    10    22    26    1
    11    17    15    1
    12    17    26   am
    13    14    15    2
    14    14    13    1
    15    15    16    1
    16    13    12    2
    17    26    27    2
    18    16    11    2
    19    12    11    1
    20    11     9    1
    21    10     9    1
    22     9     7   am
    23    32    30    2
    24     7     8    2
    25     7     1    1
    26    31    30    2
    27     6     1    2
    28     6     5    1
    29    30    28    1
    30    30    33    1
    31     1     2    1
    32    28     5    1
    33    28    29    1
    34     5     4    2
    35     2     3    2
    36     4     3    1
    37    33    34    2
    38    33    42    1
    39    34    35    1
    40    42    38    2
    41    35    36    2
    42    38    36    1
    43    38    41    1
    44    36    37    1
    45    41    40    2
    46    37    39    2
    47    40    39    1
