@<TRIPOS>MOLECULE
84744_out_ligand_01.pdbqt
 40 44 0 0 0
SMALL
GASTEIGER

@<TRIPOS>ATOM
      1  N         19.8380  -22.6190   -7.1290 N.am    1  UNL1       -0.3230
      2  C         18.8420  -23.5780   -7.0810 C.2     1  UNL1        0.2560
      3  O         18.8470  -24.6690   -7.6320 O.2     1  UNL1       -0.2670
      4  H         19.7310  -21.8180   -6.5200 H       1  UNL1        0.1690
      5  C         21.0160  -22.6490   -7.9060 C.2     1  UNL1        0.0350
      6  C         21.3370  -23.8480   -8.5490 C.2     1  UNL1        0.0300
      7  C         22.5030  -23.9670   -9.3220 C.2     1  UNL1        0.0110
      8  C         23.3910  -22.8970   -9.4620 C.2     1  UNL1       -0.0410
      9  C         23.0500  -21.6940   -8.8160 C.2     1  UNL1        0.0110
     10  C         21.8830  -21.5700   -8.0500 C.2     1  UNL1        0.0300
     11  C         24.6830  -22.9060  -10.2630 C.3     1  UNL1        0.1550
     12  N         24.6860  -22.6830  -11.7110 N.3     1  UNL1       -0.4080
     13  C         23.9110  -21.5300  -12.1570 C.3     1  UNL1        0.1170
     14  C         23.7380  -21.5390  -13.6750 C.3     1  UNL1        0.0200
     15  C         25.0820  -21.6350  -14.3900 C.3     1  UNL1        0.0170
     16  C         25.8870  -22.8510  -13.9070 C.3     1  UNL1        0.0950
     17  C         25.9740  -22.8770  -12.3710 C.3     1  UNL1        0.1310
     18  C         25.3640  -24.1540  -14.5150 C.2     1  UNL1        0.2210
     19  N         25.0300  -24.1130  -15.8380 N.am    1  UNL1       -0.3700
     20  H         25.0320  -23.2730  -16.3970 H       1  UNL1        0.1590
     21  H         24.6310  -24.9550  -16.2300 H       1  UNL1        0.1590
     22  O         25.1430  -25.1770  -13.8750 O.2     1  UNL1       -0.2730
     23  C         17.6670  -23.1920   -6.2440 C.2     1  UNL1        0.0390
     24  C         17.9120  -22.4680   -5.0620 C.2     1  UNL1        0.0170
     25  C         16.8550  -22.0730   -4.2420 C.2     1  UNL1        0.0010
     26  C         15.5480  -22.3870   -4.6020 C.2     1  UNL1        0.0010
     27  C         15.2960  -23.0920   -5.7810 C.2     1  UNL1        0.0090
     28  C         16.3460  -23.5060   -6.6230 C.2     1  UNL1       -0.0330
     29  C         16.0060  -24.2690   -7.8810 C.3     1  UNL1        0.1220
     30  S         15.2070  -23.2510   -9.1540 S.3     1  UNL1       -0.0870
     31  C         16.5730  -22.5680   -9.9490 C.ar    1  UNL1        0.1670
     32  N         16.7040  -21.3360  -10.3810 N.ar    1  UNL1       -0.2230
     33  C         17.9770  -21.2830  -10.8980 C.ar    1  UNL1        0.0860
     34  C         18.6620  -20.2110  -11.4900 C.2     1  UNL1        0.0340
     35  C         18.6170  -22.5170  -10.7870 C.ar    1  UNL1        0.0630
     36  C         19.9700  -20.4190  -11.9440 C.2     1  UNL1        0.0020
     37  C         20.5830  -21.6720  -11.8260 C.2     1  UNL1        0.0020
     38  C         19.9170  -22.7540  -11.2380 C.2     1  UNL1        0.0320
     39  N         17.6930  -23.3150  -10.1600 N.ar    1  UNL1       -0.3330
     40  H         17.8120  -24.2830   -9.8990 H       1  UNL1        0.1680
@<TRIPOS>BOND
     1    20    19    1
     2    21    19    1
     3    19    18   am
     4    18    16    1
     5    18    22    2
     6    15    16    1
     7    15    14    1
     8    16    17    1
     9    14    13    1
    10    17    12    1
    11    13    12    1
    12    36    37    2
    13    36    34    1
    14    37    38    1
    15    12    11    1
    16    34    33    2
    17    38    35    2
    18    33    35   ar
    19    33    32   ar
    20    35    39   ar
    21    32    31   ar
    22    11     8    1
    23    39    31   ar
    24    39    40    1
    25    31    30    1
    26     8     7    2
    27     8     9    1
    28     7     6    1
    29    30    29    1
    30     9    10    2
    31     6     5    2
    32    10     5    1
    33     5     1    1
    34    29    28    1
    35     3     2    2
    36     1     2   am
    37     1     4    1
    38     2    23    1
    39    28    23    2
    40    28    27    1
    41    23    24    1
    42    27    26    2
    43    24    25    2
    44    26    25    1
