@<TRIPOS>MOLECULE
84771_out_ligand_01.pdbqt
 30 33 0 0 0
SMALL
GASTEIGER

@<TRIPOS>ATOM
      1  C         21.2240  -22.0970  -10.1380 C.2     1  UNL1        0.0320
      2  C         20.2670  -21.7850  -11.1110 C.2     1  UNL1        0.0180
      3  C         18.9040  -21.8960  -10.8160 C.2     1  UNL1        0.0190
      4  C         18.4870  -22.3010   -9.5410 C.2     1  UNL1        0.0450
      5  C         19.4390  -22.5880   -8.5540 C.2     1  UNL1       -0.0380
      6  C         20.8040  -22.4920   -8.8570 C.2     1  UNL1        0.0250
      7  C         18.9730  -23.0460   -7.2030 C.3     1  UNL1        0.0770
      8  C         17.6140  -22.4040   -6.9270 C.3     1  UNL1        0.1690
      9  O         16.6860  -22.7340   -7.9800 O.3     1  UNL1       -0.3070
     10  C         17.0330  -22.4580   -9.2630 C.2     1  UNL1        0.2940
     11  O         16.2040  -22.3620  -10.1600 O.2     1  UNL1       -0.2590
     12  C         22.6900  -22.0370  -10.4040 C.2     1  UNL1        0.2510
     13  O         23.4190  -21.3510   -9.6930 O.2     1  UNL1       -0.2680
     14  N         23.1690  -22.8190  -11.4300 N.am    1  UNL1       -0.3510
     15  H         22.5720  -23.4980  -11.8800 H       1  UNL1        0.1630
     16  C         24.5950  -22.9080  -11.6720 C.3     1  UNL1        0.1790
     17  C         24.8150  -23.1560  -13.1390 C.2     1  UNL1        0.0300
     18  C         24.6170  -22.2260  -14.0910 C.2     1  UNL1        0.0270
     19  C         24.8360  -22.5490  -15.4810 C.2     1  UNL1        0.0070
     20  C         25.2330  -23.7760  -15.8480 C.2     1  UNL1        0.0740
     21  C         25.4510  -24.8120  -14.8090 C.2     1  UNL1        0.2450
     22  O         25.7980  -25.9490  -15.1020 O.2     1  UNL1       -0.2680
     23  N         25.2280  -24.4200  -13.5130 N.am    1  UNL1       -0.3260
     24  H         25.4080  -25.1250  -12.8070 H       1  UNL1        0.1690
     25  C         17.0400  -22.8660   -5.6030 C.2     1  UNL1       -0.0290
     26  C         17.7820  -22.7700   -4.4130 C.2     1  UNL1        0.0100
     27  C         17.2330  -23.1770   -3.1970 C.2     1  UNL1        0.0010
     28  C         15.9370  -23.6900   -3.1530 C.2     1  UNL1        0.0000
     29  C         15.1890  -23.7930   -4.3260 C.2     1  UNL1        0.0010
     30  C         15.7370  -23.3840   -5.5440 C.2     1  UNL1        0.0100
@<TRIPOS>BOND
     1    20    19    2
     2    20    21    1
     3    19    18    1
     4    22    21    2
     5    21    23   am
     6    18    17    2
     7    23    17    1
     8    23    24    1
     9    17    16    1
    10    15    14    1
    11    16    14    1
    12    14    12   am
    13     2     3    1
    14     2     1    2
    15     3     4    2
    16    12     1    1
    17    12    13    2
    18    11    10    2
    19     1     6    1
    20     4    10    1
    21     4     5    1
    22    10     9    1
    23     6     5    2
    24     5     7    1
    25     9     8    1
    26     7     8    1
    27     8    25    1
    28    25    30    2
    29    25    26    1
    30    30    29    1
    31    26    27    2
    32    29    28    2
    33    27    28    1
