@<TRIPOS>MOLECULE
84770_out_ligand_01.pdbqt
 32 36 0 0 0
SMALL
GASTEIGER

@<TRIPOS>ATOM
      1  O         22.0440  -24.2940   -9.4090 O.2     1  UNL1       -0.2670
      2  C         21.3140  -23.3160   -9.3200 C.2     1  UNL1        0.2560
      3  N         21.3570  -22.1660  -10.0870 N.am    1  UNL1       -0.3230
      4  H         20.5930  -21.5120   -9.9780 H       1  UNL1        0.1690
      5  C         22.2940  -21.8460  -11.0920 C.2     1  UNL1        0.0350
      6  C         21.8120  -21.6960  -12.3950 C.2     1  UNL1        0.0320
      7  C         22.6780  -21.3840  -13.4510 C.2     1  UNL1        0.0320
      8  C         24.0460  -21.1990  -13.2310 C.2     1  UNL1        0.0430
      9  C         24.5270  -21.3410  -11.9210 C.2     1  UNL1       -0.0290
     10  N         24.9660  -20.8990  -14.2820 N.am    1  UNL1       -0.3170
     11  C         23.6560  -21.6700  -10.8650 C.2     1  UNL1        0.0390
     12  C         26.0010  -21.2310  -11.6550 C.3     1  UNL1        0.0500
     13  C         26.6090  -20.2000  -12.5760 C.3     1  UNL1        0.1080
     14  C         26.2790  -20.5010  -14.0170 C.2     1  UNL1        0.2240
     15  O         27.1210  -20.3050  -14.8950 O.2     1  UNL1       -0.2730
     16  C         24.5810  -21.0200  -15.6880 C.3     1  UNL1        0.1370
     17  C         25.0850  -22.3050  -16.2840 C.3     1  UNL1        0.0040
     18  C         24.1590  -23.4180  -16.7120 C.3     1  UNL1        0.0070
     19  C         24.9980  -23.5790  -15.4780 C.3     1  UNL1        0.0070
     20  C         20.2200  -23.3480   -8.3110 C.2     1  UNL1        0.0320
     21  C         20.0540  -22.2430   -7.4680 C.2     1  UNL1        0.0180
     22  C         19.0360  -22.2400   -6.5100 C.2     1  UNL1        0.0160
     23  C         18.1650  -23.3310   -6.3980 C.2     1  UNL1        0.0120
     24  C         18.3220  -24.4310   -7.2530 C.2     1  UNL1        0.0160
     25  C         19.3450  -24.4370   -8.2090 C.2     1  UNL1        0.0180
     26  C         17.1070  -23.2820   -5.3720 C.ar    1  UNL1        0.1700
     27  N         16.9730  -24.1290   -4.4060 N.ar    1  UNL1       -0.1040
     28  O         15.8310  -23.6810   -3.6710 O.2     1  UNL1       -0.1530
     29  C         15.3900  -22.5480   -4.3020 C.ar    1  UNL1        0.3900
     30  O         14.4410  -21.8610   -3.9580 O.2     1  UNL1       -0.2360
     31  N         16.1790  -22.3160   -5.3630 N.ar    1  UNL1       -0.2830
     32  H         16.0670  -21.5130   -5.9510 H       1  UNL1        0.1720
@<TRIPOS>BOND
     1    18    17    1
     2    18    19    1
     3    17    16    1
     4    17    19    1
     5    16    10    1
     6    15    14    2
     7    10    14   am
     8    10     8    1
     9    14    13    1
    10     7     8    2
    11     7     6    1
    12     8     9    1
    13    13    12    1
    14     6     5    2
    15     9    12    1
    16     9    11    2
    17     5    11    1
    18     5     3    1
    19     3     4    1
    20     3     2   am
    21     1     2    2
    22     2    20    1
    23    20    25    2
    24    20    21    1
    25    25    24    1
    26    21    22    2
    27    24    23    2
    28    22    23    1
    29    23    26    1
    30    32    31    1
    31    26    31   ar
    32    26    27   ar
    33    31    29   ar
    34    27    28   ar
    35    29    30    2
    36    29    28   ar
