@<TRIPOS>MOLECULE
84777_out_ligand_01.pdbqt
 33 36 0 0 0
SMALL
GASTEIGER

@<TRIPOS>ATOM
      1  C         23.3150  -22.7520  -11.2630 C.2     1  UNL1        0.2590
      2  O         22.5070  -22.0160  -11.8200 O.2     1  UNL1       -0.2670
      3  N         23.1090  -23.4290  -10.0750 N.am    1  UNL1       -0.3230
      4  H         23.8710  -24.0010   -9.7320 H       1  UNL1        0.1690
      5  C         21.9530  -23.4170   -9.2640 C.2     1  UNL1        0.0350
      6  C         21.0020  -24.4350   -9.2380 C.2     1  UNL1        0.0300
      7  C         19.8820  -24.3370   -8.4010 C.2     1  UNL1        0.0170
      8  C         19.6870  -23.2270   -7.5690 C.2     1  UNL1        0.0100
      9  C         20.6430  -22.2050   -7.6030 C.2     1  UNL1        0.0170
     10  C         21.7630  -22.3020   -8.4410 C.2     1  UNL1        0.0300
     11  C         18.4980  -23.1760   -6.7080 C.ar    1  UNL1        0.1390
     12  N         18.4000  -22.5170   -5.5650 N.ar    1  UNL1       -0.2280
     13  C         17.1280  -22.7340   -5.1010 C.ar    1  UNL1        0.0860
     14  C         16.5050  -22.2710   -3.9340 C.2     1  UNL1        0.0340
     15  C         16.4140  -23.5390   -5.9780 C.ar    1  UNL1        0.0620
     16  C         15.1750  -22.6390   -3.6910 C.2     1  UNL1        0.0020
     17  C         14.4820  -23.4510   -4.5930 C.2     1  UNL1        0.0020
     18  C         15.0890  -23.9220   -5.7640 C.2     1  UNL1        0.0320
     19  N         17.3030  -23.8010   -6.9870 N.ar    1  UNL1       -0.3380
     20  H         17.1040  -24.3490   -7.8080 H       1  UNL1        0.1670
     21  C         24.6470  -22.9390  -11.9190 C.2     1  UNL1        0.0720
     22  C         25.8250  -22.3550  -11.4420 C.2     1  UNL1        0.1320
     23  C         27.0470  -22.5500  -12.0910 C.2     1  UNL1        0.0450
     24  F         25.8200  -21.5890  -10.3410 F       1  UNL1       -0.2050
     25  C         27.1060  -23.3370  -13.2410 C.2     1  UNL1        0.0280
     26  C         25.9360  -23.9230  -13.7290 C.2     1  UNL1        0.0750
     27  C         24.7130  -23.7340  -13.0740 C.2     1  UNL1        0.0450
     28  S         25.9880  -24.9370  -15.1780 S.O2    1  UNL1        0.2390
     29  O         27.1210  -25.8240  -15.0780 O.2     1  UNL1       -0.2060
     30  O         25.7380  -24.1140  -16.3380 O.2     1  UNL1       -0.2060
     31  N         24.6150  -25.8840  -14.9910 N.3     1  UNL1       -0.2250
     32  H         23.8450  -25.3160  -14.6330 H       1  UNL1        0.1360
     33  H         24.8280  -26.6960  -14.4120 H       1  UNL1        0.1360
@<TRIPOS>BOND
     1    30    28    2
     2    28    29    2
     3    28    31    1
     4    28    26    1
     5    31    32    1
     6    31    33    1
     7    26    25    2
     8    26    27    1
     9    25    23    1
    10    27    21    2
    11    23    22    2
    12    21    22    1
    13    21     1    1
    14     2     1    2
    15    22    24    1
    16     1     3   am
    17     3     4    1
    18     3     5    1
    19     5     6    2
    20     5    10    1
    21     6     7    1
    22    10     9    2
    23     7     8    2
    24    20    19    1
    25     9     8    1
    26     8    11    1
    27    19    11   ar
    28    19    15   ar
    29    11    12   ar
    30    15    18    1
    31    15    13   ar
    32    18    17    2
    33    12    13   ar
    34    13    14    1
    35    17    16    1
    36    14    16    2
