@<TRIPOS>MOLECULE
84780_out_ligand_01.pdbqt
 27 29 0 0 0
SMALL
GASTEIGER

@<TRIPOS>ATOM
      1  N         16.3140  -22.3820   -9.0210 N.am    1  UNL1       -0.3530
      2  C         15.8010  -23.6390   -8.8740 C.2     1  UNL1        0.2410
      3  O         15.2720  -24.2890   -9.7680 O.2     1  UNL1       -0.2690
      4  H         16.8550  -21.9790   -8.2700 H       1  UNL1        0.1630
      5  C         15.9960  -24.2510   -7.5350 C.2     1  UNL1        0.0750
      6  C         17.1080  -24.2770   -6.7830 C.2     1  UNL1        0.0170
      7  C         18.4040  -23.6650   -7.0930 C.2     1  UNL1       -0.0350
      8  C         18.6980  -22.3940   -6.6000 C.2     1  UNL1        0.0140
      9  C         19.9290  -21.7950   -6.8900 C.2     1  UNL1        0.0330
     10  C         20.8840  -22.4290   -7.6730 C.2     1  UNL1        0.0660
     11  N         22.0530  -21.8130   -7.9170 N.2     1  UNL1       -0.2600
     12  C         20.5820  -23.7090   -8.1840 C.2     1  UNL1       -0.0070
     13  C         22.9600  -22.4570   -8.6860 C.2     1  UNL1        0.1170
     14  C         22.7560  -23.7100   -9.2340 C.2     1  UNL1        0.0200
     15  C         21.5460  -24.3440   -8.9770 C.2     1  UNL1        0.0150
     16  C         19.3440  -24.3130   -7.8980 C.2     1  UNL1        0.0250
     17  C         16.3400  -21.7010  -10.2940 C.3     1  UNL1        0.1610
     18  C         17.7440  -21.6480  -10.8350 C.2     1  UNL1       -0.0410
     19  C         18.3010  -20.4370  -11.2670 C.2     1  UNL1        0.0090
     20  C         19.6150  -20.3930  -11.7380 C.2     1  UNL1        0.0090
     21  C         20.3990  -21.5540  -11.7850 C.2     1  UNL1       -0.0310
     22  C         19.8450  -22.7600  -11.3390 C.2     1  UNL1        0.0090
     23  C         18.5310  -22.8070  -10.8670 C.2     1  UNL1        0.0090
     24  C         21.8180  -21.4950  -12.2870 C.3     1  UNL1        0.3050
     25  N         21.9010  -20.7780  -13.5550 N.3     1  UNL1        0.0820
     26  H         22.2930  -19.8550  -13.3900 H       1  UNL1        0.3130
     27  H         20.9560  -20.6350  -13.9090 H       1  UNL1        0.3130
@<TRIPOS>BOND
     1    27    25    1
     2    25    26    1
     3    25    24    1
     4    24    21    1
     5    21    20    2
     6    21    22    1
     7    20    19    1
     8    22    23    2
     9    19    18    2
    10    23    18    1
    11    18    17    1
    12    17     1    1
    13     3     2    2
    14    14    15    2
    15    14    13    1
    16     1     2   am
    17     1     4    1
    18    15    12    1
    19     2     5    1
    20    13    11    2
    21    12    16    1
    22    12    10    2
    23    11    10    1
    24    16     7    2
    25    10     9    1
    26     5     6    2
    27     7     6    1
    28     7     8    1
    29     9     8    2
