@<TRIPOS>MOLECULE
84799_out_ligand_01.pdbqt
 31 34 0 0 0
SMALL
GASTEIGER

@<TRIPOS>ATOM
      1  C         17.8660  -22.8950   -9.7130 C.2     1  UNL1        0.0800
      2  C         17.3810  -21.8850  -10.5450 C.2     1  UNL1        0.0370
      3  C         18.2740  -21.1620  -11.3340 C.2     1  UNL1        0.0040
      4  C         19.6410  -21.4550  -11.2910 C.2     1  UNL1        0.0170
      5  C         20.1140  -22.4760  -10.4510 C.2     1  UNL1        0.0350
      6  C         19.2190  -23.2160   -9.6740 C.2     1  UNL1        0.0540
      7  O         16.9760  -23.6550   -8.9550 O.3     1  UNL1       -0.2780
      8  C         17.2590  -23.6370   -7.5890 C.2     1  UNL1        0.2730
      9  O         17.9300  -24.4600   -6.9810 O.2     1  UNL1       -0.2640
     10  C         16.5910  -22.4170   -6.9670 C.3     1  UNL1        0.1300
     11  C         15.1120  -22.6930   -6.7140 C.3     1  UNL1        0.1220
     12  C         14.8750  -23.5080   -5.4630 C.2     1  UNL1        0.2230
     13  O         13.8910  -24.2330   -5.3310 O.2     1  UNL1       -0.2730
     14  N         15.7400  -23.3120   -4.4220 N.am    1  UNL1       -0.3270
     15  C         16.8720  -22.4980   -4.4770 C.2     1  UNL1        0.0420
     16  H         15.4880  -23.7780   -3.5590 H       1  UNL1        0.1690
     17  C         17.5710  -22.2130   -3.3060 C.2     1  UNL1        0.0300
     18  C         17.2990  -21.9870   -5.7050 C.2     1  UNL1       -0.0170
     19  C         18.6930  -21.3850   -3.3540 C.2     1  UNL1        0.0020
     20  C         19.1170  -20.8530   -4.5720 C.2     1  UNL1        0.0010
     21  C         18.4270  -21.1560   -5.7460 C.2     1  UNL1        0.0100
     22  C         21.5600  -22.8220  -10.3900 C.2     1  UNL1        0.2560
     23  O         21.9130  -23.6820   -9.5910 O.2     1  UNL1       -0.2670
     24  N         22.3650  -22.0880  -11.2400 N.am    1  UNL1       -0.3230
     25  H         21.9300  -21.3190  -11.7330 H       1  UNL1        0.1690
     26  C         23.7560  -22.2220  -11.4300 C.2     1  UNL1        0.0350
     27  C         24.7150  -21.4950  -10.7210 C.2     1  UNL1        0.0290
     28  C         26.0780  -21.6920  -10.9640 C.2     1  UNL1        0.0020
     29  C         26.4950  -22.6200  -11.9160 C.2     1  UNL1        0.0000
     30  C         25.5480  -23.3530  -12.6260 C.2     1  UNL1        0.0020
     31  C         24.1850  -23.1550  -12.3830 C.2     1  UNL1        0.0290
@<TRIPOS>BOND
     1    30    31    1
     2    30    29    2
     3    31    26    2
     4    29    28    1
     5    25    24    1
     6    26    24    1
     7    26    27    1
     8     3     4    2
     9     3     2    1
    10     4     5    1
    11    24    22   am
    12    28    27    2
    13     2     1    2
    14     5    22    1
    15     5     6    2
    16    22    23    2
    17     1     6    1
    18     1     7    1
    19     7     8    1
    20     8     9    2
    21     8    10    1
    22    10    11    1
    23    10    18    1
    24    11    12    1
    25    21    18    1
    26    21    20    2
    27    18    15    2
    28    12    13    2
    29    12    14   am
    30    20    19    1
    31    15    14    1
    32    15    17    1
    33    14    16    1
    34    19    17    2
