@<TRIPOS>MOLECULE
84794_out_ligand_01.pdbqt
 34 36 0 0 0
SMALL
GASTEIGER

@<TRIPOS>ATOM
      1  C         20.2310  -22.4280   -8.9440 C.3     1  UNL1        0.0860
      2  C         21.5490  -22.8560   -9.6080 C.2     1  UNL1        0.2270
      3  N         22.2330  -21.8250  -10.2300 N.am    1  UNL1       -0.3270
      4  H         21.8590  -20.8910  -10.1160 H       1  UNL1        0.1690
      5  O         21.9170  -24.0260   -9.5470 O.2     1  UNL1       -0.2730
      6  C         23.4150  -21.9170  -10.9930 C.2     1  UNL1        0.0350
      7  C         23.2820  -21.8120  -12.3850 C.2     1  UNL1        0.0490
      8  C         24.4010  -21.9080  -13.2290 C.2     1  UNL1        0.0720
      9  C         25.6590  -22.1090  -12.6610 C.2     1  UNL1        0.1320
     10  C         25.8030  -22.2160  -11.2800 C.2     1  UNL1        0.0450
     11  F         26.7610  -22.2020  -13.4200 F       1  UNL1       -0.2050
     12  C         24.6830  -22.1250  -10.4490 C.2     1  UNL1        0.0320
     13  C         24.1850  -21.7800  -14.6920 C.2     1  UNL1        0.2520
     14  N         23.6800  -20.6080  -15.1760 N.am    1  UNL1       -0.3660
     15  H         23.5060  -20.5380  -16.1690 H       1  UNL1        0.1590
     16  H         23.4050  -19.8360  -14.5810 H       1  UNL1        0.1590
     17  O         24.4540  -22.7020  -15.4540 O.2     1  UNL1       -0.2680
     18  C         19.9030  -23.3710   -7.7650 C.3     1  UNL1        0.0530
     19  C         19.2440  -22.6740   -6.5950 C.2     1  UNL1       -0.0570
     20  C         19.7050  -21.4280   -6.1520 C.2     1  UNL1        0.0070
     21  C         19.0900  -20.7880   -5.0760 C.2     1  UNL1        0.0010
     22  C         18.0090  -21.3890   -4.4300 C.2     1  UNL1        0.0160
     23  C         17.5260  -22.6320   -4.8600 C.2     1  UNL1        0.0480
     24  C         18.1560  -23.2680   -5.9430 C.2     1  UNL1        0.0230
     25  C         16.3810  -23.3030   -4.1420 C.3     1  UNL1        0.4170
     26  F         15.6110  -24.0710   -4.9630 F       1  UNL1       -0.1660
     27  F         15.5280  -22.4260   -3.5450 F       1  UNL1       -0.1660
     28  F         16.8150  -24.1340   -3.1530 F       1  UNL1       -0.1660
     29  C         19.0790  -22.3270   -9.9890 C.3     1  UNL1       -0.0010
     30  C         17.7010  -22.0990   -9.3410 C.3     1  UNL1        0.0050
     31  C         16.5660  -22.1270  -10.3690 C.3     1  UNL1        0.0000
     32  C         16.9800  -21.6510  -11.7590 C.3     1  UNL1        0.0000
     33  C         18.1040  -20.6300  -11.6870 C.3     1  UNL1        0.0000
     34  C         19.3570  -21.1980  -11.0130 C.3     1  UNL1        0.0050
@<TRIPOS>BOND
     1    15    14    1
     2    17    13    2
     3    14    13   am
     4    14    16    1
     5    13     8    1
     6    11     9    1
     7     8     9    2
     8     8     7    1
     9     9    10    1
    10     7     6    2
    11    32    33    1
    12    32    31    1
    13    33    34    1
    14    10    12    2
    15    34    29    1
    16     6    12    1
    17     6     3    1
    18    31    30    1
    19     3     4    1
    20     3     2   am
    21    29    30    1
    22    29     1    1
    23     2     5    2
    24     2     1    1
    25     1    18    1
    26    18    19    1
    27    19    20    2
    28    19    24    1
    29    20    21    1
    30    24    23    2
    31    21    22    2
    32    26    25    1
    33    23    22    1
    34    23    25    1
    35    25    27    1
    36    25    28    1
