@<TRIPOS>MOLECULE
84795_out_ligand_01.pdbqt
 27 29 0 0 0
SMALL
GASTEIGER

@<TRIPOS>ATOM
      1  N         17.2370  -23.1050  -10.1550 N.pl3   1  UNL1       -0.2880
      2  H         17.4140  -24.0880   -9.9630 H       1  UNL1        0.1280
      3  C         16.3570  -22.5280   -9.1460 C.3     1  UNL1        0.1310
      4  C         16.8930  -22.8690   -7.7750 C.2     1  UNL1       -0.0440
      5  C         16.7470  -24.1640   -7.2600 C.2     1  UNL1        0.0080
      6  C         17.2380  -24.4840   -5.9920 C.2     1  UNL1        0.0020
      7  C         17.8910  -23.5160   -5.2280 C.2     1  UNL1        0.0170
      8  C         18.0650  -22.2240   -5.7380 C.2     1  UNL1        0.0320
      9  C         17.5600  -21.9030   -7.0060 C.2     1  UNL1        0.0250
     10  C         18.7550  -21.1530   -4.9680 C.2     1  UNL1        0.2490
     11  N         18.4590  -21.0320   -3.6390 N.am    1  UNL1       -0.3660
     12  H         19.0310  -20.3790   -3.1190 H       1  UNL1        0.1590
     13  H         18.0050  -21.7670   -3.1170 H       1  UNL1        0.1590
     14  O         19.5880  -20.4230   -5.4910 O.2     1  UNL1       -0.2680
     15  C         18.4150  -22.4420  -10.5500 C.2     1  UNL1        0.0220
     16  C         18.3930  -21.3780  -11.4530 C.2     1  UNL1        0.0430
     17  C         19.5810  -20.7840  -11.8230 C.2     1  UNL1        0.1190
     18  N         20.7840  -21.1850  -11.3800 N.2     1  UNL1       -0.2580
     19  C         20.8500  -22.2460  -10.5490 C.2     1  UNL1        0.1010
     20  C         22.0730  -22.7300  -10.0880 C.2     1  UNL1        0.1320
     21  C         19.6860  -22.9280  -10.1150 C.2     1  UNL1        0.0160
     22  C         22.2230  -23.8410   -9.2490 C.2     1  UNL1        0.0380
     23  C         21.0870  -24.5190   -8.8470 C.2     1  UNL1        0.0030
     24  C         19.8380  -24.0680   -9.2770 C.2     1  UNL1        0.0160
     25  N         23.2740  -22.0510  -10.5010 N.pl3   1  UNL1       -0.1130
     26  O         23.7130  -21.1730   -9.7440 O.2     1  UNL1       -0.5320
     27  O         23.8230  -22.4590  -11.5350 O.2     1  UNL1       -0.5320
@<TRIPOS>BOND
     1    17    16    1
     2    17    18    2
     3    27    25    2
     4    16    15    2
     5    18    19    1
     6    15     1    1
     7    15    21    1
     8    19    21    2
     9    19    20    1
    10    25    20    1
    11    25    26    2
    12     1     2    1
    13     1     3    1
    14    21    24    1
    15    20    22    2
    16    24    23    2
    17    22    23    1
    18     3     4    1
    19     4     5    2
    20     4     9    1
    21     5     6    1
    22     9     8    2
    23     6     7    2
    24     8     7    1
    25     8    10    1
    26    14    10    2
    27    10    11   am
    28    11    12    1
    29    11    13    1
