@<TRIPOS>MOLECULE
854_out_ligand_01.pdbqt
 34 37 0 0 0
SMALL
GASTEIGER

@<TRIPOS>ATOM
      1  C         17.7040  -22.1670   -4.9550 C.2     1  UNL1        0.0800
      2  C         18.1660  -21.0000   -4.3410 C.2     1  UNL1        0.0250
      3  C         19.3190  -20.3810   -4.8220 C.2     1  UNL1        0.0030
      4  C         20.0020  -20.9220   -5.9160 C.2     1  UNL1        0.0170
      5  C         19.5270  -22.0870   -6.5370 C.2     1  UNL1        0.0330
      6  C         18.3870  -22.7260   -6.0390 C.2     1  UNL1        0.0420
      7  C         20.2210  -22.6900   -7.7110 C.2     1  UNL1        0.2560
      8  O         19.8280  -23.7770   -8.1150 O.2     1  UNL1       -0.2670
      9  N         21.2210  -21.9110   -8.2630 N.am    1  UNL1       -0.3230
     10  H         21.3220  -20.9680   -7.9100 H       1  UNL1        0.1690
     11  C         22.0700  -22.2470   -9.3380 C.2     1  UNL1        0.0350
     12  C         21.5760  -22.0590  -10.6300 C.2     1  UNL1        0.0310
     13  C         22.3650  -22.3650  -11.7460 C.2     1  UNL1        0.0260
     14  C         23.6690  -22.8620  -11.6110 C.2     1  UNL1        0.0100
     15  C         24.1550  -23.0300  -10.3090 C.2     1  UNL1        0.0260
     16  C         23.3670  -22.7320   -9.1860 C.2     1  UNL1        0.0310
     17  N         24.4160  -23.1420  -12.7690 N.pl3   1  UNL1       -0.2830
     18  C         25.7740  -23.6330  -12.4620 C.3     1  UNL1        0.0950
     19  C         26.3980  -24.2440  -13.7180 C.3     1  UNL1        0.0150
     20  C         26.3770  -23.2640  -14.8870 C.3     1  UNL1        0.0020
     21  C         24.9620  -22.7440  -15.1250 C.3     1  UNL1        0.0150
     22  C         24.3760  -22.1420  -13.8480 C.3     1  UNL1        0.0950
     23  S         16.2390  -22.9720   -4.3440 S.O2    1  UNL1        0.2630
     24  O         15.8050  -22.2740   -3.1530 O.2     1  UNL1       -0.2000
     25  O         16.5080  -24.3940   -4.3230 O.2     1  UNL1       -0.2000
     26  N         15.1220  -22.7190   -5.5820 N.pl3   1  UNL1       -0.2810
     27  H         14.1620  -22.8260   -5.2600 H       1  UNL1        0.1790
     28  C         15.4340  -23.1090   -6.9130 C.2     1  UNL1        0.0430
     29  C         15.3360  -24.4590   -7.2550 C.2     1  UNL1        0.0300
     30  C         15.6620  -24.8760   -8.5440 C.2     1  UNL1        0.0030
     31  C         16.0760  -23.9450   -9.4970 C.2     1  UNL1        0.0070
     32  C         16.1540  -22.5850   -9.1720 C.2     1  UNL1       -0.0600
     33  C         16.6130  -21.5900  -10.1960 C.3     1  UNL1        0.0480
     34  C         15.8360  -22.1750   -7.8700 C.2     1  UNL1        0.0370
@<TRIPOS>BOND
     1    21    20    1
     2    21    22    1
     3    20    19    1
     4    22    17    1
     5    19    18    1
     6    17    18    1
     7    17    14    1
     8    13    14    2
     9    13    12    1
    10    14    15    1
    11    12    11    2
    12    15    16    2
    13    33    32    1
    14    31    32    2
    15    31    30    1
    16    11    16    1
    17    11     9    1
    18    32    34    1
    19    30    29    2
    20     9    10    1
    21     9     7   am
    22     8     7    2
    23    34    28    2
    24     7     5    1
    25    29    28    1
    26    28    26    1
    27     5     6    1
    28     5     4    2
    29     6     1    2
    30     4     3    1
    31    26    27    1
    32    26    23    1
    33     1    23    1
    34     1     2    1
    35     3     2    2
    36    23    25    2
    37    23    24    2
