@<TRIPOS>MOLECULE
858_out_ligand_01.pdbqt
 34 36 0 0 0
SMALL
GASTEIGER

@<TRIPOS>ATOM
      1  C         19.1040  -22.6210  -10.2370 C.2     1  UNL1        0.0360
      2  C         18.8470  -21.7650  -11.3180 C.2     1  UNL1        0.0290
      3  C         19.8940  -21.1860  -12.0420 C.2     1  UNL1        0.0040
      4  C         21.2130  -21.4590  -11.6930 C.2     1  UNL1        0.0250
      5  C         21.4730  -22.3150  -10.6210 C.2     1  UNL1        0.0820
      6  C         20.4270  -22.8840   -9.8810 C.2     1  UNL1        0.0540
      7  N         17.9900  -23.1620   -9.5720 N.am    1  UNL1       -0.3250
      8  C         16.6760  -22.7290   -9.6180 C.2     1  UNL1        0.2460
      9  O         16.2490  -21.7500  -10.2220 O.2     1  UNL1       -0.2710
     10  H         18.1510  -23.9870   -9.0020 H       1  UNL1        0.1690
     11  C         15.7360  -23.5940   -8.7660 C.3     1  UNL1        0.2780
     12  O         16.3480  -24.2020   -7.6330 O.2     1  UNL1       -0.3420
     13  C         16.2170  -23.5770   -6.4240 C.2     1  UNL1        0.0700
     14  C         15.1190  -23.6610   -5.5680 C.2     1  UNL1        0.0370
     15  C         15.1270  -22.9800   -4.3480 C.2     1  UNL1        0.0040
     16  C         16.2330  -22.2160   -3.9750 C.2     1  UNL1        0.0160
     17  C         17.3510  -22.1340   -4.8150 C.2     1  UNL1        0.0500
     18  C         17.3270  -22.8180   -6.0410 C.2     1  UNL1        0.0520
     19  C         18.5450  -21.2950   -4.4340 C.3     1  UNL1        0.4170
     20  F         19.5710  -21.3990   -5.3240 F       1  UNL1       -0.1660
     21  F         18.2450  -19.9700   -4.3610 F       1  UNL1       -0.1660
     22  F         19.0720  -21.6300   -3.2230 F       1  UNL1       -0.1660
     23  S         23.1510  -22.6420  -10.1430 S.O2    1  UNL1        0.2630
     24  O         23.8000  -21.3650   -9.9280 O.2     1  UNL1       -0.2000
     25  O         23.1590  -23.6540   -9.1100 O.2     1  UNL1       -0.2000
     26  N         23.8300  -23.2600  -11.5620 N.pl3   1  UNL1       -0.2810
     27  H         23.1780  -23.8850  -12.0340 H       1  UNL1        0.1790
     28  C         24.6070  -22.3920  -12.3710 C.2     1  UNL1        0.0420
     29  C         24.0230  -21.6900  -13.4250 C.2     1  UNL1        0.0320
     30  C         24.8030  -20.8270  -14.2000 C.2     1  UNL1        0.0260
     31  C         26.1600  -20.6760  -13.9160 C.2     1  UNL1        0.0340
     32 CL         27.1210  -19.6160  -14.8710 Cl      1  UNL1       -0.0840
     33  C         26.7440  -21.3800  -12.8630 C.2     1  UNL1        0.0260
     34  C         25.9650  -22.2420  -12.0890 C.2     1  UNL1        0.0320
@<TRIPOS>BOND
     1    32    31    1
     2    30    31    2
     3    30    29    1
     4    31    33    1
     5    29    28    2
     6    33    34    2
     7    28    34    1
     8    28    26    1
     9     3     4    2
    10     3     2    1
    11    27    26    1
    12     4     5    1
    13    26    23    1
    14     2     1    2
    15     5    23    1
    16     5     6    2
    17     1     6    1
    18     1     7    1
    19     9     8    2
    20    23    24    2
    21    23    25    2
    22     8     7   am
    23     8    11    1
    24     7    10    1
    25    11    12    1
    26    12    13    1
    27    13    18    2
    28    13    14    1
    29    18    17    1
    30    14    15    2
    31    20    19    1
    32    17    19    1
    33    17    16    2
    34    19    21    1
    35    19    22    1
    36    15    16    1
