@<TRIPOS>MOLECULE
859_out_ligand_01.pdbqt
 42 46 0 0 0
SMALL
GASTEIGER

@<TRIPOS>ATOM
      1  O         23.0470  -24.0640   -9.7720 O.2     1  UNL1       -0.2670
      2  C         22.2580  -23.2590  -10.2770 C.2     1  UNL1        0.2670
      3  C         20.8160  -23.2600   -9.8260 C.2     1  UNL1        0.0590
      4  C         20.5780  -24.0270   -8.7350 C.2     1  UNL1        0.1060
      5  C         19.8170  -22.4590  -10.5550 C.2     1  UNL1       -0.0030
      6  C         18.4270  -22.6250  -10.4090 C.2     1  UNL1        0.0130
      7  C         17.5120  -21.8470  -11.1280 C.2     1  UNL1        0.0010
      8  C         17.9670  -20.8960  -12.0340 C.2     1  UNL1        0.0010
      9  C         19.3390  -20.7460  -12.2240 C.2     1  UNL1        0.0180
     10  C         20.2600  -21.5310  -11.4970 C.2     1  UNL1        0.0440
     11  C         21.7040  -21.3720  -11.7970 C.2     1  UNL1        0.2660
     12  O         21.9950  -20.4880  -12.6030 O.2     1  UNL1       -0.2670
     13  N         22.6210  -22.2600  -11.1970 N.am    1  UNL1       -0.2440
     14  N         19.4460  -24.1720   -7.9530 N.pl3   1  UNL1       -0.3650
     15  H         18.6540  -24.5610   -8.4670 H       1  UNL1        0.1650
     16  C         19.0930  -23.2960   -6.9030 C.2     1  UNL1        0.0330
     17  C         19.6850  -22.0280   -6.8030 C.2     1  UNL1        0.0290
     18  C         19.3110  -21.1280   -5.7910 C.2     1  UNL1        0.0040
     19  C         18.3160  -21.4730   -4.8800 C.2     1  UNL1        0.0250
     20  C         17.6980  -22.7230   -4.9980 C.2     1  UNL1        0.0810
     21  C         18.0920  -23.6350   -5.9860 C.2     1  UNL1        0.0540
     22  S         16.3400  -23.1320   -3.9330 S.O2    1  UNL1        0.2590
     23  O         16.6040  -24.4130   -3.3100 O.2     1  UNL1       -0.2010
     24  O         16.0110  -21.9560   -3.1530 O.2     1  UNL1       -0.2010
     25  N         15.1120  -23.3580   -5.0390 N.3     1  UNL1       -0.3090
     26  H         14.9290  -24.3380   -5.2580 H       1  UNL1        0.1720
     27  C         14.9950  -22.3960   -6.1320 C.3     1  UNL1        0.1970
     28  C         15.2270  -23.1340   -7.4030 C.2     1  UNL1        0.0700
     29  C         15.2920  -22.7580   -8.7290 C.2     1  UNL1        0.0360
     30  C         15.5100  -23.9460   -9.4800 C.2     1  UNL1        0.0270
     31  C         15.5350  -24.9710   -8.5630 C.2     1  UNL1        0.1420
     32  O         15.3730  -24.4870   -7.2990 O.2     1  UNL1       -0.3250
     33  C         24.0250  -22.1270  -11.5490 C.2     1  UNL1        0.0460
     34  C         24.9600  -21.6270  -10.6260 C.2     1  UNL1        0.0300
     35  C         26.3100  -21.4920  -10.9600 C.2     1  UNL1        0.0030
     36  C         26.7590  -21.8500  -12.2270 C.2     1  UNL1        0.0160
     37  C         25.8610  -22.3460  -13.1790 C.2     1  UNL1        0.0500
     38  C         24.5080  -22.4960  -12.8220 C.2     1  UNL1        0.0460
     39  C         26.3430  -22.7350  -14.5560 C.3     1  UNL1        0.4170
     40  F         25.3220  -22.9940  -15.4140 F       1  UNL1       -0.1660
     41  F         27.0810  -21.7630  -15.1510 F       1  UNL1       -0.1660
     42  F         27.1200  -23.8520  -14.5620 F       1  UNL1       -0.1660
@<TRIPOS>BOND
     1    40    39    1
     2    41    39    1
     3    42    39    1
     4    39    37    1
     5    37    38    1
     6    37    36    2
     7    38    33    2
     8    12    11    2
     9    36    35    1
    10     9     8    2
    11     9    10    1
    12     8     7    1
    13    11    10    1
    14    11    13   am
    15    33    13    1
    16    33    34    1
    17    10     5    2
    18    13     2   am
    19     7     6    2
    20    35    34    2
    21     5     6    1
    22     5     3    1
    23     2     3    1
    24     2     1    2
    25     3     4    2
    26    30    29    1
    27    30    31    2
    28     4    14    1
    29    29    28    2
    30    31    32    1
    31    15    14    1
    32    14    16    1
    33    28    32    1
    34    28    27    1
    35    16    17    2
    36    16    21    1
    37    17    18    1
    38    27    25    1
    39    21    20    2
    40    18    19    2
    41    26    25    1
    42    25    22    1
    43    20    19    1
    44    20    22    1
    45    22    23    2
    46    22    24    2
