@<TRIPOS>MOLECULE
862_out_ligand_01.pdbqt
 35 37 0 0 0
SMALL
GASTEIGER

@<TRIPOS>ATOM
      1  C         22.4350  -23.0840   -8.7970 C.2     1  UNL1        0.0320
      2  C         21.8560  -22.0660   -8.0240 C.2     1  UNL1        0.0180
      3  C         20.5460  -22.1990   -7.5510 C.2     1  UNL1        0.0260
      4  C         19.8210  -23.3600   -7.8390 C.2     1  UNL1        0.0740
      5  C         20.3880  -24.3880   -8.5930 C.2     1  UNL1        0.0260
      6  C         21.6950  -24.2460   -9.0680 C.2     1  UNL1        0.0180
      7  S         18.1610  -23.5140   -7.2260 S.O2    1  UNL1        0.2450
      8  O         18.1090  -24.7350   -6.4540 O.2     1  UNL1       -0.2060
      9  O         17.7600  -22.2330   -6.6860 O.2     1  UNL1       -0.2060
     10  N         17.2940  -23.7000   -8.6880 N.pl3   1  UNL1       -0.1810
     11  H         17.5420  -24.6200   -9.0570 H       1  UNL1        0.1460
     12  C         17.5610  -22.6740   -9.6530 C.2     1  UNL1        0.0230
     13  C         16.5290  -21.8520  -10.1040 C.2     1  UNL1        0.0240
     14  C         16.7890  -20.8850  -11.0770 C.2     1  UNL1        0.0030
     15  C         18.0730  -20.7520  -11.6030 C.2     1  UNL1        0.0160
     16  C         19.1150  -21.5870  -11.1670 C.2     1  UNL1        0.0490
     17  C         18.8430  -22.5540  -10.1880 C.2     1  UNL1        0.0400
     18  C         20.4960  -21.4400  -11.7540 C.3     1  UNL1        0.4170
     19  F         20.5070  -20.8800  -12.9950 F       1  UNL1       -0.1660
     20  F         21.3130  -20.6680  -10.9850 F       1  UNL1       -0.1660
     21  F         21.1300  -22.6390  -11.8850 F       1  UNL1       -0.1660
     22  C         23.8250  -23.0000   -9.3410 C.2     1  UNL1        0.2510
     23  N         24.1310  -21.9000  -10.1030 N.am    1  UNL1       -0.3540
     24  H         23.4690  -21.1520  -10.2670 H       1  UNL1        0.1620
     25  O         24.6260  -23.9000   -9.1190 O.2     1  UNL1       -0.2680
     26  C         25.4830  -21.6330  -10.5810 C.3     1  UNL1        0.1650
     27  C         25.4970  -21.3590  -12.1100 C.3     1  UNL1        0.2960
     28  N         26.4740  -20.2820  -12.4650 N.3     1  UNL1        0.0920
     29  C         26.0840  -19.5160  -13.6510 C.3     1  UNL1        0.3100
     30  C         26.7260  -19.3800  -11.3430 C.3     1  UNL1        0.3100
     31  C         25.6320  -22.6280  -12.9020 C.2     1  UNL1        0.0870
     32  C         24.7400  -23.6310  -13.2270 C.2     1  UNL1        0.0370
     33  C         25.4570  -24.5730  -14.0040 C.2     1  UNL1        0.0270
     34  C         26.7440  -24.0990  -14.0860 C.2     1  UNL1        0.1420
     35  O         26.8600  -22.9180  -13.4270 O.2     1  UNL1       -0.3250
@<TRIPOS>BOND
     1    34    33    2
     2    34    35    1
     3    33    32    1
     4    29    28    1
     5    35    31    1
     6    32    31    2
     7    19    18    1
     8    31    27    1
     9    28    27    1
    10    28    30    1
    11    27    26    1
    12    21    18    1
    13    18    16    1
    14    18    20    1
    15    15    16    2
    16    15    14    1
    17    16    17    1
    18    14    13    2
    19    26    23    1
    20    24    23    1
    21    17    12    2
    22    13    12    1
    23    23    22   am
    24    12    10    1
    25    22    25    2
    26    22     1    1
    27     6     1    2
    28     6     5    1
    29    11    10    1
    30     1     2    1
    31    10     7    1
    32     5     4    2
    33     2     3    2
    34     4     3    1
    35     4     7    1
    36     7     9    2
    37     7     8    2
