@<TRIPOS>MOLECULE
864_out_ligand_01.pdbqt
 29 31 0 0 0
SMALL
GASTEIGER

@<TRIPOS>ATOM
      1  C         19.2010  -22.5420  -10.2270 C.2     1  UNL1        0.0330
      2  C         18.5180  -21.7020  -11.1200 C.2     1  UNL1        0.0170
      3  C         17.1440  -21.4900  -10.9710 C.2     1  UNL1        0.0030
      4  C         16.4510  -22.1010   -9.9270 C.2     1  UNL1        0.0250
      5  C         17.1420  -22.9140   -9.0230 C.2     1  UNL1        0.0800
      6  C         18.5120  -23.1470   -9.1710 C.2     1  UNL1        0.0420
      7  S         16.2620  -23.6940   -7.6930 S.O2    1  UNL1        0.2630
      8  O         15.6210  -24.8890   -8.1950 O.2     1  UNL1       -0.2000
      9  O         15.4920  -22.6660   -7.0230 O.2     1  UNL1       -0.2000
     10  N         17.5030  -24.1170   -6.6260 N.pl3   1  UNL1       -0.2810
     11  H         18.2970  -24.5060   -7.1340 H       1  UNL1        0.1790
     12  C         17.7860  -23.2320   -5.5500 C.2     1  UNL1        0.0440
     13  C         17.4660  -23.5910   -4.2400 C.2     1  UNL1        0.0300
     14  C         17.7760  -22.7280   -3.1890 C.2     1  UNL1        0.0040
     15  C         18.4060  -21.5100   -3.4490 C.2     1  UNL1        0.0240
     16  C         18.7240  -21.1610   -4.7610 C.2     1  UNL1        0.0360
     17 CL         19.4950  -19.6570   -5.0840 Cl      1  UNL1       -0.0840
     18  C         18.4170  -22.0180   -5.8160 C.2     1  UNL1        0.0540
     19  C         20.6650  -22.7810  -10.3480 C.2     1  UNL1        0.2560
     20  O         21.1340  -23.7630   -9.7870 O.2     1  UNL1       -0.2670
     21  N         21.3430  -21.8600  -11.1270 N.am    1  UNL1       -0.3230
     22  H         20.7820  -21.1840  -11.6300 H       1  UNL1        0.1690
     23  C         22.7290  -21.8130  -11.3800 C.2     1  UNL1        0.0350
     24  C         23.6990  -21.6450  -10.3880 C.2     1  UNL1        0.0310
     25  C         25.0570  -21.6010  -10.7210 C.2     1  UNL1        0.0260
     26  C         25.4510  -21.7240  -12.0500 C.2     1  UNL1        0.0340
     27 CL         27.1210  -21.6700  -12.4600 Cl      1  UNL1       -0.0840
     28  C         24.4980  -21.8890  -13.0500 C.2     1  UNL1        0.0260
     29  C         23.1410  -21.9320  -12.7150 C.2     1  UNL1        0.0310
@<TRIPOS>BOND
     1    28    29    1
     2    28    26    2
     3    29    23    2
     4    27    26    1
     5    26    25    1
     6    22    21    1
     7    23    21    1
     8    23    24    1
     9    21    19   am
    10     2     3    1
    11     2     1    2
    12     3     4    2
    13    25    24    2
    14    19     1    1
    15    19    20    2
    16     1     6    1
    17     4     5    1
    18     6     5    2
    19     5     7    1
    20     8     7    2
    21     7     9    2
    22     7    10    1
    23    11    10    1
    24    10    12    1
    25    18    12    2
    26    18    16    1
    27    12    13    1
    28    17    16    1
    29    16    15    2
    30    13    14    2
    31    15    14    1
