@<TRIPOS>MOLECULE
869_out_ligand_01.pdbqt
 33 35 0 0 0
SMALL
GASTEIGER

@<TRIPOS>ATOM
      1  C         18.6840  -23.3080   -8.9350 C.2     1  UNL1        0.0790
      2  C         19.5270  -24.3470   -8.5250 C.2     1  UNL1        0.0260
      3  C         20.8920  -24.2820   -8.8110 C.2     1  UNL1        0.0180
      4  C         21.3960  -23.1920   -9.5340 C.2     1  UNL1        0.0320
      5  C         20.5520  -22.1540   -9.9410 C.2     1  UNL1        0.0180
      6  C         19.1870  -22.2170   -9.6530 C.2     1  UNL1        0.0260
      7  C         22.8430  -23.0870   -9.8160 C.2     1  UNL1        0.2530
      8  O         23.6130  -23.4120   -8.9160 O.2     1  UNL1       -0.2670
      9  N         23.2580  -22.6480  -11.0720 N.am    1  UNL1       -0.3480
     10  C         22.3620  -22.1790  -12.1210 C.3     1  UNL1        0.1530
     11  C         24.6610  -22.8350  -11.4320 C.3     1  UNL1        0.1640
     12  C         24.8460  -22.9750  -12.9250 C.2     1  UNL1       -0.0400
     13  C         24.8690  -21.8380  -13.7450 C.2     1  UNL1        0.0110
     14  C         25.0720  -21.9500  -15.1250 C.2     1  UNL1        0.0370
     15  C         25.2530  -23.2060  -15.7040 C.2     1  UNL1        0.0740
     16  C         25.2410  -24.3410  -14.8900 C.2     1  UNL1        0.0370
     17  C         25.0380  -24.2320  -13.5120 C.2     1  UNL1        0.0110
     18  O         25.4720  -23.4590  -17.0290 O.2     1  UNL1       -0.2900
     19  C         24.3600  -23.3190  -17.8960 C.3     1  UNL1        0.5050
     20  F         24.2140  -21.9940  -18.1530 F       1  UNL1       -0.1840
     21  F         23.2350  -23.7100  -17.2480 F       1  UNL1       -0.1840
     22  S         16.9400  -23.4040   -8.5790 S.O2    1  UNL1        0.2630
     23  O         16.7410  -24.5590   -7.7280 O.2     1  UNL1       -0.2000
     24  O         16.2260  -23.2680   -9.8290 O.2     1  UNL1       -0.2000
     25  N         16.6660  -22.0540   -7.6060 N.pl3   1  UNL1       -0.2800
     26  H         16.0990  -21.3460   -8.0670 H       1  UNL1        0.1790
     27  C         16.5380  -22.2060   -6.1940 C.2     1  UNL1        0.0480
     28  C         15.2920  -22.5320   -5.6500 C.2     1  UNL1        0.0300
     29  C         15.1360  -22.6630   -4.2710 C.2     1  UNL1        0.0020
     30  C         16.2260  -22.4720   -3.4280 C.2     1  UNL1        0.0010
     31  C         17.4750  -22.1590   -3.9660 C.2     1  UNL1        0.0090
     32  C         17.6480  -22.0200   -5.3530 C.2     1  UNL1       -0.0350
     33  C         19.0160  -21.7020   -5.8860 C.3     1  UNL1        0.0500
@<TRIPOS>BOND
     1    20    19    1
     2    19    21    1
     3    19    18    1
     4    18    15    1
     5    15    14    2
     6    15    16    1
     7    14    13    1
     8    16    17    2
     9    13    12    2
    10    17    12    1
    11    12    11    1
    12    10     9    1
    13    11     9    1
    14     9     7   am
    15     5     6    1
    16     5     4    2
    17    24    22    2
    18     7     4    1
    19     7     8    2
    20     6     1    2
    21     4     3    1
    22     1    22    1
    23     1     2    1
    24     3     2    2
    25    22    23    2
    26    22    25    1
    27    26    25    1
    28    25    27    1
    29    27    28    2
    30    27    32    1
    31    33    32    1
    32    28    29    1
    33    32    31    2
    34    29    30    2
    35    31    30    1
