@<TRIPOS>MOLECULE
870_out_ligand_01.pdbqt
 33 36 0 0 0
SMALL
GASTEIGER

@<TRIPOS>ATOM
      1  C         20.9190  -24.5160   -9.2960 C.3     1  UNL1        0.0430
      2  C         21.0240  -23.0250   -9.5720 C.3     1  UNL1        0.1810
      3  N         22.0680  -22.8010  -10.6020 N.3     1  UNL1       -0.3020
      4  H         21.7160  -22.3360  -11.4460 H       1  UNL1        0.1730
      5  S         23.5630  -22.2180  -10.1140 S.O2    1  UNL1        0.2590
      6  O         23.3200  -21.0300   -9.3240 O.2     1  UNL1       -0.2010
      7  O         24.3190  -23.3350   -9.5960 O.2     1  UNL1       -0.2010
      8  C         24.3420  -21.7060  -11.6270 C.2     1  UNL1        0.0820
      9  C         25.5510  -21.0010  -11.5830 C.2     1  UNL1        0.0280
     10  C         26.1420  -20.5790  -12.7750 C.2     1  UNL1        0.0410
     11  C         25.5470  -20.8900  -14.0000 C.2     1  UNL1        0.1020
     12  C         24.3460  -21.6080  -14.0360 C.2     1  UNL1        0.1030
     13  O         26.1370  -20.3650  -15.1140 O.2     1  UNL1       -0.3480
     14  C         23.7370  -22.0150  -12.8480 C.2     1  UNL1        0.0650
     15  O         23.6510  -21.8410  -15.1900 O.2     1  UNL1       -0.3480
     16  C         24.3810  -22.6530  -16.1080 C.3     1  UNL1        0.1780
     17  C         25.3830  -21.8420  -16.9160 C.3     1  UNL1        0.0530
     18  C         26.5380  -21.3780  -16.0410 C.3     1  UNL1        0.1780
     19  C         19.6930  -22.5140  -10.1590 C.2     1  UNL1        0.2420
     20  O         19.7270  -21.7740  -11.1520 O.2     1  UNL1       -0.2710
     21  N         18.4910  -22.9080   -9.5680 N.am    1  UNL1       -0.3500
     22  C         17.3020  -22.1710  -10.0080 C.3     1  UNL1        0.1260
     23  C         18.4350  -23.5060   -8.2330 C.3     1  UNL1        0.1260
     24  C         15.9980  -22.9060   -9.7240 C.3     1  UNL1        0.0250
     25  C         15.8880  -23.3590   -8.2620 C.3     1  UNL1       -0.0070
     26  C         17.1170  -24.2180   -7.9390 C.3     1  UNL1        0.0250
     27  C         15.7390  -22.1930   -7.2590 C.3     1  UNL1        0.0430
     28  C         15.9120  -22.6110   -5.8200 C.2     1  UNL1       -0.0580
     29  C         14.9620  -23.4370   -5.2020 C.2     1  UNL1        0.0070
     30  C         15.1280  -23.8360   -3.8750 C.2     1  UNL1        0.0010
     31  C         16.2440  -23.4120   -3.1530 C.2     1  UNL1        0.0000
     32  C         17.1930  -22.5900   -3.7570 C.2     1  UNL1        0.0010
     33  C         17.0290  -22.1900   -5.0840 C.2     1  UNL1        0.0070
@<TRIPOS>BOND
     1    17    16    1
     2    17    18    1
     3    16    15    1
     4    18    13    1
     5    15    12    1
     6    13    11    1
     7    12    11    2
     8    12    14    1
     9    11    10    1
    10    14     8    2
    11    10     9    2
    12     8     9    1
    13     8     5    1
    14     4     3    1
    15    20    19    2
    16     3     5    1
    17     3     2    1
    18    19     2    1
    19    19    21   am
    20     5     7    2
    21     5     6    2
    22    22    24    1
    23    22    21    1
    24    24    25    1
    25     2     1    1
    26    21    23    1
    27    25    26    1
    28    25    27    1
    29    23    26    1
    30    27    28    1
    31    28    29    2
    32    28    33    1
    33    29    30    1
    34    33    32    2
    35    30    31    2
    36    32    31    1
