@<TRIPOS>MOLECULE
876_out_ligand_01.pdbqt
 31 34 0 0 0
SMALL
GASTEIGER

@<TRIPOS>ATOM
      1  C         21.3690  -22.4500   -9.9540 C.2     1  UNL1        0.0800
      2  C         20.7920  -21.7680  -11.0290 C.2     1  UNL1        0.0260
      3  C         19.4050  -21.6180  -11.0890 C.2     1  UNL1        0.0090
      4  C         18.5840  -22.1360  -10.0760 C.2     1  UNL1       -0.0460
      5  C         17.0910  -21.9940  -10.1790 C.3     1  UNL1        0.0490
      6  C         19.1930  -22.7800   -8.9820 C.2     1  UNL1        0.0400
      7  C         20.5790  -22.9570   -8.9220 C.2     1  UNL1        0.0420
      8  S         23.1290  -22.6520   -9.8720 S.O2    1  UNL1        0.2630
      9  O         23.7400  -21.3580   -9.6670 O.2     1  UNL1       -0.2000
     10  O         23.3850  -23.7460   -8.9580 O.2     1  UNL1       -0.2000
     11  N         23.5090  -23.2230  -11.4150 N.pl3   1  UNL1       -0.2810
     12  H         23.3930  -24.2330  -11.4750 H       1  UNL1        0.1790
     13  C         24.6280  -22.6510  -12.0790 C.2     1  UNL1        0.0430
     14  C         25.8940  -23.2000  -11.8850 C.2     1  UNL1        0.0300
     15  C         26.9910  -22.6610  -12.5550 C.2     1  UNL1        0.0030
     16  C         26.8180  -21.5830  -13.4250 C.2     1  UNL1        0.0070
     17  C         25.5440  -21.0400  -13.6400 C.2     1  UNL1       -0.0600
     18  C         25.3690  -19.8700  -14.5610 C.3     1  UNL1        0.0480
     19  C         24.4490  -21.5770  -12.9520 C.2     1  UNL1        0.0370
     20  C         18.3820  -23.3450   -7.8790 C.2     1  UNL1        0.2590
     21  O         17.9310  -24.4640   -8.1040 O.2     1  UNL1       -0.2670
     22  N         18.2230  -22.5690   -6.7160 N.am    1  UNL1       -0.3130
     23  C         19.0560  -21.3780   -6.4870 C.3     1  UNL1        0.1330
     24  C         17.2100  -22.8530   -5.7220 C.2     1  UNL1        0.0430
     25  C         19.4210  -21.1910   -5.0270 C.3     1  UNL1        0.0250
     26  C         18.1540  -21.0140   -4.2200 C.3     1  UNL1        0.0420
     27  C         17.1650  -22.1090   -4.5210 C.2     1  UNL1       -0.0310
     28  C         16.1560  -22.3500   -3.5680 C.2     1  UNL1        0.0090
     29  C         15.1980  -23.3350   -3.7790 C.2     1  UNL1        0.0010
     30  C         15.2350  -24.0770   -4.9510 C.2     1  UNL1        0.0020
     31  C         16.2260  -23.8350   -5.9090 C.2     1  UNL1        0.0300
@<TRIPOS>BOND
     1    18    17    1
     2    17    16    2
     3    17    19    1
     4    16    15    1
     5    19    13    2
     6    15    14    2
     7    13    14    1
     8    13    11    1
     9    12    11    1
    10    11     8    1
    11     3     2    1
    12     3     4    2
    13     2     1    2
    14     5     4    1
    15     4     6    1
    16     1     8    1
    17     1     7    1
    18     8     9    2
    19     8    10    2
    20     6     7    2
    21     6    20    1
    22    21    20    2
    23    20    22   am
    24    22    23    1
    25    22    24    1
    26    23    25    1
    27    31    24    2
    28    31    30    1
    29    24    27    1
    30    25    26    1
    31    30    29    2
    32    27    26    1
    33    27    28    2
    34    29    28    1
