@<TRIPOS>MOLECULE
881_out_ligand_01.pdbqt
 39 42 0 0 0
SMALL
GASTEIGER

@<TRIPOS>ATOM
      1  O         23.9050  -24.0100   -8.8390 O.2     1  UNL1       -0.2670
      2  C         22.9620  -23.4560   -9.3960 C.2     1  UNL1        0.2560
      3  N         22.9600  -22.8870  -10.6580 N.am    1  UNL1       -0.3230
      4  H         22.0560  -22.6790  -11.0660 H       1  UNL1        0.1690
      5  C         24.0780  -22.7000  -11.4970 C.2     1  UNL1        0.0360
      6  C         25.3480  -22.8600  -10.9280 C.2     1  UNL1        0.0290
      7  C         26.5060  -22.7050  -11.6970 C.2     1  UNL1        0.0040
      8  C         26.4040  -22.3890  -13.0470 C.2     1  UNL1        0.0250
      9  C         25.1390  -22.2260  -13.6160 C.2     1  UNL1        0.0820
     10  C         23.9770  -22.3950  -12.8530 C.2     1  UNL1        0.0540
     11  S         24.9810  -21.8710  -15.3490 S.O2    1  UNL1        0.2630
     12  O         23.9370  -20.8820  -15.4980 O.2     1  UNL1       -0.2000
     13  O         24.9090  -23.1350  -16.0570 O.2     1  UNL1       -0.2000
     14  N         26.4400  -21.1050  -15.7230 N.pl3   1  UNL1       -0.2790
     15  H         27.0950  -21.7270  -16.2150 H       1  UNL1        0.1790
     16  C         26.4080  -19.7420  -16.1540 C.2     1  UNL1        0.0640
     17  C         26.2430  -19.4690  -17.5150 C.2     1  UNL1        0.0320
     18  C         26.2080  -18.1520  -17.9780 C.2     1  UNL1        0.0020
     19  C         26.3620  -17.0980  -17.0790 C.2     1  UNL1        0.0020
     20  C         26.5440  -17.3600  -15.7190 C.2     1  UNL1        0.0260
     21  C         26.5630  -18.6770  -15.2540 C.2     1  UNL1        0.0610
     22 CL         26.7600  -18.9550  -13.5600 Cl      1  UNL1       -0.0820
     23  C         21.6470  -23.4260   -8.6980 C.2     1  UNL1        0.0320
     24  C         21.2450  -22.3070   -7.9520 C.2     1  UNL1        0.0180
     25  C         20.0150  -22.3180   -7.2900 C.2     1  UNL1        0.0260
     26  C         19.1970  -23.4510   -7.3690 C.2     1  UNL1        0.0790
     27  C         19.5900  -24.5680   -8.1130 C.2     1  UNL1        0.0260
     28  C         20.8240  -24.5570   -8.7670 C.2     1  UNL1        0.0180
     29  S         17.6300  -23.4480   -6.5310 S.O2    1  UNL1        0.2590
     30  O         17.1520  -24.8120   -6.5120 O.2     1  UNL1       -0.2010
     31  O         17.7480  -22.6620   -5.3230 O.2     1  UNL1       -0.2010
     32  N         16.6740  -22.6150   -7.6160 N.3     1  UNL1       -0.3090
     33  H         16.9000  -21.6230   -7.6800 H       1  UNL1        0.1720
     34  C         16.3370  -23.2780   -8.8710 C.3     1  UNL1        0.1970
     35  C         17.0330  -22.5490   -9.9610 C.2     1  UNL1        0.0700
     36  C         18.1020  -22.8560  -10.7800 C.2     1  UNL1        0.0360
     37  C         18.2770  -21.7460  -11.6430 C.2     1  UNL1        0.0270
     38  C         17.2930  -20.8460  -11.3130 C.2     1  UNL1        0.1420
     39  O         16.5220  -21.3300  -10.3050 O.2     1  UNL1       -0.3250
@<TRIPOS>BOND
     1    18    17    1
     2    18    19    2
     3    17    16    2
     4    19    20    1
     5    15    14    1
     6    16    14    1
     7    16    21    1
     8    13    11    2
     9    14    11    1
    10    20    21    2
    11    12    11    2
    12    11     9    1
    13    21    22    1
    14     9     8    2
    15     9    10    1
    16     8     7    1
    17    10     5    2
    18     7     6    2
    19    37    38    2
    20    37    36    1
    21     5     6    1
    22     5     3    1
    23    38    39    1
    24     4     3    1
    25    36    35    2
    26     3     2   am
    27    39    35    1
    28    35    34    1
    29     2     1    2
    30     2    23    1
    31    34    32    1
    32    28    23    2
    33    28    27    1
    34    23    24    1
    35    27    26    2
    36    24    25    2
    37    33    32    1
    38    32    29    1
    39    26    25    1
    40    26    29    1
    41    29    30    2
    42    29    31    2
