@<TRIPOS>MOLECULE
886_out_ligand_01.pdbqt
 32 35 0 0 0
SMALL
GASTEIGER

@<TRIPOS>ATOM
      1  C         18.8030  -23.2780   -9.3320 C.2     1  UNL1        0.0800
      2  C         19.7850  -24.0540   -8.7150 C.2     1  UNL1        0.0270
      3  C         21.1100  -23.9570   -9.1480 C.2     1  UNL1        0.0310
      4  C         21.4640  -23.0820  -10.1840 C.2     1  UNL1        0.0340
      5  C         20.4730  -22.2970  -10.7780 C.2     1  UNL1        0.0310
      6  C         19.1430  -22.3890  -10.3520 C.2     1  UNL1        0.0270
      7  N         22.8200  -23.0500  -10.5580 N.am    1  UNL1       -0.3250
      8  C         23.7640  -22.0720  -10.2780 C.2     1  UNL1        0.2540
      9  O         23.5800  -21.0590   -9.6100 O.2     1  UNL1       -0.2700
     10  H         23.1460  -23.7990  -11.1620 H       1  UNL1        0.1690
     11  C         25.1580  -22.4350  -10.8300 C.3     1  UNL1        0.2450
     12  C         26.0590  -21.2090  -10.9320 C.3     1  UNL1        0.2180
     13  O         25.6380  -20.3210  -11.9740 O.2     1  UNL1       -0.3450
     14  C         25.3230  -20.9960  -13.1210 C.2     1  UNL1        0.1020
     15  C         25.2240  -20.2380  -14.2860 C.2     1  UNL1        0.0390
     16  C         25.0930  -22.3730  -13.1620 C.2     1  UNL1        0.1030
     17  C         24.9230  -20.8600  -15.4990 C.2     1  UNL1        0.0030
     18  C         24.7210  -22.2400  -15.5440 C.2     1  UNL1        0.0030
     19  C         24.8050  -22.9970  -14.3750 C.2     1  UNL1        0.0400
     20  O         25.1190  -23.1760  -12.0520 O.2     1  UNL1       -0.3310
     21  S         17.1200  -23.3790   -8.7780 S.O2    1  UNL1        0.2640
     22  O         17.0530  -24.4260   -7.7790 O.2     1  UNL1       -0.2000
     23  O         16.2450  -23.4050   -9.9310 O.2     1  UNL1       -0.2000
     24  N         16.9370  -21.9410   -7.9360 N.pl3   1  UNL1       -0.2580
     25  H         17.3290  -21.1380   -8.4200 H       1  UNL1        0.1810
     26  C         17.0210  -22.0110   -6.4930 C.ar    1  UNL1        0.1900
     27  O         15.9810  -22.2720   -5.6570 O.2     1  UNL1       -0.1940
     28  N         16.4100  -22.2200   -4.3470 N.ar    1  UNL1       -0.1310
     29  C         17.7130  -21.9250   -4.4040 C.ar    1  UNL1        0.0680
     30  C         18.4980  -21.7930   -3.1530 C.3     1  UNL1        0.0730
     31  C         18.1550  -21.7680   -5.7480 C.ar    1  UNL1        0.0180
     32  C         19.5130  -21.4310   -6.2300 C.3     1  UNL1        0.0550
@<TRIPOS>BOND
     1    18    17    2
     2    18    19    1
     3    17    15    1
     4    19    16    2
     5    15    14    2
     6    16    14    1
     7    16    20    1
     8    14    13    1
     9    20    11    1
    10    13    12    1
    11    10     7    1
    12    12    11    1
    13    11     8    1
    14     5     6    1
    15     5     4    2
    16     7     8   am
    17     7     4    1
    18     6     1    2
    19     8     9    2
    20     4     3    1
    21    23    21    2
    22     1    21    1
    23     1     2    1
    24     3     2    2
    25    21    24    1
    26    21    22    2
    27    25    24    1
    28    24    26    1
    29    26    31   ar
    30    26    27   ar
    31    32    31    1
    32    31    29   ar
    33    27    28   ar
    34    29    28   ar
    35    29    30    1
