@<TRIPOS>MOLECULE
8899_out_ligand_01.pdbqt
 32 36 0 0 0
SMALL
GASTEIGER

@<TRIPOS>ATOM
      1  C         18.2520  -23.1650  -10.6000 C.2     1  UNL1        0.0400
      2  C         17.2620  -22.9100   -9.7170 C.2     1  UNL1        0.0910
      3  C         15.9100  -23.0090  -10.1750 C.1     1  UNL1        0.1030
      4  N         14.8360  -23.0760  -10.6130 N.1     1  UNL1       -0.1910
      5  C         17.4840  -22.5450   -8.3590 C.ar    1  UNL1        0.1490
      6  N         18.4220  -21.7800   -7.8340 N.ar    1  UNL1       -0.2280
      7  C         18.2110  -21.7890   -6.4770 C.ar    1  UNL1        0.0880
      8  C         18.9100  -21.1280   -5.4590 C.2     1  UNL1        0.0760
      9  C         17.1300  -22.5990   -6.1530 C.ar    1  UNL1        0.0630
     10  C         18.4740  -21.3150   -4.1480 C.2     1  UNL1        0.1180
     11  F         19.1210  -20.6920   -3.1530 F       1  UNL1       -0.2060
     12  C         17.3840  -22.1280   -3.8390 C.2     1  UNL1        0.0440
     13  C         16.6790  -22.7970   -4.8450 C.2     1  UNL1        0.0350
     14  N         16.6970  -23.0810   -7.3610 N.ar    1  UNL1       -0.3380
     15  H         15.9100  -23.6990   -7.5000 H       1  UNL1        0.1670
     16  C         19.6640  -23.1960  -10.3830 C.2     1  UNL1       -0.0100
     17  C         20.3650  -23.9620   -9.4320 C.2     1  UNL1        0.0380
     18  C         21.7120  -23.6930   -9.5790 C.2     1  UNL1        0.0140
     19  C         22.8360  -24.3430   -8.8420 C.3     1  UNL1        0.0680
     20  N         21.8640  -22.7840  -10.6240 N.pl3   1  UNL1       -0.3190
     21  C         20.5910  -22.4670  -11.1090 C.2     1  UNL1        0.0230
     22  C         20.3380  -21.4400  -12.1680 C.3     1  UNL1        0.0690
     23  C         23.1000  -22.2710  -11.1120 C.2     1  UNL1        0.0400
     24  C         23.9400  -21.5350  -10.2740 C.2     1  UNL1        0.0320
     25  C         25.1490  -21.0330  -10.7670 C.2     1  UNL1        0.0350
     26  C         25.5530  -21.2460  -12.0770 C.2     1  UNL1        0.0660
     27  N         26.7250  -20.7400  -12.4970 N.2     1  UNL1       -0.2600
     28  C         24.7060  -21.9960  -12.9210 C.2     1  UNL1       -0.0050
     29  C         27.0930  -20.9720  -13.7760 C.2     1  UNL1        0.1170
     30  C         26.3350  -21.6970  -14.6770 C.2     1  UNL1        0.0200
     31  C         25.1240  -22.2160  -14.2410 C.2     1  UNL1        0.0150
     32  C         23.4850  -22.5020  -12.4360 C.2     1  UNL1        0.0430
@<TRIPOS>BOND
     1    30    31    2
     2    30    29    1
     3    31    28    1
     4    29    27    2
     5    28    32    1
     6    28    26    2
     7    27    26    1
     8    32    23    2
     9    22    21    1
    10    26    25    1
    11    23    20    1
    12    23    24    1
    13    21    20    1
    14    21    16    2
    15    25    24    2
    16    20    18    1
    17     4     3    3
    18     1    16    1
    19     1     2    2
    20    16    17    1
    21     3     2    1
    22     2     5    1
    23    18    17    2
    24    18    19    1
    25     5     6   ar
    26     5    14   ar
    27     6     7   ar
    28    15    14    1
    29    14     9   ar
    30     7     9   ar
    31     7     8    1
    32     9    13    1
    33     8    10    2
    34    13    12    2
    35    10    12    1
    36    10    11    1
