@<TRIPOS>MOLECULE
9002_out_ligand_01.pdbqt
 30 33 0 0 0
SMALL
GASTEIGER

@<TRIPOS>ATOM
      1  C         18.3430  -22.4840  -10.2480 C.2     1  UNL1        0.1450
      2  N         17.9790  -21.4730  -11.0750 N.2     1  UNL1       -0.2230
      3  C         18.9220  -20.8050  -11.7610 C.2     1  UNL1        0.2370
      4  N         20.2460  -21.0040  -11.7440 N.2     1  UNL1       -0.2210
      5  C         20.5990  -22.0130  -10.9210 C.2     1  UNL1        0.1680
      6  C         19.7170  -22.7720  -10.1660 C.2     1  UNL1        0.0770
      7  C         20.5370  -23.6840   -9.4820 C.2     1  UNL1        0.1580
      8  N         21.8310  -23.5390   -9.7620 N.2     1  UNL1       -0.1770
      9  N         21.8780  -22.5030  -10.6540 N.pl3   1  UNL1       -0.2150
     10  N         17.3990  -23.2220   -9.5170 N.pl3   1  UNL1       -0.3400
     11  H         16.8180  -23.8180  -10.0890 H       1  UNL1        0.1670
     12  C         17.1200  -23.3160   -8.1420 C.2     1  UNL1        0.0330
     13  C         16.1380  -22.4680   -7.6020 C.2     1  UNL1        0.0300
     14  C         15.8200  -22.4960   -6.2390 C.2     1  UNL1        0.0190
     15  C         16.4870  -23.3690   -5.3790 C.2     1  UNL1        0.0320
     16  C         17.4580  -24.2270   -5.9000 C.2     1  UNL1        0.0190
     17  C         17.7710  -24.1910   -7.2670 C.2     1  UNL1        0.0300
     18  C         16.1170  -23.3650   -3.9380 C.2     1  UNL1        0.2490
     19  N         16.1460  -22.1670   -3.2800 N.am    1  UNL1       -0.3660
     20  H         15.7670  -22.1730   -2.3410 H       1  UNL1        0.1590
     21  H         16.1490  -21.2840   -3.7700 H       1  UNL1        0.1590
     22  O         15.7630  -24.3860   -3.3630 O.2     1  UNL1       -0.2680
     23  C         23.1420  -22.0780  -11.1670 C.2     1  UNL1        0.0630
     24  C         24.1680  -21.6080  -10.3310 C.2     1  UNL1        0.0350
     25  C         25.3930  -21.2020  -10.8740 C.2     1  UNL1        0.0480
     26  C         25.5970  -21.2630  -12.2470 C.2     1  UNL1        0.1540
     27  F         26.7720  -20.8710  -12.7560 F       1  UNL1       -0.2030
     28  C         24.5900  -21.7260  -13.0830 C.2     1  UNL1        0.1570
     29  F         24.7860  -21.7850  -14.4070 F       1  UNL1       -0.2030
     30  C         23.3670  -22.1340  -12.5550 C.2     1  UNL1        0.0770
@<TRIPOS>BOND
     1    29    28    1
     2    28    30    1
     3    28    26    2
     4    27    26    1
     5    30    23    2
     6    26    25    1
     7     3     4    2
     8     3     2    1
     9     4     5    1
    10    23     9    1
    11    23    24    1
    12     2     1    2
    13     5     9    1
    14     5     6    2
    15    25    24    2
    16     9     8    1
    17     1     6    1
    18     1    10    1
    19     6     7    1
    20    11    10    1
    21     8     7    2
    22    10    12    1
    23    12    13    2
    24    12    17    1
    25    13    14    1
    26    17    16    2
    27    14    15    2
    28    16    15    1
    29    15    18    1
    30    18    22    2
    31    18    19   am
    32    21    19    1
    33    19    20    1
