@<TRIPOS>MOLECULE
9012_out_ligand_01.pdbqt
 35 38 0 0 0
SMALL
GASTEIGER

@<TRIPOS>ATOM
      1  N         19.2950  -22.4030  -11.0720 N.am    1  UNL1       -0.3050
      2  C         19.6280  -21.3540  -11.9180 C.2     1  UNL1        0.2490
      3  O         18.8070  -20.6390  -12.4850 O.2     1  UNL1       -0.2680
      4  C         21.0620  -21.0850  -12.1410 C.2     1  UNL1        0.0920
      5  C         22.0080  -21.7780  -11.4990 C.2     1  UNL1        0.0490
      6  C         21.6450  -22.8060  -10.5170 C.2     1  UNL1        0.0070
      7  C         22.6250  -23.4560   -9.7480 C.2     1  UNL1        0.0150
      8  C         22.2730  -24.4340   -8.8210 C.2     1  UNL1        0.0010
      9  C         20.9340  -24.7650   -8.6480 C.2     1  UNL1        0.0020
     10  C         19.9460  -24.1130   -9.3930 C.2     1  UNL1        0.0300
     11  C         20.2850  -23.1230  -10.3310 C.2     1  UNL1        0.0490
     12  C         17.8710  -22.7340  -10.9330 C.3     1  UNL1        0.2350
     13  C         17.2060  -22.2790   -9.6230 C.2     1  UNL1        0.2400
     14  N         17.5780  -23.0150   -8.5140 N.am    1  UNL1       -0.3260
     15  H         18.1750  -23.8130   -8.6990 H       1  UNL1        0.1690
     16  O         16.4350  -21.3240   -9.6340 O.2     1  UNL1       -0.2710
     17  C         17.1560  -22.8560   -7.1820 C.2     1  UNL1        0.0350
     18  C         15.9060  -23.3890   -6.8410 C.2     1  UNL1        0.0300
     19  C         15.4100  -23.2630   -5.5420 C.2     1  UNL1        0.0090
     20  C         16.1520  -22.6030   -4.5510 C.2     1  UNL1       -0.0560
     21  C         15.5900  -22.4920   -3.1600 C.3     1  UNL1        0.0490
     22  C         17.4200  -22.0940   -4.8770 C.2     1  UNL1       -0.0540
     23  C         17.9020  -22.2150   -6.1950 C.2     1  UNL1        0.0370
     24  C         18.2790  -21.4050   -3.8480 C.3     1  UNL1        0.0490
     25  C         23.4020  -21.4510  -11.8980 C.2     1  UNL1        0.2530
     26  O         24.2280  -21.0510  -11.0930 O.2     1  UNL1       -0.2680
     27  N         23.6320  -21.6500  -13.2360 N.am    1  UNL1       -0.3530
     28  H         22.8730  -21.9400  -13.8370 H       1  UNL1        0.1630
     29  C         24.8790  -21.2750  -13.8640 C.3     1  UNL1        0.1610
     30  C         24.8760  -21.5820  -15.3410 C.2     1  UNL1       -0.0410
     31  C         24.4990  -22.8570  -15.7950 C.2     1  UNL1        0.0090
     32  C         24.4780  -23.1500  -17.1610 C.2     1  UNL1        0.0010
     33  C         24.8380  -22.1710  -18.0900 C.2     1  UNL1        0.0000
     34  C         25.2050  -20.8930  -17.6560 C.2     1  UNL1        0.0010
     35  C         25.2170  -20.5990  -16.2900 C.2     1  UNL1        0.0090
@<TRIPOS>BOND
     1    33    34    2
     2    33    32    1
     3    34    35    1
     4    32    31    2
     5    35    30    2
     6    31    30    1
     7    30    29    1
     8    29    27    1
     9    28    27    1
    10    27    25   am
    11     3     2    2
    12     4     2    1
    13     4     5    2
    14     2     1   am
    15    25     5    1
    16    25    26    2
    17     5     6    1
    18     1    12    1
    19     1    11    1
    20    12    13    1
    21     6    11    2
    22     6     7    1
    23    11    10    1
    24     7     8    2
    25    16    13    2
    26    13    14   am
    27    10     9    2
    28     8     9    1
    29    15    14    1
    30    14    17    1
    31    17    18    2
    32    17    23    1
    33    18    19    1
    34    23    22    2
    35    19    20    2
    36    22    20    1
    37    22    24    1
    38    20    21    1
