@<TRIPOS>MOLECULE
9025_out_ligand_01.pdbqt
 29 32 0 0 0
SMALL
GASTEIGER

@<TRIPOS>ATOM
      1  C         18.3110  -22.4700  -10.2740 C.2     1  UNL1        0.1450
      2  N         17.9370  -21.4460  -11.0790 N.2     1  UNL1       -0.2230
      3  C         18.8720  -20.7660  -11.7650 C.2     1  UNL1        0.2370
      4  N         20.1950  -20.9670  -11.7680 N.2     1  UNL1       -0.2210
      5  C         20.5580  -21.9900  -10.9670 C.2     1  UNL1        0.1680
      6  C         19.6850  -22.7610  -10.2140 C.2     1  UNL1        0.0770
      7  C         20.5120  -23.6850   -9.5550 C.2     1  UNL1        0.1580
      8  N         21.8030  -23.5380   -9.8480 N.2     1  UNL1       -0.1770
      9  N         21.8410  -22.4850  -10.7240 N.pl3   1  UNL1       -0.2150
     10  N         17.3750  -23.2200   -9.5440 N.pl3   1  UNL1       -0.3400
     11  H         16.8020  -23.8240  -10.1180 H       1  UNL1        0.1670
     12  C         17.0940  -23.3140   -8.1700 C.2     1  UNL1        0.0330
     13  C         17.8310  -24.0910   -7.2710 C.2     1  UNL1        0.0300
     14  C         17.5110  -24.1310   -5.9050 C.2     1  UNL1        0.0190
     15  C         16.4450  -23.3780   -5.4100 C.2     1  UNL1        0.0320
     16  C         15.6910  -22.6040   -6.2960 C.2     1  UNL1        0.0190
     17  C         16.0180  -22.5700   -7.6570 C.2     1  UNL1        0.0300
     18  C         16.0620  -23.3830   -3.9740 C.2     1  UNL1        0.2490
     19  N         16.0930  -22.1890   -3.3070 N.am    1  UNL1       -0.3660
     20  H         15.7050  -22.2000   -2.3720 H       1  UNL1        0.1590
     21  H         16.1070  -21.3030   -3.7900 H       1  UNL1        0.1590
     22  O         15.6960  -24.4050   -3.4090 O.2     1  UNL1       -0.2680
     23  C         23.1000  -22.0530  -11.2470 C.2     1  UNL1        0.0600
     24  C         24.1010  -21.6250  -10.3530 C.2     1  UNL1        0.0340
     25  C         25.3430  -21.1960  -10.8290 C.2     1  UNL1        0.0440
     26  C         25.5890  -21.1930  -12.1950 C.2     1  UNL1        0.1160
     27  F         26.7780  -20.7830  -12.6530 F       1  UNL1       -0.2060
     28  C         24.6150  -21.6120  -13.0930 C.2     1  UNL1        0.0440
     29  C         23.3700  -22.0410  -12.6230 C.2     1  UNL1        0.0340
@<TRIPOS>BOND
     1    28    29    1
     2    28    26    2
     3    27    26    1
     4    29    23    2
     5    26    25    1
     6     4     3    2
     7     4     5    1
     8     3     2    1
     9    23     9    1
    10    23    24    1
    11     2     1    2
    12     5     9    1
    13     5     6    2
    14    25    24    2
    15     9     8    1
    16     1     6    1
    17     1    10    1
    18     6     7    1
    19    11    10    1
    20     8     7    2
    21    10    12    1
    22    12    17    2
    23    12    13    1
    24    17    16    1
    25    13    14    2
    26    16    15    2
    27    14    15    1
    28    15    18    1
    29    18    22    2
    30    18    19   am
    31    21    19    1
    32    19    20    1
