@<TRIPOS>MOLECULE
902_out_ligand_01.pdbqt
 32 34 0 0 0
SMALL
GASTEIGER

@<TRIPOS>ATOM
      1  C         19.6610  -22.9220   -9.9460 C.2     1  UNL1        0.0330
      2  C         18.9930  -22.0870  -10.8530 C.2     1  UNL1        0.0170
      3  C         17.6170  -21.8740  -10.7290 C.2     1  UNL1        0.0030
      4  C         16.9070  -22.4860   -9.6950 C.2     1  UNL1        0.0250
      5  C         17.5810  -23.3060   -8.7840 C.2     1  UNL1        0.0750
      6  C         18.9570  -23.5270   -8.8990 C.2     1  UNL1        0.0410
      7  C         21.1260  -23.1550  -10.0480 C.2     1  UNL1        0.2560
      8  O         21.6000  -24.1130   -9.4520 O.2     1  UNL1       -0.2670
      9  N         21.7960  -22.2490  -10.8510 N.am    1  UNL1       -0.3230
     10  H         21.2280  -21.5890  -11.3650 H       1  UNL1        0.1690
     11  C         23.1820  -22.1960  -11.1040 C.2     1  UNL1        0.0350
     12  C         24.0830  -21.4350  -10.3590 C.2     1  UNL1        0.0290
     13  C         25.4460  -21.4350  -10.6760 C.2     1  UNL1        0.0030
     14  C         25.9190  -22.1920  -11.7450 C.2     1  UNL1        0.0160
     15  C         25.0310  -22.9550  -12.5150 C.2     1  UNL1        0.0500
     16  C         23.6650  -22.9550  -12.1790 C.2     1  UNL1        0.0450
     17  C         25.5340  -23.7960  -13.6610 C.3     1  UNL1        0.4170
     18  F         25.4890  -23.1540  -14.8610 F       1  UNL1       -0.1660
     19  F         24.8190  -24.9450  -13.8280 F       1  UNL1       -0.1660
     20  F         26.8270  -24.1850  -13.4900 F       1  UNL1       -0.1660
     21  S         16.6880  -24.0880   -7.4650 S.O2    1  UNL1        0.2460
     22  O         15.5160  -24.7190   -8.0370 O.2     1  UNL1       -0.2060
     23  O         17.6480  -24.8280   -6.6810 O.2     1  UNL1       -0.2060
     24  N         16.0930  -22.7390   -6.6140 N.pl3   1  UNL1       -0.1780
     25  H         15.1580  -22.9840   -6.2830 H       1  UNL1        0.1460
     26  C         16.9390  -22.3120   -5.5330 C.2     1  UNL1        0.0610
     27  C         18.0790  -21.5500   -5.8020 C.2     1  UNL1        0.0270
     28  C         18.8690  -21.0870   -4.7460 C.2     1  UNL1        0.0020
     29  C         18.5150  -21.3710   -3.4240 C.2     1  UNL1        0.0030
     30  C         17.3680  -22.1150   -3.1530 C.2     1  UNL1        0.0440
     31  C         16.5820  -22.5740   -4.2060 C.2     1  UNL1        0.1380
     32  F         15.4810  -23.2880   -3.9310 F       1  UNL1       -0.2040
@<TRIPOS>BOND
     1    18    17    1
     2    19    17    1
     3    17    20    1
     4    17    15    1
     5    15    16    1
     6    15    14    2
     7    16    11    2
     8    14    13    1
     9    10     9    1
    10    11     9    1
    11    11    12    1
    12     2     3    1
    13     2     1    2
    14     9     7   am
    15     3     4    2
    16    13    12    2
    17     7     1    1
    18     7     8    2
    19     1     6    1
    20     4     5    1
    21     6     5    2
    22     5    21    1
    23    22    21    2
    24    21    23    2
    25    21    24    1
    26    24    25    1
    27    24    26    1
    28    27    26    2
    29    27    28    1
    30    26    31    1
    31    28    29    2
    32    31    32    1
    33    31    30    2
    34    29    30    1
