@<TRIPOS>MOLECULE
9030_out_ligand_01.pdbqt
 33 37 0 0 0
SMALL
GASTEIGER

@<TRIPOS>ATOM
      1  C         23.4420  -22.3530  -12.0480 C.2     1  UNL1        0.0900
      2  C         23.1500  -21.6980  -13.2460 C.2     1  UNL1        0.0380
      3  C         21.8660  -21.2070  -13.4870 C.2     1  UNL1        0.0040
      4  C         20.8670  -21.3680  -12.5270 C.2     1  UNL1        0.0150
      5  C         21.1590  -22.0180  -11.3200 C.2     1  UNL1        0.0130
      6  C         22.4540  -22.4960  -11.0730 C.2     1  UNL1        0.0530
      7  C         20.1210  -22.1920  -10.2700 C.ar    1  UNL1        0.1420
      8  N         20.4150  -22.0070   -9.0180 N.ar    1  UNL1       -0.2220
      9  C         19.3860  -22.1970   -8.1530 C.ar    1  UNL1        0.1160
     10  S         19.5810  -21.9720   -6.4720 S.2     1  UNL1       -0.0730
     11  C         18.0970  -22.5770   -8.4700 C.ar    1  UNL1        0.0750
     12  C         17.9560  -22.3760   -6.1670 C.ar    1  UNL1       -0.0080
     13  C         17.2580  -22.6960   -7.3170 C.ar    1  UNL1       -0.0260
     14  C         17.3930  -22.4010   -4.7790 C.3     1  UNL1        0.0510
     15  C         15.8080  -23.0750   -7.2890 C.3     1  UNL1        0.0410
     16  C         15.3350  -23.4280   -5.8690 C.3     1  UNL1        0.0090
     17  C         15.8490  -22.4150   -4.8220 C.3     1  UNL1       -0.0140
     18  C         15.2790  -22.7270   -3.4400 C.3     1  UNL1        0.0100
     19  C         17.7940  -22.7930   -9.8690 C.ar    1  UNL1        0.2600
     20  O         16.7010  -23.1450  -10.2980 O.2     1  UNL1       -0.2670
     21  N         18.8620  -22.5670  -10.7100 N.ar    1  UNL1       -0.3070
     22  H         18.6790  -22.7660  -11.6810 H       1  UNL1        0.1700
     23  O         24.7360  -22.7810  -11.9050 O.2     1  UNL1       -0.2290
     24  S         25.9360  -21.7440  -11.5170 S.3     1  UNL1        0.3030
     25  O         25.4010  -20.7060  -10.6570 O.3     1  UNL1       -0.1930
     26  O         27.1120  -22.5000  -11.1290 O.3     1  UNL1       -0.1930
     27  C         26.3020  -20.9820  -13.0850 C.2     1  UNL1        0.0860
     28  C         26.6050  -21.7840  -14.1880 C.2     1  UNL1        0.0260
     29  C         26.8810  -21.1840  -15.4180 C.2     1  UNL1        0.0080
     30  C         26.8570  -19.7880  -15.5480 C.2     1  UNL1       -0.0620
     31  C         27.1170  -19.1480  -16.8810 C.3     1  UNL1        0.0480
     32  C         26.5250  -18.9990  -14.4390 C.2     1  UNL1        0.0080
     33  C         26.2490  -19.5910  -13.2050 C.2     1  UNL1        0.0260
@<TRIPOS>BOND
     1    31    30    1
     2    30    29    2
     3    30    32    1
     4    29    28    1
     5    32    33    2
     6    28    27    2
     7     3     2    1
     8     3     4    2
     9     2     1    2
    10    33    27    1
    11    27    24    1
    12     4     5    1
    13     1    23    1
    14     1     6    1
    15    23    24    1
    16    22    21    1
    17    24    26    1
    18    24    25    1
    19     5     6    2
    20     5     7    1
    21    21     7   ar
    22    21    19   ar
    23    20    19    2
    24     7     8   ar
    25    19    11   ar
    26     8     9   ar
    27    11     9   ar
    28    11    13   ar
    29     9    10   ar
    30    13    15    1
    31    13    12   ar
    32    15    16    1
    33    10    12   ar
    34    12    14    1
    35    16    17    1
    36    17    14    1
    37    17    18    1
