@<TRIPOS>MOLECULE
9034_out_ligand_01.pdbqt
 30 32 0 0 0
SMALL
GASTEIGER

@<TRIPOS>ATOM
      1  C         21.6480  -22.2670  -11.4010 C.2     1  UNL1        0.0490
      2  C         22.3410  -23.0720  -10.5850 C.2     1  UNL1        0.0920
      3  C         21.6720  -23.8210   -9.5090 C.2     1  UNL1        0.2490
      4  O         22.3570  -24.5070   -8.7430 O.2     1  UNL1       -0.2680
      5  N         20.2900  -23.7150   -9.4050 N.am    1  UNL1       -0.3050
      6  C         19.5380  -22.8010  -10.2100 C.2     1  UNL1        0.0490
      7  C         18.1620  -22.5910  -10.0210 C.2     1  UNL1        0.0300
      8  C         17.4580  -21.6860  -10.8140 C.2     1  UNL1        0.0020
      9  C         18.1160  -20.9670  -11.8020 C.2     1  UNL1        0.0010
     10  C         19.4820  -21.1530  -12.0000 C.2     1  UNL1        0.0150
     11  C         20.2030  -22.0720  -11.2180 C.2     1  UNL1        0.0070
     12  C         19.6540  -24.4930   -8.3420 C.3     1  UNL1        0.2350
     13  C         18.9700  -23.5570   -7.3410 C.2     1  UNL1        0.2400
     14  O         19.5420  -22.5540   -6.9170 O.2     1  UNL1       -0.2710
     15  N         17.7300  -24.0230   -6.9520 N.am    1  UNL1       -0.3260
     16  H         17.4990  -24.9720   -7.2450 H       1  UNL1        0.1690
     17  C         16.8040  -23.4020   -6.0900 C.2     1  UNL1        0.0370
     18  C         17.0940  -23.4270   -4.7200 C.2     1  UNL1        0.0290
     19  C         16.2090  -22.8760   -3.7880 C.2     1  UNL1        0.0050
     20  C         15.0410  -22.2660   -4.2250 C.2     1  UNL1        0.0420
     21  C         14.7710  -22.2100   -5.5890 C.2     1  UNL1        0.1180
     22  F         13.6770  -21.5600   -6.0100 F       1  UNL1       -0.2060
     23  C         15.6340  -22.7790   -6.5200 C.2     1  UNL1        0.0710
     24  C         22.4630  -21.6160  -12.4600 C.2     1  UNL1        0.2520
     25  N         23.8170  -21.8030  -12.2980 N.am    1  UNL1       -0.3570
     26  H         24.1550  -22.2550  -11.4550 H       1  UNL1        0.1620
     27  O         21.9510  -20.9510  -13.3520 O.2     1  UNL1       -0.2680
     28  C         24.7760  -21.1700  -13.1750 C.3     1  UNL1        0.1220
     29  C         25.9770  -20.6280  -12.4030 C.3     1  UNL1        0.0150
     30  C         25.8690  -20.9480  -10.9220 C.3     1  UNL1        0.0060
@<TRIPOS>BOND
     1    27    24    2
     2    28    29    1
     3    28    25    1
     4    24    25   am
     5    24     1    1
     6    29    30    1
     7    25    26    1
     8    10     9    2
     9    10    11    1
    10     9     8    1
    11     1    11    1
    12     1     2    2
    13    11     6    2
    14     8     7    2
    15     2     3    1
    16     6     7    1
    17     6     5    1
    18     3     5   am
    19     3     4    2
    20     5    12    1
    21    12    13    1
    22    13    15   am
    23    13    14    2
    24    16    15    1
    25    15    17    1
    26    23    17    2
    27    23    21    1
    28    17    18    1
    29    22    21    1
    30    21    20    2
    31    18    19    2
    32    20    19    1
