@<TRIPOS>MOLECULE
903_out_ligand_01.pdbqt
 31 33 0 0 0
SMALL
GASTEIGER

@<TRIPOS>ATOM
      1  C         17.0560  -22.8990   -8.8210 C.2     1  UNL1        0.0750
      2  C         16.3550  -22.0360   -9.6670 C.2     1  UNL1        0.0250
      3  C         17.0140  -21.4290  -10.7380 C.2     1  UNL1        0.0090
      4  C         18.3770  -21.6730  -10.9730 C.2     1  UNL1       -0.0460
      5  C         19.0450  -21.0300  -12.1570 C.3     1  UNL1        0.0490
      6  C         19.0740  -22.5140  -10.0830 C.2     1  UNL1        0.0390
      7  C         18.4180  -23.1310   -9.0110 C.2     1  UNL1        0.0420
      8  S         16.2170  -23.6610   -7.4530 S.O2    1  UNL1        0.2460
      9  O         15.6710  -24.9120   -7.9400 O.2     1  UNL1       -0.2060
     10  O         15.3620  -22.6690   -6.8360 O.2     1  UNL1       -0.2060
     11  N         17.5020  -24.0700   -6.4250 N.pl3   1  UNL1       -0.1790
     12  H         17.2830  -24.9730   -5.9950 H       1  UNL1        0.1460
     13  C         17.8870  -23.0770   -5.4670 C.2     1  UNL1        0.0560
     14  C         18.6300  -21.9700   -5.8760 C.2     1  UNL1        0.0270
     15  C         18.9330  -20.9650   -4.9590 C.2     1  UNL1        0.0020
     16  C         18.4980  -21.0710   -3.6380 C.2     1  UNL1        0.0030
     17  C         17.7510  -22.1790   -3.2270 C.2     1  UNL1        0.0380
     18  C         17.4270  -23.1810   -4.1430 C.2     1  UNL1        0.0900
     19  O         16.7140  -24.3140   -3.8380 O.2     1  UNL1       -0.3540
     20  C         15.3360  -24.0990   -3.5480 C.3     1  UNL1        0.2100
     21  C         20.5170  -22.8080  -10.2440 C.2     1  UNL1        0.2560
     22  O         20.9320  -23.8830   -9.8340 O.2     1  UNL1       -0.2670
     23  N         21.2290  -21.7800  -10.8270 N.am    1  UNL1       -0.3230
     24  H         20.7130  -20.9320  -11.0320 H       1  UNL1        0.1690
     25  C         22.6050  -21.7570  -11.1300 C.2     1  UNL1        0.0350
     26  C         22.9680  -21.9400  -12.4710 C.2     1  UNL1        0.0310
     27  C         24.3130  -21.9350  -12.8530 C.2     1  UNL1        0.0210
     28  C         25.3030  -21.7480  -11.8910 C.2     1  UNL1        0.0110
     29 BR         27.1210  -21.7400  -12.4020 Br      1  UNL1       -0.0510
     30  C         24.9560  -21.5660  -10.5560 C.2     1  UNL1        0.0210
     31  C         23.6080  -21.5710  -10.1770 C.2     1  UNL1        0.0310
@<TRIPOS>BOND
     1    27    26    1
     2    27    28    2
     3    26    25    2
     4    29    28    1
     5     5     4    1
     6    28    30    1
     7    25    23    1
     8    25    31    1
     9    24    23    1
    10     4     3    2
    11     4     6    1
    12    23    21   am
    13     3     2    1
    14    30    31    2
    15    21     6    1
    16    21    22    2
    17     6     7    2
    18     2     1    2
    19     7     1    1
    20     1     8    1
    21     9     8    2
    22     8    10    2
    23     8    11    1
    24    11    12    1
    25    11    13    1
    26    14    13    2
    27    14    15    1
    28    13    18    1
    29    15    16    2
    30    18    19    1
    31    18    17    2
    32    19    20    1
    33    16    17    1
