@<TRIPOS>MOLECULE
9040_out_ligand_01.pdbqt
 33 37 0 0 0
SMALL
GASTEIGER

@<TRIPOS>ATOM
      1  C         22.0940  -21.2560  -12.7780 C.3     1  UNL1        0.0500
      2  C         21.1950  -21.5950  -11.6220 C.2     1  UNL1       -0.0390
      3  C         19.8160  -21.3490  -11.7610 C.2     1  UNL1        0.0090
      4  C         18.9180  -21.6730  -10.7420 C.2     1  UNL1        0.0140
      5  C         19.3900  -22.2480   -9.5650 C.2     1  UNL1       -0.0030
      6  C         20.7480  -22.5310   -9.4060 C.2     1  UNL1        0.0390
      7  C         21.6510  -22.1950  -10.4300 C.2     1  UNL1        0.0860
      8  C         18.4220  -22.6210   -8.5060 C.ar    1  UNL1        0.0990
      9  N         17.4290  -23.3860   -8.8790 N.ar    1  UNL1       -0.1630
     10  N         16.5720  -23.7600   -7.8850 N.ar    1  UNL1       -0.1970
     11  C         15.4630  -24.5630   -7.9840 C.ar    1  UNL1        0.1480
     12  C         16.6500  -23.4140   -6.5590 C.ar    1  UNL1        0.1850
     13  C         15.0150  -25.1670   -9.2550 C.3     1  UNL1        0.0950
     14  N         14.9070  -24.6880   -6.7940 N.ar    1  UNL1       -0.1330
     15  N         15.6570  -23.9620   -5.8930 N.ar    1  UNL1       -0.1270
     16  C         17.7190  -22.5480   -6.1250 C.ar    1  UNL1        0.0260
     17  C         17.8460  -22.1270   -4.7990 C.2     1  UNL1        0.0160
     18  C         18.6300  -22.1140   -7.1010 C.ar    1  UNL1        0.0090
     19  C         18.8780  -21.2570   -4.4450 C.2     1  UNL1        0.0010
     20  C         19.7730  -20.8020   -5.4160 C.2     1  UNL1        0.0010
     21  C         19.6490  -21.2220   -6.7430 C.2     1  UNL1        0.0150
     22  S         23.3730  -22.5850  -10.1590 S.O2    1  UNL1        0.2590
     23  O         24.1140  -21.3420  -10.1290 O.2     1  UNL1       -0.2010
     24  O         23.4640  -23.5440   -9.0850 O.2     1  UNL1       -0.2010
     25  N         23.8000  -23.3750  -11.5630 N.3     1  UNL1       -0.3110
     26  H         23.0390  -23.6270  -12.1900 H       1  UNL1        0.1720
     27  C         25.1560  -23.2690  -12.0810 C.3     1  UNL1        0.1720
     28  C         25.1810  -23.3230  -13.5810 C.2     1  UNL1       -0.0220
     29  C         25.0530  -22.1640  -14.3520 C.2     1  UNL1        0.0120
     30  C         25.0670  -22.2520  -15.7410 C.2     1  UNL1        0.0200
     31  C         25.2040  -23.5050  -16.3170 C.2     1  UNL1        0.1160
     32  N         25.3230  -24.6470  -15.6060 N.2     1  UNL1       -0.2730
     33  C         25.3080  -24.5310  -14.2590 C.2     1  UNL1        0.1240
@<TRIPOS>BOND
     1    31    30    2
     2    31    32    1
     3    30    29    1
     4    32    33    2
     5    29    28    2
     6    33    28    1
     7    28    27    1
     8     1     2    1
     9    26    25    1
    10    27    25    1
    11     3     2    2
    12     3     4    1
    13     2     7    1
    14    25    22    1
    15     4     5    2
    16     7    22    1
    17     7     6    2
    18    22    23    2
    19    22    24    2
    20     5     6    1
    21     5     8    1
    22    13    11    1
    23     9     8   ar
    24     9    10   ar
    25     8    18   ar
    26    11    10   ar
    27    11    14   ar
    28    10    12   ar
    29    18    21    1
    30    18    16   ar
    31    14    15   ar
    32    21    20    2
    33    12    16   ar
    34    12    15   ar
    35    16    17    1
    36    20    19    1
    37    17    19    2
