@<TRIPOS>MOLECULE
906_out_ligand_01.pdbqt
 43 46 0 0 0
SMALL
GASTEIGER

@<TRIPOS>ATOM
      1  O         20.2820  -23.9080   -8.4720 O.2     1  UNL1       -0.2670
      2  C         20.5790  -22.7930   -8.0590 C.2     1  UNL1        0.2560
      3  N         21.5530  -21.9480   -8.5650 N.am    1  UNL1       -0.3230
      4  H         21.6030  -21.0150   -8.1800 H       1  UNL1        0.1690
      5  C         19.8030  -22.2380   -6.9150 C.2     1  UNL1        0.0330
      6  C         20.3030  -21.1060   -6.2540 C.2     1  UNL1        0.0170
      7  C         19.6200  -20.5640   -5.1620 C.2     1  UNL1        0.0030
      8  C         18.4280  -21.1410   -4.7290 C.2     1  UNL1        0.0250
      9  C         17.9170  -22.2530   -5.4070 C.2     1  UNL1        0.0800
     10  C         18.5910  -22.8040   -6.5030 C.2     1  UNL1        0.0420
     11  S         16.3730  -22.9700   -4.8970 S.O2    1  UNL1        0.2630
     12  O         16.5860  -24.3860   -4.6870 O.2     1  UNL1       -0.2000
     13  O         15.8620  -22.1210   -3.8410 O.2     1  UNL1       -0.2000
     14  N         15.3630  -22.7550   -6.2120 N.pl3   1  UNL1       -0.2810
     15  H         14.3810  -22.6820   -5.9530 H       1  UNL1        0.1790
     16  C         15.7020  -23.0440   -7.5650 C.2     1  UNL1        0.0430
     17  C         15.2290  -24.2530   -8.0880 C.2     1  UNL1        0.0300
     18  C         15.4550  -24.5920   -9.4240 C.2     1  UNL1        0.0030
     19  C         16.1430  -23.7120  -10.2560 C.2     1  UNL1        0.0160
     20  C         16.6130  -22.4890   -9.7580 C.2     1  UNL1        0.0500
     21  C         16.3770  -22.1600   -8.4090 C.2     1  UNL1        0.0460
     22  C         17.3210  -21.5130  -10.6670 C.3     1  UNL1        0.4170
     23  F         17.3550  -21.9180  -11.9690 F       1  UNL1       -0.1660
     24  F         18.6170  -21.3180  -10.2990 F       1  UNL1       -0.1660
     25  F         16.7450  -20.2770  -10.6770 F       1  UNL1       -0.1660
     26  C         22.4480  -22.2090   -9.6260 C.2     1  UNL1        0.0350
     27  C         23.7420  -22.7050   -9.4530 C.2     1  UNL1        0.0310
     28  C         24.5680  -22.9380  -10.5590 C.2     1  UNL1        0.0270
     29  C         24.0940  -22.6720  -11.8450 C.2     1  UNL1        0.0810
     30  C         22.8050  -22.1740  -12.0350 C.2     1  UNL1        0.0270
     31  C         21.9880  -21.9430  -10.9250 C.2     1  UNL1        0.0310
     32  S         25.1550  -22.9910  -13.2420 S.O2    1  UNL1        0.2840
     33  O         24.9800  -24.3950  -13.5650 O.2     1  UNL1       -0.1980
     34  O         26.4650  -22.4680  -12.9000 O.2     1  UNL1       -0.1980
     35  N         24.5080  -22.0790  -14.4090 N.2     1  UNL1       -0.1470
     36  C         25.1800  -21.7070  -15.4630 C.2     1  UNL1        0.1130
     37  C         26.6450  -22.0560  -15.7370 C.3     1  UNL1        0.0790
     38  N         24.4840  -20.8880  -16.3250 N.pl3   1  UNL1       -0.3780
     39  C         26.8890  -22.5420  -17.1600 C.3     1  UNL1        0.0080
     40  C         27.1170  -21.4050  -18.1530 C.3     1  UNL1        0.0020
     41  C         26.1450  -20.2320  -18.0270 C.3     1  UNL1        0.0200
     42  C         24.7170  -20.6660  -17.7350 C.3     1  UNL1        0.1210
     43  H         23.5070  -20.8050  -16.0580 H       1  UNL1        0.1600
@<TRIPOS>BOND
     1    40    41    1
     2    40    39    1
     3    41    42    1
     4    42    38    1
     5    39    37    1
     6    38    43    1
     7    38    36    1
     8    37    36    1
     9    36    35    2
    10    35    32    1
    11    33    32    2
    12    32    34    2
    13    32    29    1
    14    30    29    2
    15    30    31    1
    16    23    22    1
    17    29    28    1
    18    31    26    2
    19    25    22    1
    20    22    24    1
    21    22    20    1
    22    28    27    2
    23    19    20    2
    24    19    18    1
    25    20    21    1
    26    26    27    1
    27    26     3    1
    28    18    17    2
    29     3     4    1
    30     3     2   am
    31     1     2    2
    32    21    16    2
    33    17    16    1
    34     2     5    1
    35    16    14    1
    36     5    10    2
    37     5     6    1
    38    10     9    1
    39     6     7    2
    40    14    15    1
    41    14    11    1
    42     9    11    1
    43     9     8    2
    44     7     8    1
    45    11    12    2
    46    11    13    2
