@<TRIPOS>MOLECULE
9094_out_ligand_01.pdbqt
 34 37 0 0 0
SMALL
GASTEIGER

@<TRIPOS>ATOM
      1  C         23.0100  -23.1880  -10.6520 C.2     1  UNL1        0.0440
      2  C         22.6620  -23.6450   -9.3850 C.2     1  UNL1        0.0320
      3  C         21.3600  -23.4680   -8.9020 C.2     1  UNL1        0.0350
      4  C         20.4020  -22.8120   -9.7000 C.ar    1  UNL1        0.0760
      5  N         19.0840  -22.5720   -9.3520 N.ar    1  UNL1       -0.2330
      6  C         18.4770  -21.9620  -10.3400 C.ar    1  UNL1        0.1360
      7  S         19.4250  -21.5920  -11.7100 S.2     1  UNL1       -0.0610
      8  C         20.7800  -22.3520  -10.9630 C.ar    1  UNL1        0.0380
      9  C         22.0820  -22.5260  -11.4610 C.2     1  UNL1        0.0510
     10  S         16.7730  -21.5910  -10.2010 S.3     1  UNL1       -0.0940
     11  C         16.1230  -23.2320   -9.7790 C.3     1  UNL1        0.1840
     12  C         16.1270  -23.5610   -8.2900 C.2     1  UNL1        0.2310
     13  O         15.8670  -24.7080   -7.9310 O.2     1  UNL1       -0.2720
     14  N         16.3640  -22.4810   -7.4600 N.am    1  UNL1       -0.3260
     15  H         16.7080  -21.6480   -7.9270 H       1  UNL1        0.1690
     16  C         16.3640  -22.4410   -6.0470 C.2     1  UNL1        0.0400
     17  C         15.2030  -22.6530   -5.2920 C.2     1  UNL1        0.0300
     18  C         15.2340  -22.6030   -3.8950 C.2     1  UNL1        0.0020
     19  C         16.4250  -22.3390   -3.2320 C.2     1  UNL1        0.0010
     20  C         17.5890  -22.1250   -3.9650 C.2     1  UNL1        0.0090
     21  C         17.5750  -22.1660   -5.3720 C.2     1  UNL1       -0.0350
     22  C         18.8710  -21.9320   -6.1020 C.3     1  UNL1        0.0500
     23  N         24.3480  -23.3460  -11.1060 N.pl3   1  UNL1       -0.2810
     24  H         24.8680  -24.1590  -10.7780 H       1  UNL1        0.1790
     25  S         25.3460  -21.9780  -11.1340 S.O2    1  UNL1        0.2630
     26  O         24.7300  -20.9250  -10.3550 O.2     1  UNL1       -0.2000
     27  O         26.6800  -22.4510  -10.8310 O.2     1  UNL1       -0.2000
     28  C         25.3250  -21.5180  -12.8470 C.2     1  UNL1        0.0790
     29  C         24.9740  -22.4730  -13.8050 C.2     1  UNL1        0.0260
     30  C         24.9420  -22.1130  -15.1530 C.2     1  UNL1        0.0080
     31  C         25.2740  -20.8090  -15.5470 C.2     1  UNL1       -0.0620
     32  C         25.2030  -20.4160  -16.9950 C.3     1  UNL1        0.0480
     33  C         25.6230  -19.8620  -14.5740 C.2     1  UNL1        0.0080
     34  C         25.6590  -20.2160  -13.2240 C.2     1  UNL1        0.0260
@<TRIPOS>BOND
     1    32    31    1
     2    31    30    2
     3    31    33    1
     4    30    29    1
     5    33    34    2
     6    29    28    2
     7    34    28    1
     8    28    25    1
     9     7     8   ar
    10     7     6   ar
    11     9     8    1
    12     9     1    2
    13    25    23    1
    14    25    27    2
    15    25    26    2
    16    23    24    1
    17    23     1    1
    18     8     4   ar
    19     1     2    1
    20     6    10    1
    21     6     5   ar
    22    10    11    1
    23    11    12    1
    24     4     5   ar
    25     4     3    1
    26     2     3    2
    27    12    13    2
    28    12    14   am
    29    15    14    1
    30    14    16    1
    31    22    21    1
    32    16    21    2
    33    16    17    1
    34    21    20    1
    35    17    18    2
    36    20    19    2
    37    18    19    1
