@<TRIPOS>MOLECULE
909_out_ligand_01.pdbqt
 33 35 0 0 0
SMALL
GASTEIGER

@<TRIPOS>ATOM
      1  C         20.5850  -23.1780   -8.1370 C.2     1  UNL1        0.0320
      2  C         19.6860  -24.2540   -8.0800 C.2     1  UNL1        0.0180
      3  C         18.5910  -24.2150   -7.2130 C.2     1  UNL1        0.0260
      4  C         18.4010  -23.0940   -6.4010 C.2     1  UNL1        0.0740
      5  C         19.2730  -22.0010   -6.4700 C.2     1  UNL1        0.0260
      6  C         20.3650  -22.0430   -7.3410 C.2     1  UNL1        0.0180
      7  S         17.0050  -23.0190   -5.3000 S.O2    1  UNL1        0.2450
      8  O         17.3040  -22.0590   -4.2590 O.2     1  UNL1       -0.2060
      9  O         16.6110  -24.3800   -5.0090 O.2     1  UNL1       -0.2060
     10  N         15.8530  -22.2810   -6.3240 N.pl3   1  UNL1       -0.1810
     11  H         14.9320  -22.5470   -5.9710 H       1  UNL1        0.1460
     12  C         15.9910  -22.6500   -7.7030 C.2     1  UNL1        0.0230
     13  C         15.3580  -23.8000   -8.1680 C.2     1  UNL1        0.0240
     14  C         15.4460  -24.1480   -9.5150 C.2     1  UNL1        0.0030
     15  C         16.1570  -23.3350  -10.3990 C.2     1  UNL1        0.0160
     16  C         16.7790  -22.1600   -9.9460 C.2     1  UNL1        0.0490
     17  C         16.6830  -21.8200   -8.5870 C.2     1  UNL1        0.0400
     18  C         17.5290  -21.2830  -10.9170 C.3     1  UNL1        0.4170
     19  F         18.8170  -21.0630  -10.5300 F       1  UNL1       -0.1660
     20  F         17.6010  -21.8250  -12.1640 F       1  UNL1       -0.1660
     21  F         16.9740  -20.0490  -11.0770 F       1  UNL1       -0.1660
     22  C         21.7380  -23.2670   -9.0800 C.2     1  UNL1        0.2560
     23  N         22.0540  -22.0840   -9.7250 N.am    1  UNL1       -0.3220
     24  H         21.5520  -21.2620   -9.4260 H       1  UNL1        0.1690
     25  O         22.3170  -24.3410   -9.1750 O.2     1  UNL1       -0.2670
     26  C         23.0640  -21.8660  -10.6940 C.2     1  UNL1        0.0410
     27  C         24.4200  -21.7910  -10.3590 C.2     1  UNL1        0.0300
     28  C         25.3950  -21.5770  -11.3390 C.2     1  UNL1        0.0090
     29  C         25.0370  -21.4460  -12.6800 C.2     1  UNL1       -0.0610
     30  C         26.0750  -21.1850  -13.7290 C.3     1  UNL1        0.0480
     31  C         23.6830  -21.5110  -13.0230 C.2     1  UNL1        0.0150
     32  C         22.6900  -21.7270  -12.0480 C.2     1  UNL1       -0.0350
     33  C         21.2550  -21.7910  -12.5010 C.3     1  UNL1        0.0500
@<TRIPOS>BOND
     1    30    29    1
     2    31    29    2
     3    31    32    1
     4    29    28    1
     5    33    32    1
     6    20    18    1
     7    32    26    2
     8    28    27    2
     9    21    18    1
    10    18    19    1
    11    18    16    1
    12    26    27    1
    13    26    23    1
    14    15    16    2
    15    15    14    1
    16    16    17    1
    17    23    24    1
    18    23    22   am
    19    14    13    2
    20    25    22    2
    21    22     1    1
    22    17    12    2
    23    13    12    1
    24     1     2    2
    25     1     6    1
    26     2     3    1
    27    12    10    1
    28     6     5    2
    29     3     4    2
    30     5     4    1
    31     4     7    1
    32    10    11    1
    33    10     7    1
    34     7     9    2
    35     7     8    2
