@<TRIPOS>MOLECULE
9104_out_ligand_01.pdbqt
 34 37 0 0 0
SMALL
GASTEIGER

@<TRIPOS>ATOM
      1  C         21.6680  -22.7730  -10.8980 C.2     1  UNL1        0.1030
      2  C         20.3820  -23.0370  -10.4210 C.2     1  UNL1        0.0510
      3  C         19.2970  -22.2430  -10.8270 C.2     1  UNL1       -0.0320
      4  C         19.4970  -21.1780  -11.7140 C.2     1  UNL1        0.0140
      5  C         20.7740  -20.9030  -12.1960 C.2     1  UNL1        0.0410
      6  C         21.8400  -21.7090  -11.7960 C.2     1  UNL1        0.1120
      7  C         17.9470  -22.5350  -10.3400 C.3     1  UNL1        0.0320
      8  C         17.5370  -22.6140   -9.0570 C.ar    1  UNL1        0.0820
      9  C         18.4090  -22.4170   -7.8450 C.ar    1  UNL1        0.1660
     10  C         16.0600  -22.9370   -8.8270 C.ar    1  UNL1        0.2830
     11  N         17.7190  -22.5750   -6.6850 N.ar    1  UNL1       -0.1790
     12  O         18.2810  -22.2400   -5.4590 O.3     1  UNL1       -0.2320
     13  C         16.3780  -22.7130   -6.5540 C.ar    1  UNL1        0.1630
     14  C         17.1760  -22.3160   -4.5940 C.2     1  UNL1        0.0770
     15  C         17.4410  -22.0610   -3.1530 C.3     1  UNL1        0.0790
     16  C         15.9910  -22.5990   -5.1520 C.2     1  UNL1        0.0870
     17  N         15.5570  -22.8860   -7.5320 N.ar    1  UNL1       -0.1890
     18  O         15.3360  -23.2230   -9.7740 O.2     1  UNL1       -0.2650
     19  N         19.6720  -22.1330   -7.9020 N.pl3   1  UNL1       -0.2810
     20  H         19.7820  -21.1150   -7.8390 H       1  UNL1        0.1880
     21  O         22.8040  -23.4590  -10.5560 O.2     1  UNL1       -0.3490
     22  C         23.1250  -23.5350   -9.1700 C.3     1  UNL1        0.1710
     23  C         23.1570  -22.1190   -8.6220 C.3     1  UNL1        0.0340
     24  O         23.1170  -21.3900  -12.2660 O.3     1  UNL1       -0.2720
     25  C         23.1710  -21.3080  -13.6420 C.2     1  UNL1        0.2980
     26  O         22.5790  -20.5180  -14.3650 O.2     1  UNL1       -0.2590
     27  C         24.1200  -22.3260  -14.1690 C.2     1  UNL1        0.0420
     28  C         24.8150  -23.1180  -13.2460 C.2     1  UNL1        0.0180
     29  C         25.7170  -24.0850  -13.6900 C.2     1  UNL1        0.0040
     30  C         25.9340  -24.2670  -15.0580 C.2     1  UNL1        0.0370
     31  C         25.2520  -23.4810  -15.9880 C.2     1  UNL1        0.0690
     32  C         24.3480  -22.5120  -15.5390 C.2     1  UNL1        0.0540
     33  O         25.3750  -23.5560  -17.3480 O.2     1  UNL1       -0.3560
     34  C         24.2360  -23.1970  -18.1190 C.3     1  UNL1        0.2100
@<TRIPOS>BOND
     1    34    33    1
     2    33    31    1
     3    31    32    1
     4    31    30    2
     5    32    27    2
     6    30    29    1
     7    26    25    2
     8    27    25    1
     9    27    28    1
    10    29    28    2
    11    25    24    1
    12    24     6    1
    13     5     6    1
    14     5     4    2
    15     6     1    2
    16     4     3    1
    17     1    21    1
    18     1     2    1
    19     3     2    2
    20     3     7    1
    21    21    22    1
    22     7     8    1
    23    18    10    2
    24    22    23    1
    25     8    10   ar
    26     8     9   ar
    27    10    17   ar
    28    19     9    1
    29    19    20    1
    30     9    11   ar
    31    17    13   ar
    32    11    13   ar
    33    11    12    1
    34    13    16    1
    35    12    14    1
    36    16    14    2
    37    14    15    1
