@<TRIPOS>MOLECULE
9110_out_ligand_01.pdbqt
 28 31 0 0 0
SMALL
GASTEIGER

@<TRIPOS>ATOM
      1  C         16.5520  -23.6120   -5.6140 C.2     1  UNL1        0.0860
      2  C         17.6780  -23.3390   -6.4060 C.2     1  UNL1        0.0390
      3  C         17.6310  -23.5800   -7.7800 C.2     1  UNL1       -0.0030
      4  C         16.4600  -24.0460   -8.3770 C.2     1  UNL1        0.0140
      5  C         15.3390  -24.3040   -7.5890 C.2     1  UNL1        0.0090
      6  C         15.3640  -24.1020   -6.1970 C.2     1  UNL1       -0.0390
      7  C         14.1050  -24.3680   -5.4200 C.3     1  UNL1        0.0500
      8  C         18.8040  -23.2760   -8.6360 C.2     1  UNL1        0.0990
      9  N         19.9410  -23.8040   -8.2620 N.2     1  UNL1       -0.1630
     10  N         20.9980  -23.5560   -9.0870 N.pl3   1  UNL1       -0.2040
     11  C         22.2840  -23.9890   -8.9490 C.2     1  UNL1        0.2610
     12  C         20.9880  -22.8220  -10.2440 C.2     1  UNL1        0.1850
     13  N         23.0160  -23.5480   -9.9500 N.2     1  UNL1       -0.1410
     14  N         22.1930  -22.8060  -10.7740 N.2     1  UNL1       -0.1280
     15  C         19.7550  -22.2030  -10.6660 C.2     1  UNL1        0.0260
     16  C         19.6720  -21.4110  -11.8150 C.2     1  UNL1        0.0160
     17  C         18.6260  -22.4030   -9.8550 C.2     1  UNL1        0.0090
     18  C         18.4620  -20.8050  -12.1500 C.2     1  UNL1        0.0010
     19  C         17.3430  -20.9800  -11.3350 C.2     1  UNL1        0.0010
     20  C         17.4220  -21.7710  -10.1850 C.2     1  UNL1        0.0150
     21  S         16.6850  -23.2800   -3.8630 S.O2    1  UNL1        0.2590
     22  O         15.7670  -22.2100   -3.5370 O.2     1  UNL1       -0.2010
     23  O         16.6620  -24.5390   -3.1530 O.2     1  UNL1       -0.2010
     24  N         18.2340  -22.6660   -3.7210 N.3     1  UNL1       -0.3150
     25  H         18.9600  -23.1840   -4.2110 H       1  UNL1        0.1720
     26  C         18.4570  -21.2830   -3.3150 C.3     1  UNL1        0.1320
     27  C         18.5370  -20.3860   -4.5470 C.3     1  UNL1        0.0160
     28  C         19.6380  -20.8100   -5.5090 C.3     1  UNL1        0.0060
@<TRIPOS>BOND
     1    18    16    1
     2    18    19    2
     3    16    15    2
     4    19    20    1
     5    14    12    2
     6    14    13    1
     7    15    12    1
     8    15    17    1
     9    12    10    1
    10    20    17    2
    11    13    11    2
    12    17     8    1
    13    10    11    1
    14    10     9    1
    15     8     9    2
    16     8     3    1
    17     4     3    2
    18     4     5    1
    19     3     2    1
    20     5     6    2
    21     2     1    2
    22     6     1    1
    23     6     7    1
    24     1    21    1
    25    28    27    1
    26    27    26    1
    27    25    24    1
    28    21    24    1
    29    21    22    2
    30    21    23    2
    31    24    26    1
