@<TRIPOS>MOLECULE
9112_out_ligand_01.pdbqt
 34 38 0 0 0
SMALL
GASTEIGER

@<TRIPOS>ATOM
      1  C         17.1480  -21.3940  -10.6940 C.3     1  UNL1        0.0500
      2  C         18.6150  -21.6010  -10.9490 C.2     1  UNL1       -0.0390
      3  C         19.1910  -20.9690  -12.0670 C.2     1  UNL1        0.0090
      4  C         20.5430  -21.1340  -12.3720 C.2     1  UNL1        0.0140
      5  C         21.3390  -21.9370  -11.5570 C.2     1  UNL1       -0.0030
      6  C         20.7900  -22.6060  -10.4630 C.2     1  UNL1        0.0390
      7  C         19.4330  -22.4300  -10.1530 C.2     1  UNL1        0.0860
      8  C         22.7710  -22.1170  -11.9000 C.ar    1  UNL1        0.0990
      9  N         23.1510  -21.6400  -13.0550 N.ar    1  UNL1       -0.1630
     10  N         24.4610  -21.8570  -13.3750 N.ar    1  UNL1       -0.1970
     11  C         25.1230  -21.4840  -14.5190 C.ar    1  UNL1        0.1480
     12  C         25.3950  -22.5140  -12.6150 C.ar    1  UNL1        0.1850
     13  C         24.4750  -20.7480  -15.6230 C.3     1  UNL1        0.0950
     14  N         26.3770  -21.8880  -14.4480 N.ar    1  UNL1       -0.1330
     15  N         26.5490  -22.5390  -13.2450 N.ar    1  UNL1       -0.1270
     16  C         25.0100  -23.0260  -11.3230 C.ar    1  UNL1        0.0260
     17  C         25.9110  -23.6780  -10.4780 C.2     1  UNL1        0.0160
     18  C         23.6780  -22.8220  -10.9230 C.ar    1  UNL1        0.0090
     19  C         25.4900  -24.1170   -9.2230 C.2     1  UNL1        0.0010
     20  C         24.1750  -23.8960   -8.8100 C.2     1  UNL1        0.0010
     21  C         23.2690  -23.2450   -9.6520 C.2     1  UNL1        0.0150
     22  S         18.8010  -23.3030   -8.7290 S.O2    1  UNL1        0.2600
     23  O         17.5330  -23.8940   -9.0870 O.2     1  UNL1       -0.2000
     24  O         19.8710  -24.0980   -8.1660 O.2     1  UNL1       -0.2000
     25  N         18.4790  -22.0500   -7.6740 N.3     1  UNL1       -0.3070
     26  H         17.7420  -21.4160   -7.9810 H       1  UNL1        0.1730
     27  C         18.6970  -22.2190   -6.2370 C.3     1  UNL1        0.1220
     28  C         19.5650  -21.0530   -5.7530 C.3     1  UNL1        0.0380
     29  C         17.3700  -22.3480   -5.5140 C.2     1  UNL1       -0.0350
     30  C         16.1850  -22.3640   -6.2710 C.2     1  UNL1        0.0090
     31  C         14.9380  -22.4530   -5.6490 C.2     1  UNL1        0.0010
     32  C         14.8540  -22.5160   -4.2620 C.2     1  UNL1        0.0000
     33  C         16.0160  -22.4820   -3.4950 C.2     1  UNL1        0.0010
     34  C         17.2650  -22.3910   -4.1150 C.2     1  UNL1        0.0090
@<TRIPOS>BOND
     1    13    11    1
     2    11    14   ar
     3    11    10   ar
     4    14    15   ar
     5    10     9   ar
     6    10    12   ar
     7    15    12   ar
     8     9     8   ar
     9    12    16   ar
    10     4     3    1
    11     4     5    2
    12     3     2    2
    13     8     5    1
    14     8    18   ar
    15     5     6    1
    16    16    18   ar
    17    16    17    1
    18     2     1    1
    19     2     7    1
    20    18    21    1
    21    17    19    2
    22     6     7    2
    23     7    22    1
    24    21    20    2
    25    19    20    1
    26    23    22    2
    27    22    24    2
    28    22    25    1
    29    26    25    1
    30    25    27    1
    31    30    31    1
    32    30    29    2
    33    27    28    1
    34    27    29    1
    35    31    32    2
    36    29    34    1
    37    32    33    1
    38    34    33    2
