@<TRIPOS>MOLECULE
9125_out_ligand_01.pdbqt
 34 37 0 0 0
SMALL
GASTEIGER

@<TRIPOS>ATOM
      1  N         21.4840  -23.2820   -9.8280 N.am    1  UNL1       -0.3050
      2  C         22.8390  -23.2730  -10.1350 C.2     1  UNL1        0.2490
      3  O         23.6860  -23.9010   -9.4970 O.2     1  UNL1       -0.2680
      4  C         23.2660  -22.4910  -11.3110 C.2     1  UNL1        0.0920
      5  C         22.3810  -21.8170  -12.0570 C.2     1  UNL1        0.0490
      6  C         20.9540  -21.8020  -11.7060 C.2     1  UNL1        0.0070
      7  C         20.0260  -21.0300  -12.4310 C.2     1  UNL1        0.0150
      8  C         18.6700  -21.0610  -12.1140 C.2     1  UNL1        0.0010
      9  C         18.2260  -21.8670  -11.0730 C.2     1  UNL1        0.0020
     10  C         19.1390  -22.6190  -10.3280 C.2     1  UNL1        0.0300
     11  C         20.5150  -22.5770  -10.6140 C.2     1  UNL1        0.0490
     12  C         21.0910  -24.1020   -8.6870 C.3     1  UNL1        0.2350
     13  C         20.1490  -23.3090   -7.7760 C.2     1  UNL1        0.2400
     14  N         18.9170  -23.9340   -7.6020 N.am    1  UNL1       -0.3260
     15  H         18.7520  -24.7850   -8.1390 H       1  UNL1        0.1690
     16  O         20.4990  -22.2220   -7.3030 O.2     1  UNL1       -0.2710
     17  C         17.8380  -23.5040   -6.8030 C.2     1  UNL1        0.0340
     18  C         16.8550  -22.7220   -7.4230 C.2     1  UNL1        0.0300
     19  C         15.7390  -22.2610   -6.7050 C.2     1  UNL1        0.0090
     20  C         15.5930  -22.5800   -5.3520 C.2     1  UNL1       -0.0620
     21  C         14.4170  -22.0700   -4.5740 C.3     1  UNL1        0.0480
     22  C         16.5880  -23.3490   -4.7260 C.2     1  UNL1        0.0090
     23  C         17.6950  -23.8130   -5.4480 C.2     1  UNL1        0.0300
     24  C         22.9610  -21.2080  -13.2840 C.2     1  UNL1        0.2530
     25  O         22.2700  -20.5860  -14.0830 O.2     1  UNL1       -0.2680
     26  N         24.3280  -21.3570  -13.3740 N.am    1  UNL1       -0.3530
     27  H         24.8230  -21.7560  -12.5880 H       1  UNL1        0.1630
     28  C         25.1200  -20.6580  -14.3540 C.3     1  UNL1        0.1610
     29  C         25.0110  -21.3540  -15.6860 C.2     1  UNL1       -0.0410
     30  C         24.9850  -20.6230  -16.8810 C.2     1  UNL1        0.0090
     31  C         24.8420  -21.2750  -18.1080 C.2     1  UNL1        0.0010
     32  C         24.7210  -22.6640  -18.1530 C.2     1  UNL1        0.0000
     33  C         24.7410  -23.4060  -16.9710 C.2     1  UNL1        0.0010
     34  C         24.8860  -22.7530  -15.7430 C.2     1  UNL1        0.0090
@<TRIPOS>BOND
     1    32    31    2
     2    32    33    1
     3    31    30    1
     4    33    34    2
     5    30    29    2
     6    34    29    1
     7    29    28    1
     8    28    26    1
     9    25    24    2
    10    26    24   am
    11    26    27    1
    12    24     5    1
    13     7     8    1
    14     7     6    2
    15     8     9    2
    16     5     6    1
    17     5     4    2
    18     6    11    1
    19     4     2    1
    20     9    10    1
    21    11    10    2
    22    11     1    1
    23     2     1   am
    24     2     3    2
    25     1    12    1
    26    12    13    1
    27    15    14    1
    28    13    14   am
    29    13    16    2
    30    14    17    1
    31    18    17    2
    32    18    19    1
    33    17    23    1
    34    19    20    2
    35    23    22    2
    36    20    22    1
    37    20    21    1
