@<TRIPOS>MOLECULE
9130_out_ligand_01.pdbqt
 30 32 0 0 0
SMALL
GASTEIGER

@<TRIPOS>ATOM
      1  C         22.6200  -21.9640  -11.9120 C.2     1  UNL1        0.0490
      2  C         23.4130  -22.6550  -11.0840 C.2     1  UNL1        0.0920
      3  C         22.8630  -23.3940   -9.9370 C.2     1  UNL1        0.2490
      4  O         23.6370  -23.9270   -9.1410 O.2     1  UNL1       -0.2680
      5  N         21.4850  -23.4550   -9.8080 N.am    1  UNL1       -0.3050
      6  C         20.6210  -22.6470  -10.6110 C.2     1  UNL1        0.0490
      7  C         19.2400  -22.5640  -10.3690 C.2     1  UNL1        0.0300
      8  C         18.4250  -21.7300  -11.1370 C.2     1  UNL1        0.0020
      9  C         18.9760  -20.9590  -12.1510 C.2     1  UNL1        0.0010
     10  C         20.3450  -21.0260  -12.4050 C.2     1  UNL1        0.0150
     11  C         21.1760  -21.8790  -11.6570 C.2     1  UNL1        0.0070
     12  C         20.9540  -24.2940   -8.7330 C.3     1  UNL1        0.2350
     13  C         20.0690  -23.4980   -7.7700 C.2     1  UNL1        0.2400
     14  O         20.4890  -22.4690   -7.2460 O.2     1  UNL1       -0.2710
     15  N         18.8110  -24.0570   -7.6140 N.am    1  UNL1       -0.3260
     16  H         18.6340  -24.9140   -8.1380 H       1  UNL1        0.1690
     17  C         17.7520  -23.5970   -6.8100 C.2     1  UNL1        0.0340
     18  C         16.6890  -22.9600   -7.4630 C.2     1  UNL1        0.0300
     19  C         15.5960  -22.4700   -6.7410 C.2     1  UNL1        0.0090
     20  C         15.5510  -22.6030   -5.3510 C.2     1  UNL1       -0.0620
     21  C         14.3790  -22.1010   -4.5640 C.3     1  UNL1        0.0480
     22  C         16.6070  -23.2480   -4.7000 C.2     1  UNL1        0.0090
     23  C         17.7020  -23.7380   -5.4250 C.2     1  UNL1        0.0300
     24  C         23.3320  -21.3510  -13.0660 C.2     1  UNL1        0.2520
     25  N         24.6790  -21.1710  -12.8570 N.am    1  UNL1       -0.3570
     26  H         25.0680  -21.3790  -11.9450 H       1  UNL1        0.1620
     27  O         22.7360  -20.9910  -14.0750 O.2     1  UNL1       -0.2680
     28  C         25.5160  -20.4890  -13.8220 C.3     1  UNL1        0.1220
     29  C         26.4450  -19.4840  -13.1470 C.3     1  UNL1        0.0150
     30  C         26.5480  -19.7390  -11.6520 C.3     1  UNL1        0.0060
@<TRIPOS>BOND
     1    27    24    2
     2    28    29    1
     3    28    25    1
     4    29    30    1
     5    24    25   am
     6    24     1    1
     7    25    26    1
     8    10     9    2
     9    10    11    1
    10     9     8    1
    11     1    11    1
    12     1     2    2
    13    11     6    2
    14     8     7    2
    15     2     3    1
    16     6     7    1
    17     6     5    1
    18     3     5   am
    19     3     4    2
    20     5    12    1
    21    12    13    1
    22    16    15    1
    23    13    15   am
    24    13    14    2
    25    15    17    1
    26    18    17    2
    27    18    19    1
    28    17    23    1
    29    19    20    2
    30    23    22    2
    31    20    22    1
    32    20    21    1
