@<TRIPOS>MOLECULE
9136_out_ligand_01.pdbqt
 33 35 0 0 0
SMALL
GASTEIGER

@<TRIPOS>ATOM
      1  C         18.8110  -22.8760  -10.1500 C.2     1  UNL1        0.0340
      2  C         19.5480  -21.9650  -10.9150 C.2     1  UNL1        0.0310
      3  C         20.9420  -21.9240  -10.8220 C.2     1  UNL1        0.0270
      4  C         21.6030  -22.8010   -9.9610 C.2     1  UNL1        0.0800
      5  C         20.8880  -23.7580   -9.2390 C.2     1  UNL1        0.0270
      6  C         19.4950  -23.7960   -9.3420 C.2     1  UNL1        0.0310
      7  N         17.4060  -22.9670  -10.1790 N.am    1  UNL1       -0.3330
      8  H         16.9730  -22.9130  -11.0970 H       1  UNL1        0.1680
      9  C         16.4780  -23.0390   -9.1660 C.2     1  UNL1        0.1760
     10  S         15.3600  -24.2800   -9.2810 S.2     1  UNL1       -0.0410
     11  N         16.6630  -22.1640   -8.1270 N.am    1  UNL1       -0.3330
     12  H         17.2450  -21.3830   -8.3910 H       1  UNL1        0.1680
     13  C         16.3790  -22.2650   -6.7420 C.2     1  UNL1        0.0400
     14  C         15.0720  -22.4160   -6.2700 C.2     1  UNL1        0.0300
     15  C         14.8040  -22.4590   -4.9040 C.2     1  UNL1        0.0030
     16  C         15.8390  -22.3260   -3.9870 C.2     1  UNL1        0.0070
     17  C         17.1600  -22.1410   -4.4210 C.2     1  UNL1       -0.0540
     18  C         18.2330  -21.9810   -3.3770 C.3     1  UNL1        0.0490
     19  C         17.4430  -22.1180   -5.8100 C.2     1  UNL1       -0.0290
     20  C         18.8610  -21.9240   -6.2950 C.3     1  UNL1        0.0510
     21  S         23.3730  -22.7170   -9.8020 S.O2    1  UNL1        0.2630
     22  O         23.7240  -21.3350   -9.5560 O.2     1  UNL1       -0.2000
     23  O         23.7970  -23.7770   -8.9120 O.2     1  UNL1       -0.2000
     24  N         23.9030  -23.0650  -11.3700 N.pl3   1  UNL1       -0.2810
     25  H         24.3430  -23.9830  -11.4260 H       1  UNL1        0.1790
     26  C         24.4000  -22.0190  -12.1970 C.2     1  UNL1        0.0440
     27  C         23.9090  -21.9060  -13.4980 C.2     1  UNL1        0.0320
     28  C         24.4120  -20.9210  -14.3520 C.2     1  UNL1        0.0280
     29  C         25.4050  -20.0450  -13.9050 C.2     1  UNL1        0.0550
     30 CL         25.9930  -18.8650  -15.0190 Cl      1  UNL1       -0.0830
     31  C         25.8870  -20.1520  -12.5960 C.2     1  UNL1        0.0580
     32 CL         27.1180  -19.1080  -11.9790 Cl      1  UNL1       -0.0820
     33  C         25.3800  -21.1370  -11.7410 C.2     1  UNL1        0.0550
@<TRIPOS>BOND
     1    30    29    1
     2    28    29    2
     3    28    27    1
     4    29    31    1
     5    27    26    2
     6    31    32    1
     7    31    33    2
     8    26    33    1
     9    26    24    1
    10    25    24    1
    11    24    21    1
    12     8     7    1
    13     2     3    1
    14     2     1    2
    15     3     4    2
    16     7     1    1
    17     7     9    1
    18     1     6    1
    19     4    21    1
    20     4     5    1
    21    21    22    2
    22    21    23    2
    23     6     5    2
    24    10     9    2
    25     9    11    1
    26    12    11    1
    27    11    13    1
    28    13    14    2
    29    13    19    1
    30    20    19    1
    31    14    15    1
    32    19    17    2
    33    15    16    2
    34    17    16    1
    35    17    18    1
