@<TRIPOS>MOLECULE
9139_out_ligand_01.pdbqt
 39 42 0 0 0
SMALL
GASTEIGER

@<TRIPOS>ATOM
      1  C         20.2670  -22.7610   -9.8570 C.2     1  UNL1        0.0800
      2  C         21.1720  -21.8400  -10.3910 C.2     1  UNL1        0.0270
      3  C         22.5510  -22.0570  -10.2740 C.2     1  UNL1        0.0310
      4  C         23.0410  -23.2160   -9.6710 C.2     1  UNL1        0.0340
      5  C         22.1230  -24.1470   -9.1660 C.2     1  UNL1        0.0310
      6  C         20.7450  -23.9330   -9.2740 C.2     1  UNL1        0.0270
      7  N         24.4070  -23.5050   -9.4780 N.am    1  UNL1       -0.3330
      8  H         24.6150  -24.0200   -8.6300 H       1  UNL1        0.1680
      9  C         25.4980  -23.4040  -10.3060 C.2     1  UNL1        0.1760
     10  S         26.9810  -24.1660  -10.1600 S.2     1  UNL1       -0.0410
     11  N         25.3950  -22.4780  -11.3170 N.am    1  UNL1       -0.3330
     12  H         25.5710  -21.5300  -10.9910 H       1  UNL1        0.1680
     13  C         25.2050  -22.6260  -12.7070 C.2     1  UNL1        0.0340
     14  C         24.7580  -21.4980  -13.4080 C.2     1  UNL1        0.0310
     15  C         24.5450  -21.5550  -14.7910 C.2     1  UNL1        0.0270
     16  C         24.7920  -22.7480  -15.4740 C.2     1  UNL1        0.0740
     17  C         25.2810  -23.8660  -14.7980 C.2     1  UNL1        0.0270
     18  C         25.4920  -23.7990  -13.4160 C.2     1  UNL1        0.0310
     19  S         24.5350  -22.8300  -17.2290 S.O2    1  UNL1        0.2390
     20  O         23.2770  -23.4930  -17.4760 O.2     1  UNL1       -0.2060
     21  O         25.7720  -23.2440  -17.8500 O.2     1  UNL1       -0.2060
     22  N         24.3450  -21.2030  -17.6140 N.3     1  UNL1       -0.2250
     23  H         24.4280  -20.6460  -16.7630 H       1  UNL1        0.1360
     24  H         23.4880  -21.0000  -18.1250 H       1  UNL1        0.1360
     25  S         18.5060  -22.5050  -10.0510 S.O2    1  UNL1        0.2650
     26  O         18.2950  -21.0710  -10.1040 O.2     1  UNL1       -0.2000
     27  O         18.0980  -23.3220  -11.1760 O.2     1  UNL1       -0.2000
     28  N         17.8010  -23.0880   -8.5900 N.pl3   1  UNL1       -0.2670
     29  C         18.0640  -22.4670   -7.2940 C.2     1  UNL1        0.0520
     30  C         19.2480  -21.7670   -7.0120 C.2     1  UNL1        0.0340
     31  C         17.1810  -22.6950   -6.2130 C.2     1  UNL1       -0.0280
     32  C         19.4820  -21.1880   -5.7590 C.2     1  UNL1        0.0440
     33  C         18.5500  -21.3390   -4.7490 C.2     1  UNL1        0.1170
     34  C         17.4080  -22.0950   -4.9590 C.2     1  UNL1        0.0510
     35  F         18.7680  -20.7840   -3.5530 F       1  UNL1       -0.2060
     36  C         15.9850  -23.6000   -6.3390 C.3     1  UNL1        0.0430
     37  C         16.2180  -24.6170   -7.4380 C.3     1  UNL1        0.0300
     38  C         16.5520  -23.9110   -8.7530 C.3     1  UNL1        0.0980
     39  C         15.3640  -23.0980   -9.2570 C.3     1  UNL1        0.0330
@<TRIPOS>BOND
     1    24    22    1
     2    21    19    2
     3    22    19    1
     4    22    23    1
     5    20    19    2
     6    19    16    1
     7    16    17    2
     8    16    15    1
     9    17    18    1
    10    15    14    2
    11    18    13    2
    12    14    13    1
    13    13    11    1
    14    11    12    1
    15    11     9    1
    16    27    25    2
    17     2     3    1
    18     2     1    2
    19     9    10    2
    20     9     7    1
    21     3     4    2
    22    26    25    2
    23    25     1    1
    24    25    28    1
    25     1     6    1
    26     4     7    1
    27     4     5    1
    28     7     8    1
    29     6     5    2
    30    39    38    1
    31    38    28    1
    32    38    37    1
    33    28    29    1
    34    37    36    1
    35    29    30    2
    36    29    31    1
    37    30    32    1
    38    36    31    1
    39    31    34    2
    40    32    33    2
    41    34    33    1
    42    33    35    1
