@<TRIPOS>MOLECULE
9140_out_ligand_01.pdbqt
 32 35 0 0 0
SMALL
GASTEIGER

@<TRIPOS>ATOM
      1  C         19.4150  -22.8540   -8.1550 C.2     1  UNL1        0.0710
      2  C         18.8910  -22.1820   -9.3880 C.2     1  UNL1        0.0690
      3  C         19.7710  -21.9950  -10.3910 C.2     1  UNL1        0.1460
      4  N         21.0830  -22.4280  -10.2430 N.pl3   1  UNL1       -0.2100
      5  N         22.1070  -22.3340  -11.1190 N.2     1  UNL1       -0.1600
      6  C         23.1680  -22.8990  -10.5190 C.2     1  UNL1        0.1480
      7  C         22.8170  -23.3660   -9.2280 C.2     1  UNL1        0.0910
      8  C         21.4870  -23.0630   -9.0670 C.2     1  UNL1        0.1540
      9  N         20.6400  -23.2810   -8.0210 N.2     1  UNL1       -0.2290
     10  C         24.4820  -22.9670  -11.1920 C.2     1  UNL1        0.2720
     11  O         25.4790  -22.3720  -10.7900 O.2     1  UNL1       -0.2660
     12  N         24.5170  -23.7460  -12.3350 N.am    1  UNL1       -0.3510
     13  H         23.6450  -24.0320  -12.7590 H       1  UNL1        0.1630
     14  C         25.7080  -23.7820  -13.1480 C.3     1  UNL1        0.1630
     15  C         25.4260  -23.2900  -14.5350 C.2     1  UNL1       -0.0230
     16  C         25.3430  -21.9250  -14.8210 C.2     1  UNL1        0.0120
     17  C         25.0980  -21.5050  -16.1250 C.2     1  UNL1        0.0200
     18  C         24.9470  -22.4700  -17.1060 C.2     1  UNL1        0.1160
     19  N         25.0260  -23.7970  -16.8700 N.2     1  UNL1       -0.2730
     20  C         25.2600  -24.1770  -15.5940 C.2     1  UNL1        0.1240
     21  C         19.4240  -21.3560  -11.6820 C.3     1  UNL1        0.4340
     22  F         19.4740  -20.0030  -11.6300 F       1  UNL1       -0.1650
     23  F         18.1480  -21.6630  -12.0530 F       1  UNL1       -0.1650
     24  F         20.2120  -21.7670  -12.7040 F       1  UNL1       -0.1650
     25  C         18.4470  -23.0570   -7.0390 C.2     1  UNL1       -0.0070
     26  C         17.3990  -23.9630   -7.2220 C.2     1  UNL1        0.0140
     27  C         16.4730  -24.1780   -6.1990 C.2     1  UNL1        0.0080
     28  C         16.5840  -23.5010   -4.9760 C.2     1  UNL1       -0.0560
     29  C         15.5680  -23.7620   -3.8970 C.3     1  UNL1        0.0490
     30  C         17.6500  -22.6000   -4.7790 C.2     1  UNL1       -0.0550
     31  C         18.5770  -22.3900   -5.8150 C.2     1  UNL1        0.0210
     32  C         17.8230  -21.8670   -3.4750 C.3     1  UNL1        0.0490
@<TRIPOS>BOND
     1    18    19    2
     2    18    17    1
     3    19    20    1
     4    17    16    2
     5    20    15    2
     6    16    15    1
     7    15    14    1
     8    14    12    1
     9    13    12    1
    10    24    21    1
    11    12    10   am
    12    23    21    1
    13    21    22    1
    14    21     3    1
    15    10    11    2
    16    10     6    1
    17     5     6    2
    18     5     4    1
    19     6     7    1
    20     3     4    1
    21     3     2    2
    22     4     8    1
    23     2     1    1
    24     7     8    2
    25     8     9    1
    26     1     9    2
    27     1    25    1
    28    26    25    2
    29    26    27    1
    30    25    31    1
    31    27    28    2
    32    31    30    2
    33    28    30    1
    34    28    29    1
    35    30    32    1
