@<TRIPOS>MOLECULE
9146_out_ligand_01.pdbqt
 34 37 0 0 0
SMALL
GASTEIGER

@<TRIPOS>ATOM
      1  C         21.6190  -23.0740   -9.5440 C.2     1  UNL1        0.0800
      2  C         20.6450  -22.1790   -9.9910 C.2     1  UNL1        0.0270
      3  C         19.2980  -22.4100   -9.6900 C.2     1  UNL1        0.0310
      4  C         18.9190  -23.5100   -8.9180 C.2     1  UNL1        0.0340
      5  C         19.9100  -24.4000   -8.4770 C.2     1  UNL1        0.0310
      6  C         21.2580  -24.1800   -8.7740 C.2     1  UNL1        0.0270
      7  N         17.5850  -23.8360   -8.5920 N.am    1  UNL1       -0.3330
      8  H         17.4780  -24.6400   -7.9870 H       1  UNL1        0.1680
      9  C         16.4050  -23.1550   -8.7620 C.2     1  UNL1        0.1760
     10  S         15.5490  -22.9020  -10.1770 S.2     1  UNL1       -0.0410
     11  N         15.9350  -22.4990   -7.6490 N.am    1  UNL1       -0.3320
     12  H         15.4060  -21.6670   -7.8840 H       1  UNL1        0.1680
     13  C         15.9420  -22.8580   -6.2770 C.2     1  UNL1        0.0450
     14  C         14.9370  -23.6810   -5.7450 C.2     1  UNL1        0.0300
     15  C         14.9150  -23.9930   -4.3890 C.2     1  UNL1        0.0030
     16  C         15.8870  -23.4740   -3.5420 C.2     1  UNL1        0.0120
     17  C         16.8940  -22.6320   -4.0330 C.2     1  UNL1       -0.0240
     18  C         17.8590  -22.1150   -3.1530 C.2     1  UNL1        0.0120
     19  C         16.9380  -22.3080   -5.4150 C.2     1  UNL1        0.0010
     20  C         18.8790  -21.2850   -3.6110 C.2     1  UNL1        0.0010
     21  C         18.9520  -20.9660   -4.9600 C.2     1  UNL1        0.0010
     22  C         17.9990  -21.4730   -5.8480 C.2     1  UNL1        0.0140
     23  S         23.3330  -22.7770   -9.9150 S.O2    1  UNL1        0.2630
     24  O         23.5720  -21.3540   -9.8250 O.2     1  UNL1       -0.2000
     25  O         24.1130  -23.7150   -9.1330 O.2     1  UNL1       -0.2000
     26  N         23.4810  -23.2840  -11.5160 N.pl3   1  UNL1       -0.2800
     27  H         22.6520  -23.7690  -11.8500 H       1  UNL1        0.1790
     28  C         24.2450  -22.5200  -12.4450 C.2     1  UNL1        0.0480
     29  C         25.6330  -22.6830  -12.4960 C.2     1  UNL1        0.0300
     30  C         26.4020  -21.9240  -13.3780 C.2     1  UNL1        0.0020
     31  C         25.7850  -21.0020  -14.2180 C.2     1  UNL1        0.0010
     32  C         24.3990  -20.8440  -14.1820 C.2     1  UNL1        0.0090
     33  C         23.6110  -21.6010  -13.2990 C.2     1  UNL1       -0.0350
     34  C         22.1220  -21.4040  -13.3000 C.3     1  UNL1        0.0500
@<TRIPOS>BOND
     1    31    32    2
     2    31    30    1
     3    32    33    1
     4    30    29    2
     5    34    33    1
     6    33    28    2
     7    29    28    1
     8    28    26    1
     9    27    26    1
    10    26    23    1
    11    10     9    2
    12     2     3    1
    13     2     1    2
    14    23    24    2
    15    23     1    1
    16    23    25    2
    17     3     4    2
    18     1     6    1
    19     4     7    1
    20     4     5    1
    21     6     5    2
    22     9     7    1
    23     9    11    1
    24     7     8    1
    25    12    11    1
    26    11    13    1
    27    13    14    2
    28    13    19    1
    29    22    19    1
    30    22    21    2
    31    14    15    1
    32    19    17    2
    33    21    20    1
    34    15    16    2
    35    17    16    1
    36    17    18    1
    37    20    18    2
