@<TRIPOS>MOLECULE
9184_out_ligand_01.pdbqt
 36 40 0 0 0
SMALL
GASTEIGER

@<TRIPOS>ATOM
      1  C         19.4760  -21.6960  -10.9210 C.ar    1  UNL1        0.1100
      2  S         20.7020  -21.4160  -12.0730 S.2     1  UNL1       -0.0610
      3  C         21.9200  -21.8940  -10.9980 C.ar    1  UNL1        0.1110
      4  N         23.2050  -21.8540  -11.4060 N.2     1  UNL1       -0.2430
      5  C         24.1110  -22.2190  -10.4760 C.2     1  UNL1        0.0640
      6  C         23.7760  -22.5940   -9.1830 C.2     1  UNL1        0.0300
      7  C         22.4320  -22.6130   -8.8070 C.2     1  UNL1        0.0190
      8  C         21.4350  -22.2770   -9.7500 C.ar    1  UNL1        0.0280
      9  C         19.9840  -22.2060   -9.7230 C.ar    1  UNL1        0.0710
     10  N         19.0830  -22.5420   -8.7050 N.am    1  UNL1       -0.3240
     11  C         18.9790  -23.7070   -7.9850 C.2     1  UNL1        0.2350
     12  O         19.6480  -24.7230   -8.0760 O.2     1  UNL1       -0.2720
     13  H         18.3280  -21.8740   -8.5560 H       1  UNL1        0.1690
     14  C         17.8290  -23.6670   -6.9960 C.3     1  UNL1        0.0680
     15  C         17.0010  -24.9420   -6.8310 C.3     1  UNL1        0.0260
     16  C         16.4120  -23.7790   -7.5620 C.3     1  UNL1        0.0260
     17  C         18.0570  -22.8150   -5.7500 C.2     1  UNL1       -0.0400
     18  C         18.6950  -21.5630   -5.8140 C.2     1  UNL1        0.0080
     19  C         18.9120  -20.7970   -4.6650 C.2     1  UNL1        0.0010
     20  C         18.4970  -21.2700   -3.4240 C.2     1  UNL1        0.0000
     21  C         17.8690  -22.5090   -3.3300 C.2     1  UNL1        0.0010
     22  C         17.6530  -23.2710   -4.4820 C.2     1  UNL1        0.0080
     23  C         18.0770  -21.4380  -11.2300 C.2     1  UNL1        0.3020
     24  O         17.6800  -20.4180  -11.7900 O.2     1  UNL1       -0.2590
     25  O         17.2610  -22.4530  -10.8270 O.3     1  UNL1       -0.3220
     26  C         16.0070  -22.0340  -10.2900 C.3     1  UNL1        0.2130
     27  C         25.5710  -22.2250  -10.9070 C.3     1  UNL1        0.3310
     28  N         25.8270  -22.9940  -12.1450 N.3     1  UNL1        0.0940
     29  C         26.7480  -24.0960  -11.8460 C.3     1  UNL1        0.3100
     30  C         26.3850  -22.1090  -13.1870 C.3     1  UNL1        0.3140
     31  C         25.5440  -22.1510  -14.4190 C.2     1  UNL1        0.0060
     32  C         24.6290  -21.1720  -14.8710 C.2     1  UNL1        0.1490
     33  N         24.0160  -21.5180  -16.0060 N.2     1  UNL1       -0.1850
     34  N         24.5350  -22.7280  -16.2870 N.pl3   1  UNL1       -0.2850
     35  C         24.0980  -23.4340  -17.4650 C.3     1  UNL1        0.1790
     36  C         25.4440  -23.1540  -15.3660 C.2     1  UNL1        0.1220
@<TRIPOS>BOND
     1    35    34    1
     2    34    33    1
     3    34    36    1
     4    33    32    2
     5    36    31    2
     6    32    31    1
     7    31    30    1
     8    30    28    1
     9    28    29    1
    10    28    27    1
    11     2     3   ar
    12     2     1   ar
    13    24    23    2
    14     4     3    2
    15     4     5    1
    16    23     1    1
    17    23    25    1
    18     3     8   ar
    19     1     9   ar
    20    27     5    1
    21    25    26    1
    22     5     6    2
    23     8     9   ar
    24     8     7    2
    25     9    10    1
    26     6     7    1
    27    10    13    1
    28    10    11   am
    29    12    11    2
    30    11    14    1
    31    16    14    1
    32    16    15    1
    33    14    15    1
    34    14    17    1
    35    18    17    2
    36    18    19    1
    37    17    22    1
    38    19    20    2
    39    22    21    2
    40    20    21    1
