@<TRIPOS>MOLECULE
9192_out_ligand_01.pdbqt
 42 46 0 0 0
SMALL
GASTEIGER

@<TRIPOS>ATOM
      1  C         19.5820  -21.6950  -11.3240 C.2     1  UNL1        0.0350
      2  C         20.1410  -21.2600  -12.5390 C.2     1  UNL1        0.0460
      3  C         21.5160  -21.3500  -12.7880 C.2     1  UNL1        0.0300
      4  C         22.3190  -21.9270  -11.7970 C.2     1  UNL1        0.0540
      5  C         21.7750  -22.3140  -10.5670 C.2     1  UNL1        0.0830
      6  C         20.4060  -22.2100  -10.3220 C.2     1  UNL1        0.0420
      7  N         22.1120  -21.0070  -13.9980 N.pl3   1  UNL1       -0.3860
      8  H         21.8520  -21.6060  -14.7760 H       1  UNL1        0.1600
      9  C         23.4870  -20.5180  -14.0920 C.3     1  UNL1        0.1590
     10  C         24.5100  -21.5540  -14.5300 C.2     1  UNL1       -0.0280
     11  C         24.2250  -22.4750  -15.5610 C.2     1  UNL1        0.0100
     12  C         25.1590  -23.4320  -15.9630 C.2     1  UNL1        0.0010
     13  C         26.4030  -23.4890  -15.3490 C.2     1  UNL1        0.0010
     14  C         26.7150  -22.5770  -14.3430 C.2     1  UNL1        0.0150
     15  C         25.7930  -21.5960  -13.9300 C.2     1  UNL1        0.0060
     16  C         26.2250  -20.6470  -12.9090 C.2     1  UNL1        0.0850
     17  C         26.1820  -20.6110  -11.5280 C.2     1  UNL1        0.0400
     18  C         26.7610  -19.3790  -11.1370 C.2     1  UNL1        0.0270
     19  C         27.1180  -18.7360  -12.2980 C.2     1  UNL1        0.1420
     20  O         26.7910  -19.4930  -13.3770 O.2     1  UNL1       -0.3220
     21  C         18.1110  -21.5740  -11.1340 C.2     1  UNL1        0.2520
     22  O         17.4260  -21.0010  -11.9750 O.2     1  UNL1       -0.2680
     23  N         17.5910  -22.1670  -10.0030 N.am    1  UNL1       -0.3530
     24  H         18.1560  -22.8390   -9.5040 H       1  UNL1        0.1630
     25  C         16.1620  -22.2240   -9.7750 C.3     1  UNL1        0.1620
     26  C         15.8480  -22.7990   -8.4250 C.2     1  UNL1       -0.0230
     27  C         16.0090  -24.1630   -8.1590 C.2     1  UNL1        0.0120
     28  C         15.7210  -24.6590   -6.8900 C.2     1  UNL1        0.0200
     29  C         15.2830  -23.7700   -5.9240 C.2     1  UNL1        0.1160
     30  N         15.1180  -22.4470   -6.1390 N.2     1  UNL1       -0.2730
     31  C         15.4040  -21.9940   -7.3810 C.2     1  UNL1        0.1240
     32  S         22.8350  -22.9860   -9.3090 S.O2    1  UNL1        0.2630
     33  O         22.2570  -24.2490   -8.8980 O.2     1  UNL1       -0.2000
     34  O         24.2010  -22.9030   -9.7760 O.2     1  UNL1       -0.2000
     35  N         22.6080  -21.9260   -8.0180 N.pl3   1  UNL1       -0.2810
     36  H         23.4490  -21.8070   -7.4560 H       1  UNL1        0.1790
     37  C         21.3500  -21.8770   -7.3560 C.2     1  UNL1        0.0420
     38  C         21.1090  -20.8530   -6.4370 C.2     1  UNL1        0.0300
     39  C         19.8890  -20.7980   -5.7600 C.2     1  UNL1        0.0020
     40  C         18.9120  -21.7630   -6.0030 C.2     1  UNL1        0.0000
     41  C         19.1540  -22.7860   -6.9200 C.2     1  UNL1        0.0020
     42  C         20.3730  -22.8430   -7.5970 C.2     1  UNL1        0.0300
@<TRIPOS>BOND
     1    12    11    1
     2    12    13    2
     3    11    10    2
     4    13    14    1
     5     8     7    1
     6    10     9    1
     7    10    15    1
     8    14    15    2
     9     9     7    1
    10     7     3    1
    11    15    16    1
    12    20    16    1
    13    20    19    1
    14    16    17    2
    15     3     2    1
    16     3     4    2
    17     2     1    2
    18    19    18    2
    19    22    21    2
    20     4     5    1
    21    17    18    1
    22     1    21    1
    23     1     6    1
    24    21    23   am
    25     5     6    2
    26     5    32    1
    27    23    25    1
    28    23    24    1
    29    34    32    2
    30    25    26    1
    31    32    33    2
    32    32    35    1
    33    26    27    2
    34    26    31    1
    35    27    28    1
    36    35    36    1
    37    35    37    1
    38    42    37    2
    39    42    41    1
    40    31    30    2
    41    37    38    1
    42    41    40    2
    43    28    29    2
    44    38    39    2
    45    30    29    1
    46    40    39    1
