@<TRIPOS>MOLECULE
91_out_ligand_01.pdbqt
 30 33 0 0 0
SMALL
GASTEIGER

@<TRIPOS>ATOM
      1  S         21.4020  -22.4050   -8.3180 S.O2    1  UNL1        0.2420
      2  O         22.6120  -21.8090   -7.7980 O.2     1  UNL1       -0.2060
      3  O         21.3480  -23.7780   -8.7610 O.2     1  UNL1       -0.2060
      4  C         20.1300  -22.2050   -7.0890 C.2     1  UNL1        0.0750
      5  C         19.1010  -23.1450   -6.9920 C.2     1  UNL1        0.0440
      6  C         18.1090  -22.9550   -6.0300 C.ar    1  UNL1        0.0600
      7  C         17.0070  -23.9240   -5.8710 C.ar    1  UNL1        0.2610
      8  C         18.1340  -21.8410   -5.1860 C.ar    1  UNL1        0.0520
      9  N         16.0750  -23.6270   -4.9060 N.ar    1  UNL1       -0.2750
     10  O         16.9410  -24.9360   -6.5570 O.2     1  UNL1       -0.2670
     11  C         16.0930  -22.5460   -4.0730 C.ar    1  UNL1        0.3270
     12  H         15.3170  -24.2800   -4.7840 H       1  UNL1        0.1730
     13  O         15.2280  -22.3670   -3.2210 O.2     1  UNL1       -0.2470
     14  N         17.1280  -21.6710   -4.2330 N.ar    1  UNL1       -0.3080
     15  H         17.1290  -20.8710   -3.6120 H       1  UNL1        0.1700
     16  C         19.1590  -20.9000   -5.2950 C.2     1  UNL1        0.0320
     17  C         20.1600  -21.0820   -6.2510 C.2     1  UNL1        0.0270
     18  N         20.8210  -21.3850   -9.5150 N.3     1  UNL1       -0.2020
     19  H         21.5130  -20.6530   -9.6920 H       1  UNL1        0.1410
     20  C         20.2960  -21.8870  -10.8280 C.3     1  UNL1        0.0520
     21  C         19.2410  -20.9210  -11.4250 C.3     1  UNL1        0.0310
     22  C         17.8860  -21.6310  -11.3870 C.3     1  UNL1        0.0020
     23  C         18.0640  -22.8620  -10.5200 C.3     1  UNL1        0.0020
     24  C         19.5310  -23.2230  -10.6900 C.3     1  UNL1        0.0310
     25  C         21.5420  -21.9980  -11.7300 C.2     1  UNL1       -0.0350
     26  C         22.6650  -22.7640  -11.3660 C.2     1  UNL1        0.0090
     27  C         23.8040  -22.8070  -12.1780 C.2     1  UNL1        0.0010
     28  C         23.8530  -22.0690  -13.3560 C.2     1  UNL1        0.0000
     29  C         22.7700  -21.2750  -13.7190 C.2     1  UNL1        0.0010
     30  C         21.6320  -21.2310  -12.9090 C.2     1  UNL1        0.0090
@<TRIPOS>BOND
     1    29    28    2
     2    29    30    1
     3    28    27    1
     4    30    25    2
     5    27    26    2
     6    25    26    1
     7    25    20    1
     8    21    22    1
     9    21    20    1
    10    22    23    1
    11    20    24    1
    12    20    18    1
    13    24    23    1
    14    19    18    1
    15    18     1    1
    16     3     1    2
    17     1     2    2
    18     1     4    1
    19     4     5    2
    20     4    17    1
    21     5     6    1
    22    10     7    2
    23    17    16    2
    24     6     7   ar
    25     6     8   ar
    26     7     9   ar
    27    16     8    1
    28     8    14   ar
    29     9    12    1
    30     9    11   ar
    31    14    11   ar
    32    14    15    1
    33    11    13    2
