@<TRIPOS>MOLECULE
9202_out_ligand_01.pdbqt
 31 34 0 0 0
SMALL
GASTEIGER

@<TRIPOS>ATOM
      1  C         20.5900  -22.3510  -10.4650 C.ar    1  UNL1        0.1520
      2  N         20.3630  -22.0530  -11.7300 N.ar    1  UNL1       -0.1330
      3  N         19.0390  -21.7350  -11.8650 N.ar    1  UNL1       -0.1350
      4  C         18.4710  -21.8370  -10.6830 C.ar    1  UNL1        0.1320
      5  N         19.4120  -22.2220   -9.7630 N.ar    1  UNL1       -0.3170
      6  C         19.2360  -22.4550   -8.3460 C.3     1  UNL1        0.1620
      7  C         17.8030  -22.4930   -7.7860 C.3     1  UNL1        0.2930
      8  N         16.9410  -23.3850   -8.5690 N.3     1  UNL1        0.0940
      9  C         16.3010  -22.7040   -9.7210 C.3     1  UNL1        0.2800
     10  C         17.0550  -21.5320  -10.3670 C.3     1  UNL1        0.1110
     11  C         21.9210  -22.7020   -9.8730 C.3     1  UNL1        0.1520
     12  C         21.8570  -24.0290   -9.1220 C.3     1  UNL1        0.0400
     13  N         22.8650  -22.7860  -10.9730 N.am    1  UNL1       -0.3460
     14  C         23.9010  -21.8890  -11.0930 C.2     1  UNL1        0.2520
     15  O         24.2720  -21.1420  -10.1960 O.2     1  UNL1       -0.2680
     16  H         22.5430  -23.2610  -11.8070 H       1  UNL1        0.1630
     17  C         24.5930  -21.8920  -12.4020 C.2     1  UNL1        0.0370
     18  C         23.8570  -21.4320  -13.5020 C.2     1  UNL1        0.0170
     19  C         24.4470  -21.3780  -14.7630 C.2     1  UNL1        0.0010
     20  C         25.7690  -21.7850  -14.9270 C.2     1  UNL1        0.0010
     21  C         26.4990  -22.2650  -13.8360 C.2     1  UNL1        0.0070
     22  C         25.9170  -22.3440  -12.5600 C.2     1  UNL1       -0.0460
     23  C         26.7270  -22.9060  -11.4250 C.3     1  UNL1        0.0490
     24  C         15.9370  -24.0580   -7.7200 C.3     1  UNL1        0.3140
     25  C         15.8790  -23.5290   -6.3060 C.2     1  UNL1        0.0090
     26  C         14.8800  -22.6290   -5.9020 C.2     1  UNL1        0.0120
     27  C         14.8260  -22.1690   -4.5840 C.2     1  UNL1        0.0010
     28  C         15.7610  -22.6130   -3.6490 C.2     1  UNL1        0.0030
     29  C         16.7480  -23.5190   -4.0330 C.2     1  UNL1        0.0430
     30  C         16.7990  -23.9710   -5.3490 C.2     1  UNL1        0.1240
     31  F         17.7530  -24.8470   -5.6920 F       1  UNL1       -0.2050
@<TRIPOS>BOND
     1    20    19    2
     2    20    21    1
     3    19    18    1
     4    21    22    2
     5    18    17    2
     6    22    17    1
     7    22    23    1
     8    17    14    1
     9     3     2   ar
    10     3     4   ar
    11    16    13    1
    12     2     1   ar
    13    14    13   am
    14    14    15    2
    15    13    11    1
    16     4    10    1
    17     4     5   ar
    18     1    11    1
    19     1     5   ar
    20    10     9    1
    21    11    12    1
    22     5     6    1
    23     9     8    1
    24     8     7    1
    25     8    24    1
    26     6     7    1
    27    24    25    1
    28    25    26    2
    29    25    30    1
    30    26    27    1
    31    31    30    1
    32    30    29    2
    33    27    28    2
    34    29    28    1
