@<TRIPOS>MOLECULE
9213_out_ligand_01.pdbqt
 39 42 0 0 0
SMALL
GASTEIGER

@<TRIPOS>ATOM
      1  C         21.7760  -21.3400  -12.8520 C.2     1  UNL1        0.0300
      2  C         20.3940  -21.1780  -12.6790 C.2     1  UNL1        0.0460
      3  C         19.7430  -21.6410  -11.5220 C.2     1  UNL1        0.0350
      4  C         20.4760  -22.2790  -10.5200 C.2     1  UNL1        0.0420
      5  C         21.8540  -22.4200  -10.6720 C.2     1  UNL1        0.0780
      6  C         22.5030  -21.9400  -11.8140 C.2     1  UNL1        0.0540
      7  N         22.4830  -20.8190  -13.9330 N.pl3   1  UNL1       -0.3860
      8  H         22.6260  -19.8140  -13.8810 H       1  UNL1        0.1600
      9  C         23.6350  -21.5140  -14.4920 C.3     1  UNL1        0.1590
     10  C         24.8400  -20.5990  -14.4370 C.2     1  UNL1       -0.0340
     11  C         25.4950  -20.1330  -15.5950 C.2     1  UNL1       -0.0540
     12  C         26.6190  -19.3040  -15.4570 C.2     1  UNL1        0.0080
     13  C         25.0240  -20.4960  -16.9770 C.3     1  UNL1        0.0490
     14  C         27.1010  -18.9500  -14.1960 C.2     1  UNL1        0.0070
     15  C         26.4660  -19.4120  -13.0410 C.2     1  UNL1       -0.0610
     16  C         27.0140  -19.0750  -11.6860 C.3     1  UNL1        0.0480
     17  C         25.3510  -20.2460  -13.1720 C.2     1  UNL1        0.0160
     18  C         18.2750  -21.4960  -11.3280 C.2     1  UNL1        0.2520
     19  O         17.6080  -20.9000  -12.1650 O.2     1  UNL1       -0.2680
     20  N         17.7390  -22.0840  -10.2030 N.am    1  UNL1       -0.3530
     21  H         18.2970  -22.7340   -9.6680 H       1  UNL1        0.1630
     22  C         16.3090  -22.1020   -9.9650 C.3     1  UNL1        0.1620
     23  C         15.9840  -22.7460   -8.6480 C.2     1  UNL1       -0.0230
     24  C         16.0500  -24.1320   -8.4730 C.2     1  UNL1        0.0120
     25  C         15.7370  -24.6890   -7.2370 C.2     1  UNL1        0.0200
     26  C         15.3580  -23.8380   -6.2120 C.2     1  UNL1        0.1160
     27  N         15.2740  -22.4960   -6.3420 N.2     1  UNL1       -0.2730
     28  C         15.5850  -21.9830   -7.5550 C.2     1  UNL1        0.1240
     29  S         22.7840  -23.2040   -9.3820 S.O2    1  UNL1        0.2460
     30  O         24.1500  -23.2880   -9.8460 O.2     1  UNL1       -0.2060
     31  O         22.0380  -24.3640   -8.9350 O.2     1  UNL1       -0.2060
     32  N         22.6350  -22.0450   -8.1360 N.pl3   1  UNL1       -0.1810
     33  H         22.8220  -21.1380   -8.5650 H       1  UNL1        0.1460
     34  C         21.3470  -22.0370   -7.5060 C.2     1  UNL1        0.0220
     35  C         20.4450  -23.0790   -7.7350 C.2     1  UNL1        0.0240
     36  C         19.2130  -23.0810   -7.0810 C.2     1  UNL1        0.0020
     37  C         18.8910  -22.0550   -6.1920 C.2     1  UNL1        0.0000
     38  C         19.8040  -21.0280   -5.9490 C.2     1  UNL1        0.0020
     39  C         21.0370  -21.0220   -6.6010 C.2     1  UNL1        0.0240
@<TRIPOS>BOND
     1    13    11    1
     2    11    12    1
     3    11    10    2
     4    12    14    2
     5     9    10    1
     6     9     7    1
     7    10    17    1
     8    14    15    1
     9     7     8    1
    10     7     1    1
    11    17    15    2
    12    15    16    1
    13     1     2    2
    14     1     6    1
    15     2     3    1
    16    19    18    2
    17     6     5    2
    18     3    18    1
    19     3     4    2
    20    18    20   am
    21     5     4    1
    22     5    29    1
    23    20    22    1
    24    20    21    1
    25    22    23    1
    26    30    29    2
    27    29    31    2
    28    29    32    1
    29    23    24    2
    30    23    28    1
    31    33    32    1
    32    24    25    1
    33    32    34    1
    34    35    34    2
    35    35    36    1
    36    28    27    2
    37    34    39    1
    38    25    26    2
    39    36    37    2
    40    39    38    2
    41    27    26    1
    42    37    38    1
