@<TRIPOS>MOLECULE
9225_out_ligand_01.pdbqt
 36 40 0 0 0
SMALL
GASTEIGER

@<TRIPOS>ATOM
      1  C         20.2910  -22.0360  -10.1670 C.ar    1  UNL1        0.1310
      2  N         20.0920  -22.1480   -8.8700 N.ar    1  UNL1       -0.1350
      3  N         21.1960  -22.7320   -8.3170 N.ar    1  UNL1       -0.1350
      4  C         22.0680  -22.9620   -9.2750 C.ar    1  UNL1        0.1310
      5  N         21.5330  -22.5490  -10.4700 N.ar    1  UNL1       -0.3190
      6  C         22.1230  -22.5850  -11.7920 C.3     1  UNL1        0.1510
      7  C         23.4860  -23.2630  -11.9240 C.3     1  UNL1        0.1460
      8  N         24.5290  -22.5900  -11.1430 N.am    1  UNL1       -0.3440
      9  C         25.5600  -21.8150  -11.6660 C.2     1  UNL1        0.2770
     10  O         26.5080  -21.4390  -10.9760 O.2     1  UNL1       -0.2650
     11  C         24.5460  -22.7850   -9.6850 C.3     1  UNL1        0.1340
     12  C         23.4000  -23.5950   -9.0840 C.3     1  UNL1        0.1000
     13  C         19.3190  -21.4500  -11.1370 C.3     1  UNL1        0.1000
     14  C         17.9030  -21.9820  -10.9060 C.3     1  UNL1        0.1300
     15  N         17.5640  -22.0670   -9.4980 N.am    1  UNL1       -0.3560
     16  C         16.5720  -22.9200   -9.0600 C.2     1  UNL1        0.2510
     17  O         15.8540  -23.5540   -9.8270 O.2     1  UNL1       -0.2680
     18  H         18.3050  -21.8210   -8.8470 H       1  UNL1        0.1620
     19  C         16.4190  -23.0700   -7.5830 C.2     1  UNL1        0.0320
     20  C         17.3490  -23.8610   -6.8970 C.2     1  UNL1        0.0170
     21  C         17.2470  -24.0360   -5.5150 C.2     1  UNL1        0.0070
     22  C         16.2040  -23.4370   -4.7990 C.2     1  UNL1       -0.0620
     23  C         16.1140  -23.5980   -3.3110 C.3     1  UNL1        0.0480
     24  C         15.2760  -22.6440   -5.4850 C.2     1  UNL1        0.0070
     25  C         15.3740  -22.4670   -6.8690 C.2     1  UNL1        0.0170
     26  C         25.5040  -21.4150  -13.1080 C.2     1  UNL1        0.1470
     27  C         25.7400  -20.1250  -13.3800 C.2     1  UNL1        0.0980
     28  C         25.6720  -19.6670  -14.7750 C.2     1  UNL1        0.1870
     29  O         25.9260  -18.5080  -15.0730 O.2     1  UNL1       -0.2870
     30  C         25.2990  -20.6750  -15.7800 C.2     1  UNL1        0.0480
     31  C         25.1860  -20.3310  -17.1300 C.2     1  UNL1        0.0180
     32  C         25.0580  -21.9810  -15.3600 C.2     1  UNL1        0.0900
     33  C         24.8270  -21.3070  -18.0600 C.2     1  UNL1        0.0010
     34  C         24.5830  -22.6160  -17.6420 C.2     1  UNL1        0.0030
     35  C         24.6980  -22.9550  -16.2920 C.2     1  UNL1        0.0380
     36  O         25.1590  -22.3720  -14.0490 O.2     1  UNL1       -0.3040
@<TRIPOS>BOND
     1    33    34    2
     2    33    31    1
     3    34    35    1
     4    31    30    2
     5    35    32    2
     6    30    32    1
     7    30    28    1
     8    32    36    1
     9    29    28    2
    10    28    27    1
    11    36    26    1
    12    27    26    2
    13    26     9    1
    14     7     6    1
    15     7     8    1
    16     6     5    1
    17     9     8   am
    18     9    10    2
    19     8    11    1
    20    13    14    1
    21    13     1    1
    22    14    15    1
    23     5     1   ar
    24     5     4   ar
    25     1     2   ar
    26    17    16    2
    27    11    12    1
    28    15    16   am
    29    15    18    1
    30     4    12    1
    31     4     3   ar
    32    16    19    1
    33     2     3   ar
    34    19    20    2
    35    19    25    1
    36    20    21    1
    37    25    24    2
    38    21    22    2
    39    24    22    1
    40    22    23    1
