@<TRIPOS>MOLECULE
9233_out_ligand_01.pdbqt
 31 35 0 0 0
SMALL
GASTEIGER

@<TRIPOS>ATOM
      1  C         15.6430  -23.2910   -8.3390 C.3     1  UNL1        0.1510
      2  C         17.0470  -23.9170   -8.3810 C.3     1  UNL1        0.0760
      3  C         17.6930  -23.0300   -9.3790 C.2     1  UNL1       -0.0110
      4  C         16.7070  -22.2970  -10.0240 C.2     1  UNL1        0.0760
      5  C         16.9960  -21.4170  -11.0410 C.2     1  UNL1        0.0380
      6  C         18.3330  -21.2610  -11.4080 C.2     1  UNL1        0.0150
      7  C         19.3600  -21.9870  -10.7660 C.2     1  UNL1       -0.0240
      8  C         20.7060  -21.8210  -11.1380 C.2     1  UNL1        0.0240
      9  C         21.7430  -22.5380  -10.5140 C.2     1  UNL1       -0.0240
     10  C         21.4000  -23.4420   -9.4990 C.2     1  UNL1        0.0130
     11  C         20.0680  -23.6240   -9.1130 C.2     1  UNL1        0.0140
     12  C         19.0370  -22.8990   -9.7340 C.2     1  UNL1       -0.0170
     13  O         15.4410  -22.5180   -9.5470 O.2     1  UNL1       -0.3430
     14  C         15.3930  -22.4200   -7.0910 C.3     1  UNL1        0.1550
     15  N         15.8630  -23.0040   -5.8420 N.am    1  UNL1       -0.3590
     16  C         15.3940  -22.5730   -4.6190 C.2     1  UNL1        0.2190
     17  O         14.4680  -21.7850   -4.4800 O.2     1  UNL1       -0.2740
     18  H         16.7240  -23.5380   -5.8600 H       1  UNL1        0.1620
     19  C         16.0890  -23.2340   -3.4510 C.3     1  UNL1        0.1240
     20  C         17.5630  -23.4750   -3.7420 C.3     1  UNL1        0.1610
     21  N         18.1970  -22.3290   -4.3590 N.pl3   1  UNL1       -0.2620
     22  C         18.4180  -21.0980   -3.8250 C.2     1  UNL1        0.2290
     23  N         19.0670  -20.3540   -4.6940 N.2     1  UNL1       -0.2340
     24  C         19.2210  -21.1950   -5.7600 C.2     1  UNL1        0.2560
     25  N         18.6980  -22.4140   -5.6070 N.2     1  UNL1       -0.1650
     26  C         23.1460  -22.3420  -10.9110 C.2     1  UNL1       -0.0080
     27  C         23.7300  -23.0730  -11.9530 C.2     1  UNL1        0.0150
     28  C         25.0640  -22.8660  -12.2990 C.2     1  UNL1        0.0200
     29  C         25.7870  -21.9260  -11.5880 C.2     1  UNL1        0.1160
     30  N         25.2730  -21.1970  -10.5770 N.2     1  UNL1       -0.2720
     31  C         23.9740  -21.4230  -10.2650 C.2     1  UNL1        0.1280
@<TRIPOS>BOND
     1    28    27    1
     2    28    29    2
     3    27    26    2
     4    29    30    1
     5     6     5    2
     6     6     7    1
     7     8     7    2
     8     8     9    1
     9     5     4    1
    10    26     9    1
    11    26    31    1
    12     7    12    1
    13    30    31    2
    14     9    10    2
    15     4    13    1
    16     4     3    2
    17    12     3    1
    18    12    11    2
    19    13     1    1
    20    10    11    1
    21     3     2    1
    22     2     1    1
    23     1    14    1
    24    14    15    1
    25    18    15    1
    26    15    16   am
    27    24    25    2
    28    24    23    1
    29    25    21    1
    30    23    22    2
    31    16    17    2
    32    16    19    1
    33    21    22    1
    34    21    20    1
    35    20    19    1
