@<TRIPOS>MOLECULE
9241_out_ligand_01.pdbqt
 31 34 0 0 0
SMALL
GASTEIGER

@<TRIPOS>ATOM
      1  C         24.5540  -21.5260  -14.0670 C.ar    1  UNL1        0.1480
      2  N         23.8460  -20.5930  -14.6710 N.ar    1  UNL1       -0.1330
      3  N         22.6150  -20.5370  -14.0780 N.ar    1  UNL1       -0.1350
      4  C         22.5770  -21.4350  -13.1120 C.ar    1  UNL1        0.1320
      5  N         23.7810  -22.0980  -13.0860 N.ar    1  UNL1       -0.3170
      6  C         24.0980  -23.2230  -12.2400 C.3     1  UNL1        0.1620
      7  C         24.0520  -22.9090  -10.7350 C.3     1  UNL1        0.2930
      8  N         22.8940  -22.1360  -10.2540 N.3     1  UNL1        0.0940
      9  C         21.6450  -22.4950  -10.9400 C.3     1  UNL1        0.2800
     10  C         21.4130  -21.6530  -12.2020 C.3     1  UNL1        0.1110
     11  C         22.7920  -22.2040   -8.7880 C.3     1  UNL1        0.3110
     12  C         21.4270  -22.6490   -8.3030 C.2     1  UNL1       -0.0300
     13  C         20.6440  -21.8030   -7.5120 C.2     1  UNL1        0.0110
     14  C         19.3730  -22.2060   -7.0870 C.2     1  UNL1        0.0300
     15  C         18.8340  -23.4580   -7.4390 C.2     1  UNL1        0.0340
     16  C         19.6300  -24.2930   -8.2360 C.2     1  UNL1        0.0300
     17  C         20.9000  -23.8930   -8.6700 C.2     1  UNL1        0.0110
     18  N         17.5470  -23.8140   -6.9670 N.pl3   1  UNL1       -0.3510
     19  C         16.4860  -23.9560   -7.9750 C.3     1  UNL1        0.1560
     20  C         17.0340  -23.4660   -5.6860 C.2     1  UNL1        0.0340
     21  C         17.6550  -23.9020   -4.5040 C.2     1  UNL1        0.0290
     22  C         17.1520  -23.5500   -3.2480 C.2     1  UNL1        0.0020
     23  C         16.0130  -22.7560   -3.1530 C.2     1  UNL1        0.0000
     24  C         15.3730  -22.3230   -4.3120 C.2     1  UNL1        0.0020
     25  C         15.8800  -22.6760   -5.5650 C.2     1  UNL1        0.0290
     26  C         25.9440  -21.9070  -14.4290 C.3     1  UNL1        0.2030
     27  N         26.0790  -21.8320  -15.8660 N.am    1  UNL1       -0.3540
     28  C         25.6770  -22.8610  -16.6820 C.2     1  UNL1        0.2130
     29  C         25.7730  -22.5390  -18.1490 C.3     1  UNL1        0.1170
     30  O         25.2980  -23.9510  -16.2670 O.2     1  UNL1       -0.2740
     31  H         26.1230  -20.8970  -16.2560 H       1  UNL1        0.1620
@<TRIPOS>BOND
     1    29    28    1
     2    28    30    2
     3    28    27   am
     4    31    27    1
     5    27    26    1
     6     2     3   ar
     7     2     1   ar
     8    26     1    1
     9     3     4   ar
    10     1     5   ar
    11     4     5   ar
    12     4    10    1
    13     5     6    1
    14     6     7    1
    15    10     9    1
    16     9     8    1
    17     7     8    1
    18     8    11    1
    19    11    12    1
    20    17    12    2
    21    17    16    1
    22    12    13    1
    23    16    15    2
    24    19    18    1
    25    13    14    2
    26    15    14    1
    27    15    18    1
    28    18    20    1
    29    20    25    2
    30    20    21    1
    31    25    24    1
    32    21    22    2
    33    24    23    2
    34    22    23    1
