@<TRIPOS>MOLECULE
9242_out_ligand_01.pdbqt
 30 33 0 0 0
SMALL
GASTEIGER

@<TRIPOS>ATOM
      1  O         15.3460  -22.0060   -9.8520 O.2     1  UNL1       -0.2660
      2  C         16.4860  -22.4610   -9.8930 C.2     1  UNL1        0.2730
      3  N         16.8670  -23.5670   -9.1490 N.am    1  UNL1       -0.3540
      4  H         17.8560  -23.7330   -9.0370 H       1  UNL1        0.1620
      5  C         17.5410  -21.8760  -10.7180 C.2     1  UNL1        0.1580
      6  C         18.8460  -22.2980  -10.9060 C.2     1  UNL1        0.1460
      7  N         19.3660  -21.3910  -11.7830 N.pl3   1  UNL1       -0.2830
      8  N         18.4630  -20.4610  -12.1220 N.2     1  UNL1        0.0050
      9  N         17.3370  -20.7490  -11.4820 N.2     1  UNL1       -0.1530
     10  C         20.7020  -21.3540  -12.3410 C.3     1  UNL1        0.1460
     11  C         21.7750  -21.5510  -11.2710 C.3     1  UNL1        0.0260
     12  C         22.6370  -22.7930  -11.5170 C.3     1  UNL1        0.0400
     13  C         24.1150  -22.5060  -11.5830 C.2     1  UNL1       -0.0580
     14  C         24.9570  -23.2770  -12.3960 C.2     1  UNL1        0.0070
     15  C         26.3270  -23.0180  -12.4460 C.2     1  UNL1        0.0010
     16  C         26.8700  -21.9830  -11.6880 C.2     1  UNL1        0.0000
     17  C         26.0430  -21.2040  -10.8820 C.2     1  UNL1        0.0010
     18  C         24.6710  -21.4630  -10.8290 C.2     1  UNL1        0.0070
     19  C         15.9750  -24.1430   -8.1530 C.3     1  UNL1        0.1430
     20  C         16.7250  -24.5470   -6.8760 C.3     1  UNL1        0.1420
     21  N         17.7140  -23.5460   -6.4530 N.pl3   1  UNL1       -0.3790
     22  C         17.1680  -22.3470   -5.8050 C.3     1  UNL1        0.1230
     23  C         18.2430  -21.6280   -5.0120 C.3     1  UNL1        0.0240
     24  C         19.3340  -21.1740   -5.9650 C.3     1  UNL1        0.0420
     25  C         19.7750  -22.2950   -6.8730 C.2     1  UNL1       -0.0320
     26  C         21.0170  -22.1650   -7.5230 C.2     1  UNL1        0.0090
     27  C         18.9510  -23.4230   -7.0950 C.2     1  UNL1        0.0360
     28  C         21.4780  -23.1590   -8.3750 C.2     1  UNL1        0.0010
     29  C         20.7040  -24.2910   -8.5810 C.2     1  UNL1        0.0020
     30  C         19.4630  -24.4190   -7.9440 C.2     1  UNL1        0.0300
@<TRIPOS>BOND
     1    15    14    1
     2    15    16    2
     3    14    13    2
     4    10     7    1
     5    10    11    1
     6     8     7    1
     7     8     9    2
     8     7     6    1
     9    16    17    1
    10    13    12    1
    11    13    18    1
    12    12    11    1
    13     9     5    1
    14     6     5    2
    15    17    18    2
    16     5     2    1
    17     2     1    2
    18     2     3   am
    19     3     4    1
    20     3    19    1
    21    29    28    2
    22    29    30    1
    23    28    26    1
    24    19    20    1
    25    30    27    2
    26    26    25    2
    27    27    25    1
    28    27    21    1
    29    20    21    1
    30    25    24    1
    31    21    22    1
    32    24    23    1
    33    22    23    1
