@<TRIPOS>MOLECULE
9248_out_ligand_01.pdbqt
 35 39 0 0 0
SMALL
GASTEIGER

@<TRIPOS>ATOM
      1  N         21.3840  -22.0650  -12.4750 N.3     1  UNL1        0.0960
      2  H         21.9650  -22.7310  -11.9690 H       1  UNL1        0.3170
      3  C         20.4740  -21.3780  -11.5660 C.3     1  UNL1        0.2570
      4  C         19.0560  -21.4470  -12.1890 C.3     1  UNL1        0.0410
      5  C         17.9710  -20.9980  -11.1930 C.3     1  UNL1        0.0080
      6  C         17.9250  -21.9040   -9.9480 C.3     1  UNL1        0.0600
      7  C         19.3090  -22.1570   -9.4540 C.2     1  UNL1        0.0460
      8  C         20.4620  -22.0050  -10.2060 C.2     1  UNL1        0.0190
      9  N         19.6790  -22.7260   -8.2500 N.pl3   1  UNL1       -0.2370
     10  C         21.4640  -22.5810   -9.4100 C.2     1  UNL1        0.1500
     11  N         20.9910  -23.0830   -8.2680 N.2     1  UNL1       -0.1790
     12  C         18.8730  -23.0630   -7.1330 C.2     1  UNL1        0.0650
     13  C         18.2470  -24.3200   -7.1700 C.2     1  UNL1        0.0320
     14  C         17.3720  -24.7010   -6.1590 C.2     1  UNL1        0.0030
     15  C         17.1260  -23.8340   -5.0980 C.2     1  UNL1        0.0070
     16  C         17.7780  -22.5930   -5.0130 C.2     1  UNL1       -0.0540
     17  C         17.5180  -21.7300   -3.8040 C.3     1  UNL1        0.0490
     18  C         18.7010  -22.2070   -6.0200 C.2     1  UNL1       -0.0270
     19  C         19.5480  -20.9790   -5.7910 C.3     1  UNL1        0.0510
     20  C         22.2100  -21.1610  -13.2630 C.3     1  UNL1        0.3110
     21  C         23.6340  -21.5830  -13.0890 C.2     1  UNL1       -0.0020
     22  C         24.2770  -21.8110  -11.8850 C.2     1  UNL1        0.1010
     23  N         25.5760  -22.1570  -12.1420 N.pl3   1  UNL1       -0.3470
     24  C         25.8050  -22.1700  -13.5020 C.2     1  UNL1        0.0450
     25  C         26.9660  -22.4610  -14.2370 C.2     1  UNL1        0.0300
     26  C         24.6000  -21.8200  -14.1210 C.2     1  UNL1        0.0000
     27  C         26.8960  -22.3940  -15.6320 C.2     1  UNL1        0.0020
     28  C         25.7120  -22.0470  -16.2710 C.2     1  UNL1        0.0010
     29  C         24.5610  -21.7580  -15.5300 C.2     1  UNL1        0.0140
     30  C         26.5630  -22.4590  -11.1150 C.3     1  UNL1        0.2310
     31  C         26.6710  -23.9310  -10.7730 C.2     1  UNL1        0.2330
     32  N         26.3350  -24.3230   -9.5070 N.am    1  UNL1       -0.3690
     33  H         26.3350  -25.3240   -9.3450 H       1  UNL1        0.1590
     34  H         25.6830  -23.7780   -8.9560 H       1  UNL1        0.1590
     35  O         27.1210  -24.7570  -11.5660 O.2     1  UNL1       -0.2720
@<TRIPOS>BOND
     1    28    27    2
     2    28    29    1
     3    27    25    1
     4    29    26    2
     5    25    24    2
     6    26    24    1
     7    26    21    1
     8    24    23    1
     9    20    21    1
    10    20     1    1
    11    21    22    2
    12     1     2    1
    13     1     3    1
    14     4     3    1
    15     4     5    1
    16    23    22    1
    17    23    30    1
    18    35    31    2
    19     3     8    1
    20     5     6    1
    21    30    31    1
    22    31    32   am
    23     8     7    2
    24     8    10    1
    25     6     7    1
    26    32    33    1
    27    32    34    1
    28     7     9    1
    29    10    11    2
    30    11     9    1
    31     9    12    1
    32    13    12    2
    33    13    14    1
    34    12    18    1
    35    14    15    2
    36    18    19    1
    37    18    16    2
    38    15    16    1
    39    16    17    1
