@<TRIPOS>MOLECULE
9262_out_ligand_01.pdbqt
 28 31 0 0 0
SMALL
GASTEIGER

@<TRIPOS>ATOM
      1  C         22.3140  -22.8240   -9.0170 C.2     1  UNL1        0.0340
      2  C         21.8050  -24.0810   -9.3960 C.2     1  UNL1        0.0200
      3  C         20.6000  -24.5740   -8.8780 C.2     1  UNL1        0.0410
      4  C         19.9500  -23.7380   -7.9820 C.ar    1  UNL1        0.1060
      5  O         18.7710  -23.9710   -7.3380 O.2     1  UNL1       -0.2890
      6  C         18.5710  -22.8400   -6.5850 C.ar    1  UNL1        0.1810
      7  N         19.5220  -21.9290   -6.7050 N.ar    1  UNL1       -0.2210
      8  C         20.4060  -22.4900   -7.5910 C.ar    1  UNL1        0.0940
      9  C         21.6100  -22.0040   -8.1150 C.2     1  UNL1        0.0510
     10  C         23.6010  -22.3810   -9.6220 C.2     1  UNL1        0.2510
     11  N         24.4900  -23.3740   -9.9780 N.am    1  UNL1       -0.3570
     12  H         24.1930  -24.3390   -9.9790 H       1  UNL1        0.1620
     13  O         23.8110  -21.1890   -9.8120 O.2     1  UNL1       -0.2680
     14  C         25.7490  -23.0540  -10.6290 C.3     1  UNL1        0.1270
     15  C         25.7240  -23.3460  -12.1320 C.3     1  UNL1        0.0610
     16  C         25.4420  -22.1260  -12.9380 C.2     1  UNL1       -0.0200
     17  C         26.3200  -21.1400  -13.3360 C.2     1  UNL1        0.1200
     18  N         25.5860  -20.2400  -14.0530 N.pl3   1  UNL1       -0.2850
     19  C         26.0620  -19.0340  -14.6850 C.3     1  UNL1        0.1790
     20  N         24.2860  -20.5650  -14.1450 N.2     1  UNL1       -0.1850
     21  C         24.1990  -21.7150  -13.4730 C.2     1  UNL1        0.1470
     22  C         17.3590  -22.7990   -5.7720 C.2     1  UNL1        0.0200
     23  C         17.4170  -23.1880   -4.4220 C.2     1  UNL1        0.0160
     24  C         16.2740  -23.1600   -3.6140 C.2     1  UNL1        0.0040
     25  C         15.0590  -22.7430   -4.1510 C.2     1  UNL1        0.0420
     26  C         14.9980  -22.3580   -5.4850 C.2     1  UNL1        0.1170
     27  F         13.8280  -21.9580   -5.9990 F       1  UNL1       -0.2060
     28  C         16.1280  -22.3820   -6.2950 C.2     1  UNL1        0.0580
@<TRIPOS>BOND
     1    19    18    1
     2    20    18    1
     3    20    21    2
     4    18    17    1
     5    21    16    1
     6    17    16    2
     7    16    15    1
     8    15    14    1
     9    14    11    1
    10    12    11    1
    11    11    10   am
    12    13    10    2
    13    10     1    1
    14     2     1    2
    15     2     3    1
    16     1     9    1
    17     3     4    2
    18     9     8    2
    19     4     8   ar
    20     4     5   ar
    21     8     7   ar
    22     5     6   ar
    23     7     6   ar
    24     6    22    1
    25    28    22    2
    26    28    26    1
    27    27    26    1
    28    22    23    1
    29    26    25    2
    30    23    24    2
    31    25    24    1
