@<TRIPOS>MOLECULE
9264_out_ligand_01.pdbqt
 31 34 0 0 0
SMALL
GASTEIGER

@<TRIPOS>ATOM
      1  C         22.4370  -23.2800   -9.8920 C.3     1  UNL1        0.1510
      2  C         22.0450  -22.8470  -11.3100 C.3     1  UNL1        0.0750
      3  C         20.6800  -22.3390  -11.0450 C.2     1  UNL1       -0.0210
      4  C         19.8650  -21.5770  -11.8600 C.2     1  UNL1        0.0100
      5  C         18.6050  -21.2260  -11.3800 C.2     1  UNL1        0.0020
      6  C         18.1840  -21.6400  -10.1030 C.2     1  UNL1        0.0150
      7  C         19.0090  -22.4160   -9.2650 C.2     1  UNL1        0.0080
      8  C         20.2570  -22.7530   -9.7870 C.2     1  UNL1        0.0860
      9  O         21.2210  -23.4750   -9.1150 O.2     1  UNL1       -0.3430
     10  C         23.3580  -22.2970   -9.1360 C.3     1  UNL1        0.1550
     11  N         24.1270  -21.4330  -10.0190 N.am    1  UNL1       -0.3530
     12  C         25.2070  -21.9130  -10.7390 C.2     1  UNL1        0.2700
     13  O         25.7160  -23.0020  -10.4860 O.2     1  UNL1       -0.2660
     14  H         23.6140  -20.6480  -10.3920 H       1  UNL1        0.1620
     15  C         25.6730  -21.0550  -11.8460 C.2     1  UNL1        0.1310
     16  N         25.1680  -21.2310  -13.1380 N.2     1  UNL1       -0.2400
     17  C         25.6900  -20.3580  -13.9690 C.2     1  UNL1        0.0720
     18  C         25.3600  -20.2750  -15.4170 C.3     1  UNL1        0.0780
     19  S         26.8200  -19.2680  -13.2770 S.3     1  UNL1       -0.0850
     20  C         26.6030  -20.0300  -11.7570 C.2     1  UNL1        0.0890
     21  C         18.5720  -22.8040   -7.9130 C.2     1  UNL1       -0.0230
     22  C         17.9230  -24.0320   -7.6890 C.2     1  UNL1        0.0130
     23  C         17.5000  -24.4090   -6.4090 C.2     1  UNL1        0.0180
     24  C         17.7250  -23.5600   -5.3200 C.2     1  UNL1        0.0310
     25  C         18.3560  -22.3300   -5.5270 C.2     1  UNL1        0.0180
     26  C         18.7780  -21.9620   -6.8090 C.2     1  UNL1        0.0130
     27  C         17.2920  -23.9100   -3.9410 C.2     1  UNL1        0.2490
     28  N         16.1710  -23.2960   -3.4570 N.am    1  UNL1       -0.3660
     29  H         15.4990  -22.8580   -4.0700 H       1  UNL1        0.1590
     30  H         15.8250  -23.6540   -2.5750 H       1  UNL1        0.1590
     31  O         17.8900  -24.7400   -3.2690 O.2     1  UNL1       -0.2680
@<TRIPOS>BOND
     1    18    17    1
     2    17    19    1
     3    17    16    2
     4    19    20    1
     5    16    15    1
     6     4     5    1
     7     4     3    2
     8    15    20    2
     9    15    12    1
    10     5     6    2
    11     2     3    1
    12     2     1    1
    13     3     8    1
    14    12    13    2
    15    12    11   am
    16    14    11    1
    17     6     7    1
    18    11    10    1
    19     1    10    1
    20     1     9    1
    21     8     7    2
    22     8     9    1
    23     7    21    1
    24    21    22    2
    25    21    26    1
    26    22    23    1
    27    26    25    2
    28    23    24    2
    29    25    24    1
    30    24    27    1
    31    29    28    1
    32    27    28   am
    33    27    31    2
    34    28    30    1
