@<TRIPOS>MOLECULE
9270_out_ligand_01.pdbqt
 39 42 0 0 0
SMALL
GASTEIGER

@<TRIPOS>ATOM
      1  C         22.0150  -21.3380  -12.9780 C.2     1  UNL1        0.0300
      2  C         20.6280  -21.1830  -12.8180 C.2     1  UNL1        0.0460
      3  C         19.9740  -21.5970  -11.6460 C.2     1  UNL1        0.0350
      4  C         20.7100  -22.1770  -10.6110 C.2     1  UNL1        0.0420
      5  C         22.0760  -22.3920  -10.7890 C.2     1  UNL1        0.0780
      6  C         22.7230  -21.9910  -11.9650 C.2     1  UNL1        0.0540
      7  N         22.5920  -20.9500  -14.1880 N.pl3   1  UNL1       -0.3860
      8  H         22.0110  -20.3070  -14.7200 H       1  UNL1        0.1600
      9  C         24.0000  -20.5620  -14.2260 C.3     1  UNL1        0.1590
     10  C         24.8560  -21.8040  -14.3790 C.2     1  UNL1       -0.0350
     11  C         24.5320  -22.7250  -15.3910 C.2     1  UNL1        0.0100
     12  C         25.2670  -23.8990  -15.5590 C.2     1  UNL1        0.0070
     13  C         26.3470  -24.1800  -14.7170 C.2     1  UNL1       -0.0610
     14  C         27.1190  -25.4550  -14.8840 C.3     1  UNL1        0.0480
     15  C         26.6610  -23.2810  -13.6900 C.2     1  UNL1        0.0140
     16  C         25.9320  -22.0920  -13.5120 C.2     1  UNL1       -0.0540
     17  C         26.3050  -21.1710  -12.3820 C.3     1  UNL1        0.0490
     18  C         18.5070  -21.4340  -11.4590 C.2     1  UNL1        0.2520
     19  O         17.8740  -20.6740  -12.1830 O.2     1  UNL1       -0.2680
     20  N         17.9390  -22.1310  -10.4150 N.am    1  UNL1       -0.3530
     21  H         18.5420  -22.4710   -9.6780 H       1  UNL1        0.1630
     22  C         16.5420  -21.9440  -10.0960 C.3     1  UNL1        0.1620
     23  C         16.1810  -22.6660   -8.8330 C.2     1  UNL1       -0.0230
     24  C         16.2210  -24.0610   -8.7550 C.2     1  UNL1        0.0120
     25  C         15.9130  -24.6940   -7.5570 C.2     1  UNL1        0.0200
     26  C         15.5820  -23.9100   -6.4660 C.2     1  UNL1        0.1160
     27  N         15.5420  -22.5600   -6.5000 N.2     1  UNL1       -0.2730
     28  C         15.8390  -21.9720   -7.6800 C.2     1  UNL1        0.1240
     29  S         22.9990  -23.1880   -9.4990 S.O2    1  UNL1        0.2460
     30  O         22.2990  -24.4050   -9.1420 O.2     1  UNL1       -0.2060
     31  O         24.3910  -23.1860   -9.8970 O.2     1  UNL1       -0.2060
     32  N         22.8380  -22.0430   -8.2430 N.pl3   1  UNL1       -0.1810
     33  H         23.5670  -22.2590   -7.5580 H       1  UNL1        0.1460
     34  C         21.5590  -22.0640   -7.5970 C.2     1  UNL1        0.0220
     35  C         20.6390  -23.0760   -7.8750 C.2     1  UNL1        0.0240
     36  C         19.3950  -23.0700   -7.2450 C.2     1  UNL1        0.0020
     37  C         19.0720  -22.0510   -6.3460 C.2     1  UNL1        0.0000
     38  C         19.9890  -21.0320   -6.0860 C.2     1  UNL1        0.0020
     39  C         21.2320  -21.0330   -6.7170 C.2     1  UNL1        0.0240
@<TRIPOS>BOND
     1    12    11    1
     2    12    13    2
     3    11    10    2
     4    14    13    1
     5     8     7    1
     6    13    15    1
     7    10     9    1
     8    10    16    1
     9     9     7    1
    10     7     1    1
    11    15    16    2
    12    16    17    1
    13     1     2    2
    14     1     6    1
    15     2     3    1
    16    19    18    2
    17     6     5    2
    18     3    18    1
    19     3     4    2
    20    18    20   am
    21     5     4    1
    22     5    29    1
    23    20    22    1
    24    20    21    1
    25    22    23    1
    26    31    29    2
    27    29    30    2
    28    29    32    1
    29    23    24    2
    30    23    28    1
    31    24    25    1
    32    32    34    1
    33    32    33    1
    34    35    34    2
    35    35    36    1
    36    28    27    2
    37    34    39    1
    38    25    26    2
    39    36    37    2
    40    39    38    2
    41    27    26    1
    42    37    38    1
