@<TRIPOS>MOLECULE
9279_out_ligand_01.pdbqt
 33 37 0 0 0
SMALL
GASTEIGER

@<TRIPOS>ATOM
      1  C         20.1390  -24.4520   -9.0180 C.3     1  UNL1        0.0510
      2  C         20.1450  -23.2160   -9.8630 C.ar    1  UNL1       -0.0230
      3  C         21.2870  -22.6300  -10.4030 C.ar    1  UNL1        0.0810
      4  S         20.9120  -21.3390  -11.4570 S.2     1  UNL1       -0.0630
      5  C         19.2500  -21.4770  -11.1510 C.ar    1  UNL1        0.1140
      6  N         18.3890  -20.6420  -11.7540 N.2     1  UNL1       -0.2340
      7  C         17.1250  -20.8950  -11.4150 C.2     1  UNL1        0.2360
      8  N         16.6820  -21.8170  -10.5510 N.2     1  UNL1       -0.2290
      9  C         17.5650  -22.6490   -9.9590 C.2     1  UNL1        0.1180
     10  C         18.9420  -22.4940  -10.2600 C.ar    1  UNL1        0.0470
     11  N         17.1140  -23.6230   -9.0650 N.pl3   1  UNL1       -0.2760
     12  H         17.8790  -23.9520   -8.4880 H       1  UNL1        0.1290
     13  C         15.8790  -23.3550   -8.3260 C.3     1  UNL1        0.0980
     14  C         15.8740  -24.0410   -6.9500 C.3     1  UNL1        0.0550
     15  C         16.2790  -23.1600   -5.8060 C.2     1  UNL1       -0.0290
     16  C         15.5700  -22.9630   -4.6360 C.2     1  UNL1        0.0960
     17  N         16.2770  -22.0970   -3.8470 N.pl3   1  UNL1       -0.3650
     18  C         17.4360  -21.7110   -4.4780 C.2     1  UNL1        0.0420
     19  H         15.9960  -21.7830   -2.9290 H       1  UNL1        0.1650
     20  C         18.4550  -20.8530   -4.0480 C.2     1  UNL1        0.0300
     21  C         17.4620  -22.3570   -5.7140 C.2     1  UNL1       -0.0020
     22  C         19.5380  -20.6510   -4.9090 C.2     1  UNL1        0.0020
     23  C         19.5940  -21.2790   -6.1510 C.2     1  UNL1        0.0010
     24  C         18.5640  -22.1300   -6.5650 C.2     1  UNL1        0.0140
     25  C         22.6910  -22.9640  -10.2190 C.2     1  UNL1        0.2590
     26  O         23.1590  -23.4310   -9.1850 O.2     1  UNL1       -0.2670
     27  N         23.4750  -22.7330  -11.3350 N.am    1  UNL1       -0.3520
     28  H         23.0320  -22.4090  -12.1830 H       1  UNL1        0.1630
     29  C         24.9070  -22.9770  -11.3310 C.3     1  UNL1        0.0840
     30  C         25.4150  -23.3550  -12.7190 C.3     1  UNL1        0.0250
     31  C         25.5770  -22.0230  -13.4480 C.3     1  UNL1        0.0020
     32  C         25.7640  -20.9640  -12.3610 C.3     1  UNL1        0.0020
     33  C         25.6970  -21.7050  -11.0290 C.3     1  UNL1        0.0250
@<TRIPOS>BOND
     1    31    30    1
     2    31    32    1
     3    30    29    1
     4    32    33    1
     5    28    27    1
     6     6     7    1
     7     6     5    2
     8     4     5   ar
     9     4     3   ar
    10     7     8    2
    11    27    29    1
    12    27    25   am
    13    29    33    1
    14     5    10   ar
    15     8     9    1
    16     3    25    1
    17     3     2   ar
    18    10     9    2
    19    10     2   ar
    20    25    26    2
    21     9    11    1
    22     2     1    1
    23    11    12    1
    24    11    13    1
    25    13    14    1
    26    14    15    1
    27    24    23    2
    28    24    21    1
    29    23    22    1
    30    15    21    1
    31    15    16    2
    32    21    18    2
    33    22    20    2
    34    16    17    1
    35    18    20    1
    36    18    17    1
    37    17    19    1
