@<TRIPOS>MOLECULE
928_out_ligand_01.pdbqt
 30 33 0 0 0
SMALL
GASTEIGER

@<TRIPOS>ATOM
      1  O         15.6190  -22.1670   -8.0900 O.2     1  UNL1       -0.2720
      2  C         16.0830  -23.2790   -8.3380 C.2     1  UNL1        0.2360
      3  N         16.9410  -23.6130   -9.3690 N.am    1  UNL1       -0.3050
      4  H         17.1250  -24.5790   -9.5870 H       1  UNL1        0.1710
      5  C         15.7410  -24.4810   -7.4460 C.3     1  UNL1        0.1950
      6  N         16.7870  -24.7820   -6.4510 N.pl3   1  UNL1       -0.2830
      7  H         17.6700  -24.9980   -6.9100 H       1  UNL1        0.1280
      8  C         16.9260  -23.8430   -5.4090 C.2     1  UNL1        0.0190
      9  C         16.0210  -23.9160   -4.3330 C.2     1  UNL1        0.0240
     10  C         16.0480  -22.9800   -3.3060 C.2     1  UNL1        0.0030
     11  C         16.9920  -21.9570   -3.3350 C.2     1  UNL1        0.0120
     12  C         17.9130  -21.8440   -4.3960 C.2     1  UNL1       -0.0240
     13  C         18.8640  -20.7980   -4.3990 C.2     1  UNL1        0.0120
     14  C         17.8820  -22.7840   -5.4580 C.2     1  UNL1       -0.0050
     15  C         19.7790  -20.6590   -5.4410 C.2     1  UNL1        0.0010
     16  C         19.7480  -21.5500   -6.5040 C.2     1  UNL1        0.0010
     17  C         18.8050  -22.5940   -6.5140 C.2     1  UNL1        0.0140
     18  C         17.5150  -22.6910  -10.1960 C.2     1  UNL1        0.1730
     19  N         16.9740  -21.6760  -10.8160 N.2     1  UNL1       -0.2350
     20  C         17.9680  -20.9660  -11.4670 C.2     1  UNL1        0.1340
     21  C         19.2520  -21.4520  -11.3260 C.2     1  UNL1        0.0080
     22  S         19.2000  -22.8790  -10.3720 S.3     1  UNL1       -0.0550
     23  C         20.5360  -20.8740  -11.8350 C.3     1  UNL1        0.0860
     24  C         21.7800  -21.5700  -11.3290 C.2     1  UNL1       -0.0530
     25  C         22.5610  -22.3590  -12.1890 C.2     1  UNL1        0.0100
     26  C         23.7110  -22.9920  -11.7120 C.2     1  UNL1        0.0430
     27  C         24.0740  -22.8440  -10.3770 C.2     1  UNL1        0.1160
     28  F         25.1780  -23.4440   -9.9250 F       1  UNL1       -0.2060
     29  C         23.3080  -22.0780   -9.5070 C.2     1  UNL1        0.0430
     30  C         22.1620  -21.4420   -9.9810 C.2     1  UNL1        0.0100
@<TRIPOS>BOND
     1    25    26    1
     2    25    24    2
     3    23    24    1
     4    23    21    1
     5    26    27    2
     6    20    21    2
     7    20    19    1
     8    24    30    1
     9    21    22    1
    10    19    18    2
    11    27    28    1
    12    27    29    1
    13    22    18    1
    14    18     3    1
    15    30    29    2
    16     4     3    1
    17     3     2   am
    18     2     1    2
    19     2     5    1
    20     5     6    1
    21     7     6    1
    22    17    16    2
    23    17    14    1
    24    16    15    1
    25     6     8    1
    26    14     8    2
    27    14    12    1
    28    15    13    2
    29     8     9    1
    30    13    12    1
    31    12    11    2
    32     9    10    2
    33    11    10    1
