@<TRIPOS>MOLECULE
9302_out_ligand_01.pdbqt
 37 42 0 0 0
SMALL
GASTEIGER

@<TRIPOS>ATOM
      1  N         18.8460  -22.1920  -10.0960 N.pl3   1  UNL1       -0.0630
      2  N         18.7960  -21.4140  -11.2210 N.2     1  UNL1       -0.1640
      3  C         20.0700  -21.2340  -11.5640 C.2     1  UNL1        0.1590
      4  C         20.9750  -21.8370  -10.6690 C.2     1  UNL1        0.0760
      5  C         20.1610  -22.5130   -9.7760 C.2     1  UNL1        0.0760
      6  C         22.4210  -21.7680  -10.7390 C.2     1  UNL1        0.2550
      7  O         23.0710  -21.0370  -10.0060 O.2     1  UNL1       -0.2680
      8  N         22.9730  -22.6100  -11.6770 N.am    1  UNL1       -0.3500
      9  H         22.3350  -23.1300  -12.2670 H       1  UNL1        0.1630
     10  C         24.3920  -22.6680  -12.0030 C.3     1  UNL1        0.1130
     11  C         25.2980  -22.7100  -10.7670 C.3     1  UNL1        0.0290
     12  C         26.7730  -22.7470  -11.1700 C.3     1  UNL1        0.0320
     13  C         27.1210  -21.6520  -12.1870 C.3     1  UNL1        0.2730
     14  N         26.2530  -21.6280  -13.3740 N.3     1  UNL1        0.0940
     15  C         24.8390  -21.5430  -12.9650 C.3     1  UNL1        0.2970
     16  C         26.4940  -22.7490  -14.2950 C.3     1  UNL1        0.3110
     17  C         25.8140  -22.5730  -15.6360 C.2     1  UNL1       -0.0300
     18  C         26.1230  -21.4780  -16.4550 C.2     1  UNL1        0.0090
     19  C         25.5160  -21.3350  -17.7070 C.2     1  UNL1        0.0010
     20  C         24.5960  -22.2850  -18.1530 C.2     1  UNL1        0.0000
     21  C         24.2770  -23.3730  -17.3440 C.2     1  UNL1        0.0010
     22  C         24.8830  -23.5200  -16.0930 C.2     1  UNL1        0.0090
     23  C         20.6290  -23.4660   -8.6330 C.3     1  UNL1        0.0390
     24  C         21.8280  -24.3600   -8.8170 C.3     1  UNL1        0.0110
     25  C         20.4550  -24.9520   -8.8270 C.3     1  UNL1        0.0110
     26  C         17.6420  -22.5660   -9.3910 C.cat   1  UNL1        0.7500
     27  N         16.6310  -23.1310  -10.0890 N.2     1  UNL1       -0.0730
     28  C         15.5240  -23.4610   -9.4000 C.2     1  UNL1        0.1390
     29  C         15.3910  -23.2790   -8.0480 C.2     1  UNL1        0.0550
     30  C         16.4800  -22.7320   -7.4060 C.2     1  UNL1        0.1110
     31  N         17.6020  -22.3600   -8.0570 N.2     1  UNL1       -0.0580
     32  C         16.5330  -22.5550   -5.9620 C.2     1  UNL1        0.1050
     33  C         15.6250  -22.7610   -4.9400 C.2     1  UNL1        0.0420
     34  C         16.2510  -22.3440   -3.7440 C.2     1  UNL1        0.0350
     35  C         17.5100  -21.9100   -4.0990 C.2     1  UNL1        0.0500
     36  C         18.6360  -21.3300   -3.3470 C.3     1  UNL1        0.0760
     37  O         17.6930  -22.0450   -5.4430 O.2     1  UNL1       -0.3130
@<TRIPOS>BOND
     1    20    19    2
     2    20    21    1
     3    19    18    1
     4    21    22    2
     5    18    17    2
     6    22    17    1
     7    17    16    1
     8    16    14    1
     9    14    15    1
    10    14    13    1
    11    15    10    1
    12     9     8    1
    13    13    12    1
    14    10     8    1
    15    10    11    1
    16     8     6   am
    17     3     2    2
    18     3     4    1
    19     2     1    1
    20    12    11    1
    21     6     4    1
    22     6     7    2
    23     4     5    2
    24     1     5    1
    25     1    26    1
    26    27    28    1
    27    27    26    2
    28     5    23    1
    29    28    29    2
    30    26    31    1
    31    25    24    1
    32    25    23    1
    33    24    23    1
    34    31    30    2
    35    29    30    1
    36    30    32    1
    37    32    37    1
    38    32    33    2
    39    37    35    1
    40    33    34    1
    41    35    34    2
    42    35    36    1
