@<TRIPOS>MOLECULE
9314_out_ligand_01.pdbqt
 32 35 0 0 0
SMALL
GASTEIGER

@<TRIPOS>ATOM
      1  C         17.8190  -22.0790  -10.3930 C.ar    1  UNL1        0.1480
      2  N         17.2930  -21.0690  -11.0580 N.ar    1  UNL1       -0.1330
      3  N         18.2550  -20.5480  -11.8780 N.ar    1  UNL1       -0.1350
      4  C         19.3660  -21.2380  -11.7110 C.ar    1  UNL1        0.1320
      5  N         19.1340  -22.2170  -10.7730 N.ar    1  UNL1       -0.3170
      6  C         20.0590  -23.2490  -10.3770 C.3     1  UNL1        0.1620
      7  C         21.3970  -22.7480   -9.8120 C.3     1  UNL1        0.2930
      8  N         22.1040  -21.6920  -10.5560 N.3     1  UNL1        0.0940
      9  C         21.8850  -21.7590  -12.0060 C.3     1  UNL1        0.2800
     10  C         20.6470  -20.9560  -12.4240 C.3     1  UNL1        0.1110
     11  C         17.0900  -22.9440   -9.4290 C.3     1  UNL1        0.2030
     12  N         17.3190  -22.4410   -8.0950 N.am    1  UNL1       -0.3500
     13  C         18.0100  -23.1280   -7.1300 C.2     1  UNL1        0.2540
     14  O         18.5780  -24.1910   -7.3690 O.2     1  UNL1       -0.2680
     15  H         16.7640  -21.6410   -7.8040 H       1  UNL1        0.1630
     16  C         18.0470  -22.5440   -5.7470 C.2     1  UNL1        0.0650
     17  C         18.8750  -21.4160   -5.5770 C.2     1  UNL1        0.0200
     18  C         18.9900  -20.7910   -4.3370 C.2     1  UNL1        0.0010
     19  C         18.2800  -21.2860   -3.2490 C.2     1  UNL1        0.0030
     20  C         17.4560  -22.4040   -3.3980 C.2     1  UNL1        0.0380
     21  C         17.3290  -23.0460   -4.6390 C.2     1  UNL1        0.0840
     22  O         16.5390  -24.1500   -4.8350 O.2     1  UNL1       -0.3550
     23  C         15.1260  -23.9790   -4.8310 C.3     1  UNL1        0.2100
     24  C         23.5340  -21.6670  -10.1890 C.3     1  UNL1        0.3110
     25  C         24.4600  -22.2010  -11.2710 C.2     1  UNL1       -0.0240
     26  C         24.0980  -23.3660  -11.9730 C.2     1  UNL1        0.0100
     27  C         24.9070  -23.8850  -12.9840 C.2     1  UNL1        0.0070
     28  C         26.0930  -23.2400  -13.3360 C.2     1  UNL1       -0.0610
     29  C         26.9740  -23.8170  -14.4040 C.3     1  UNL1        0.0480
     30  C         26.4560  -22.0720  -12.6570 C.2     1  UNL1        0.0140
     31  C         25.6450  -21.5300  -11.6410 C.2     1  UNL1       -0.0530
     32  C         26.0850  -20.2550  -10.9740 C.3     1  UNL1        0.0490
@<TRIPOS>BOND
     1    29    28    1
     2    28    27    2
     3    28    30    1
     4    27    26    1
     5    30    31    2
     6    10     9    1
     7    10     4    1
     8     9     8    1
     9    26    25    2
    10     3     4   ar
    11     3     2   ar
    12     4     5   ar
    13    31    25    1
    14    31    32    1
    15    25    24    1
    16     2     1   ar
    17     5     1   ar
    18     5     6    1
    19     8    24    1
    20     8     7    1
    21     1    11    1
    22     6     7    1
    23    11    12    1
    24    12    15    1
    25    12    13   am
    26    14    13    2
    27    13    16    1
    28    16    17    2
    29    16    21    1
    30    17    18    1
    31    22    23    1
    32    22    21    1
    33    21    20    2
    34    18    19    2
    35    20    19    1
