@<TRIPOS>MOLECULE
9325_out_ligand_01.pdbqt
 27 30 0 0 0
SMALL
GASTEIGER

@<TRIPOS>ATOM
      1  C         22.0240  -22.9220   -9.2340 C.2     1  UNL1        0.0340
      2  C         21.5260  -24.2230   -9.4360 C.2     1  UNL1        0.0200
      3  C         20.3830  -24.6790   -8.7630 C.2     1  UNL1        0.0410
      4  C         19.7850  -23.7660   -7.9050 C.ar    1  UNL1        0.1060
      5  O         18.6720  -23.9570   -7.1420 O.2     1  UNL1       -0.2890
      6  C         18.5040  -22.7570   -6.4920 C.ar    1  UNL1        0.1810
      7  N         19.4130  -21.8450   -6.7870 N.ar    1  UNL1       -0.2210
      8  C         20.2340  -22.4740   -7.6870 C.ar    1  UNL1        0.0940
      9  C         21.3740  -22.0260   -8.3650 C.2     1  UNL1        0.0510
     10  C         23.2340  -22.4350   -9.9500 C.2     1  UNL1        0.2520
     11  O         23.7350  -21.3580   -9.6460 O.2     1  UNL1       -0.2680
     12  N         23.7490  -23.2700  -10.9180 N.am    1  UNL1       -0.3530
     13  H         23.4400  -24.2310  -10.9490 H       1  UNL1        0.1630
     14  C         24.9990  -22.9630  -11.5790 C.3     1  UNL1        0.1620
     15  C         24.8110  -22.8440  -13.0630 C.2     1  UNL1       -0.0230
     16  C         25.4370  -23.7180  -13.9560 C.2     1  UNL1        0.0120
     17  C         25.2460  -23.5580  -15.3260 C.2     1  UNL1        0.0200
     18  C         24.4390  -22.5200  -15.7590 C.2     1  UNL1        0.1160
     19  N         23.8250  -21.6510  -14.9290 N.2     1  UNL1       -0.2730
     20  C         24.0270  -21.8290  -13.6030 C.2     1  UNL1        0.1240
     21  C         17.3660  -22.6570   -5.5830 C.2     1  UNL1        0.0200
     22  C         17.5140  -22.7670   -4.1890 C.2     1  UNL1        0.0160
     23  C         16.4060  -22.6660   -3.3400 C.2     1  UNL1        0.0040
     24  C         15.1390  -22.4540   -3.8760 C.2     1  UNL1        0.0420
     25  C         14.9890  -22.3450   -5.2520 C.2     1  UNL1        0.1170
     26  F         13.7690  -22.1410   -5.7660 F       1  UNL1       -0.2060
     27  C         16.0830  -22.4440   -6.1060 C.2     1  UNL1        0.0580
@<TRIPOS>BOND
     1    18    17    2
     2    18    19    1
     3    17    16    1
     4    19    20    2
     5    16    15    2
     6    20    15    1
     7    15    14    1
     8    14    12    1
     9    13    12    1
    10    12    10   am
    11    10    11    2
    12    10     1    1
    13     2     1    2
    14     2     3    1
    15     1     9    1
    16     3     4    2
    17     9     8    2
    18     4     8   ar
    19     4     5   ar
    20     8     7   ar
    21     5     6   ar
    22     7     6   ar
    23     6    21    1
    24    27    21    2
    25    27    25    1
    26    26    25    1
    27    21    22    1
    28    25    24    2
    29    22    23    2
    30    24    23    1
