@<TRIPOS>MOLECULE
9326_out_ligand_01.pdbqt
 37 41 0 0 0
SMALL
GASTEIGER

@<TRIPOS>ATOM
      1  C         21.2380  -22.2390  -10.2960 C.2     1  UNL1        0.0750
      2  C         21.9640  -22.1200  -11.4820 C.2     1  UNL1        0.0760
      3  C         21.0700  -21.5140  -12.3840 C.3     1  UNL1        0.1590
      4  N         19.8610  -21.3250  -11.8710 N.3     1  UNL1       -0.1640
      5  N         19.9100  -21.9330  -10.6450 N.pl3   1  UNL1       -0.0630
      6  C         23.3410  -22.4920  -11.7690 C.2     1  UNL1        0.2550
      7  O         23.7060  -23.6300  -12.0310 O.2     1  UNL1       -0.2680
      8  N         24.1990  -21.4120  -11.7610 N.am    1  UNL1       -0.3540
      9  H         23.7780  -20.4990  -11.8560 H       1  UNL1        0.1620
     10  C         25.5760  -21.5610  -12.1960 C.3     1  UNL1        0.1530
     11  C         25.8200  -21.1260  -13.6680 C.3     1  UNL1        0.0440
     12  C         24.8030  -20.0200  -14.0560 C.3     1  UNL1        0.0320
     13  C         25.4400  -19.2760  -15.2300 C.3     1  UNL1        0.0020
     14  C         26.9460  -19.4390  -15.0500 C.3     1  UNL1        0.0020
     15  C         27.1190  -20.2850  -13.7900 C.3     1  UNL1        0.0320
     16  N         25.7310  -22.2190  -14.6670 N.3     1  UNL1       -0.3980
     17  C         24.4160  -22.4350  -15.2860 C.3     1  UNL1        0.1440
     18  C         24.5400  -23.3590  -16.5140 C.3     1  UNL1        0.1870
     19  O         25.2980  -24.5590  -16.3030 O.3     1  UNL1       -0.3880
     20  C         25.6740  -24.7390  -14.9410 C.3     1  UNL1        0.1870
     21  C         26.3890  -23.5000  -14.3620 C.3     1  UNL1        0.1440
     22  C         21.6590  -22.6460   -8.9020 C.3     1  UNL1        0.0310
     23  C         21.9400  -24.1440   -8.8070 C.3     1  UNL1        0.0160
     24  C         22.8370  -21.8150   -8.3870 C.3     1  UNL1        0.0160
     25  C         18.6730  -22.2500   -9.9590 C.cat   1  UNL1        0.7500
     26  N         17.5330  -22.3470  -10.6720 N.2     1  UNL1       -0.0730
     27  C         16.4020  -22.5390   -9.9740 C.2     1  UNL1        0.1390
     28  C         16.3550  -22.6360   -8.6030 C.2     1  UNL1        0.0530
     29  C         17.5590  -22.5240   -7.9370 C.2     1  UNL1        0.0900
     30  N         18.7150  -22.3400   -8.6110 N.2     1  UNL1       -0.0600
     31  C         17.6910  -22.6050   -6.4710 C.2     1  UNL1        0.0320
     32  C         18.2930  -21.5520   -5.7480 C.2     1  UNL1        0.0170
     33  C         18.4240  -21.6010   -4.3550 C.2     1  UNL1        0.0010
     34  C         17.9550  -22.7060   -3.6470 C.2     1  UNL1        0.0030
     35  C         17.3560  -23.7570   -4.3340 C.2     1  UNL1        0.0430
     36  C         17.2330  -23.7010   -5.7250 C.2     1  UNL1        0.1290
     37  F         16.6180  -24.7290   -6.3330 F       1  UNL1       -0.2050
@<TRIPOS>BOND
     1    18    19    1
     2    18    17    1
     3    19    20    1
     4    17    16    1
     5    13    14    1
     6    13    12    1
     7    14    15    1
     8    20    21    1
     9    16    21    1
    10    16    11    1
    11    12    11    1
    12    15    11    1
    13    11    10    1
    14     3     4    1
    15     3     2    1
    16    10     8    1
    17     7     6    2
    18     4     5    1
    19     9     8    1
    20     6     8   am
    21     6     2    1
    22     2     1    2
    23    26    27    1
    24    26    25    2
    25     5     1    1
    26     5    25    1
    27     1    22    1
    28    27    28    2
    29    25    30    1
    30    22    23    1
    31    22    24    1
    32    30    29    2
    33    28    29    1
    34    29    31    1
    35    31    32    2
    36    31    36    1
    37    37    36    1
    38    32    33    1
    39    36    35    2
    40    33    34    2
    41    35    34    1
