@<TRIPOS>MOLECULE
9340_out_ligand_01.pdbqt
 33 37 0 0 0
SMALL
GASTEIGER

@<TRIPOS>ATOM
      1  N         21.2590  -21.7200  -10.9990 N.pl3   1  UNL1       -0.0630
      2  N         20.3460  -21.0310  -11.7660 N.2     1  UNL1       -0.1640
      3  C         19.1770  -21.2160  -11.1710 C.2     1  UNL1        0.1590
      4  C         19.2690  -22.0210  -10.0300 C.2     1  UNL1        0.0760
      5  C         20.6130  -22.3640   -9.9300 C.2     1  UNL1        0.0760
      6  C         22.6530  -21.6500  -11.3890 C.cat   1  UNL1        0.7500
      7  N         23.5630  -21.4360  -10.4060 N.2     1  UNL1       -0.0730
      8  C         24.8590  -21.3630  -10.7520 C.2     1  UNL1        0.1390
      9  C         25.3000  -21.5000  -12.0410 C.2     1  UNL1        0.0530
     10  C         24.3150  -21.7240  -12.9750 C.2     1  UNL1        0.0880
     11  N         23.0040  -21.8140  -12.6720 N.2     1  UNL1       -0.0600
     12  C         24.6400  -21.8930  -14.3840 C.2     1  UNL1        0.0070
     13  C         24.5880  -20.8690  -15.3820 C.2     1  UNL1        0.0290
     14  C         24.9790  -21.3220  -16.6240 C.2     1  UNL1       -0.0200
     15  C         25.0540  -20.5580  -17.8960 C.3     1  UNL1        0.0560
     16  S         25.4290  -22.9650  -16.5830 S.3     1  UNL1       -0.0990
     17  C         25.1220  -23.0850  -14.9030 C.2     1  UNL1       -0.0080
     18  C         25.3950  -24.3830  -14.2150 C.3     1  UNL1        0.0570
     19  C         21.0900  -23.3230   -8.7740 C.3     1  UNL1        0.0390
     20  C         22.2680  -24.2290   -8.9490 C.3     1  UNL1        0.0110
     21  C         20.8830  -24.8020   -8.7870 C.3     1  UNL1        0.0110
     22  C         18.1770  -22.4240   -9.1720 C.2     1  UNL1        0.2550
     23  O         17.1150  -22.8570   -9.6090 O.2     1  UNL1       -0.2680
     24  N         18.4660  -22.3030   -7.8290 N.am    1  UNL1       -0.3520
     25  H         19.4330  -22.1350   -7.5800 H       1  UNL1        0.1630
     26  C         17.5660  -22.8500   -6.8160 C.3     1  UNL1        0.0890
     27  C         17.1640  -24.2940   -7.1560 C.3     1  UNL1        0.0510
     28  C         15.6570  -24.5010   -7.0630 C.3     1  UNL1        0.1710
     29  O         15.1750  -23.9880   -5.8290 O.3     1  UNL1       -0.3810
     30  C         15.3170  -22.5690   -5.6630 C.3     1  UNL1        0.0550
     31  C         13.9350  -21.9280   -5.8650 C.3     1  UNL1        0.0450
     32  C         15.7570  -22.3460   -4.2100 C.3     1  UNL1        0.0450
     33  C         16.3350  -21.9520   -6.6410 C.3     1  UNL1        0.0620
@<TRIPOS>BOND
     1    15    14    1
     2    14    16    1
     3    14    13    2
     4    16    17    1
     5    13    12    1
     6    17    12    2
     7    17    18    1
     8    12    10    1
     9    10    11    2
    10    10     9    1
    11    11     6    1
    12     9     8    2
    13     2     3    2
    14     2     1    1
    15     6     1    1
    16     6     7    2
    17     3     4    1
    18     1     5    1
    19     8     7    1
    20     4     5    2
    21     4    22    1
    22     5    19    1
    23    23    22    2
    24    22    24   am
    25    20    21    1
    26    20    19    1
    27    21    19    1
    28    24    25    1
    29    24    26    1
    30    27    28    1
    31    27    26    1
    32    28    29    1
    33    26    33    1
    34    33    30    1
    35    31    30    1
    36    29    30    1
    37    30    32    1
