@<TRIPOS>MOLECULE
9341_out_ligand_01.pdbqt
 36 41 0 0 0
SMALL
GASTEIGER

@<TRIPOS>ATOM
      1  C         21.3780  -22.7180   -9.7040 C.2     1  UNL1       -0.0230
      2  C         22.0700  -21.8130   -8.8960 C.2     1  UNL1        0.0130
      3  C         23.3630  -21.4070   -9.2230 C.2     1  UNL1        0.0380
      4  C         24.0000  -21.8940  -10.3640 C.2     1  UNL1        0.0760
      5  C         23.3150  -22.7360  -11.2500 C.2     1  UNL1        0.0040
      6  C         22.0120  -23.1440  -10.8920 C.2     1  UNL1        0.0220
      7  C         23.8860  -23.2720  -12.5500 C.3     1  UNL1        0.3140
      8  N         24.8170  -22.4140  -13.2980 N.3     1  UNL1        0.0990
      9  C         26.1320  -22.3020  -12.6500 C.3     1  UNL1        0.2990
     10  C         26.1600  -22.3830  -11.1190 C.3     1  UNL1        0.2060
     11  O         25.2790  -21.4360  -10.5230 O.2     1  UNL1       -0.3490
     12  C         19.9800  -23.2450   -9.3560 C.3     1  UNL1        0.0880
     13  C         18.9250  -22.1450   -9.5840 C.3     1  UNL1        0.0620
     14  C         17.6640  -22.4250   -8.7700 C.3     1  UNL1        0.1260
     15  N         17.9830  -22.3870   -7.3370 N.pl3   1  UNL1       -0.3780
     16  C         19.2990  -22.8960   -6.9260 C.3     1  UNL1        0.1260
     17  C         19.8420  -23.8790   -7.9560 C.3     1  UNL1        0.0620
     18  O         19.6960  -24.3170  -10.2820 O.3     1  UNL1       -0.3850
     19  H         19.6960  -25.1420   -9.7640 H       1  UNL1        0.2110
     20  C         16.9480  -22.3860   -6.3920 C.2     1  UNL1        0.0690
     21  C         15.6130  -22.5790   -6.8060 C.2     1  UNL1        0.0320
     22  C         14.5410  -22.5650   -5.9030 C.2     1  UNL1        0.0020
     23  C         14.7720  -22.3740   -4.5450 C.2     1  UNL1        0.0030
     24  C         16.0780  -22.2120   -4.0960 C.2     1  UNL1        0.0440
     25  C         17.1410  -22.2270   -5.0040 C.2     1  UNL1        0.1420
     26  F         18.3680  -22.0460   -4.4900 F       1  UNL1       -0.2040
     27  C         24.2100  -21.1190  -13.6530 C.3     1  UNL1        0.3140
     28  C         25.0300  -20.3230  -14.6390 C.2     1  UNL1        0.0060
     29  C         25.7540  -19.1860  -14.2380 C.2     1  UNL1        0.0120
     30  C         26.5080  -18.4420  -15.1630 C.2     1  UNL1        0.0030
     31  C         26.5450  -18.8130  -16.5090 C.2     1  UNL1        0.0400
     32  C         25.8330  -19.9300  -16.8830 C.2     1  UNL1        0.1050
     33  C         25.1060  -20.6720  -15.9770 C.2     1  UNL1        0.1130
     34  O         25.7310  -20.4080  -18.1530 O.2     1  UNL1       -0.3230
     35  O         24.4780  -21.7250  -16.5690 O.2     1  UNL1       -0.3220
     36  C         24.8240  -21.5130  -17.9540 C.3     1  UNL1        0.3520
@<TRIPOS>BOND
     1    34    36    1
     2    34    32    1
     3    36    35    1
     4    32    31    2
     5    32    33    1
     6    35    33    1
     7    31    30    1
     8    33    28    2
     9    30    29    2
    10    28    29    1
    11    28    27    1
    12    27     8    1
    13     8     9    1
    14     8     7    1
    15     9    10    1
    16     7     5    1
    17     5     6    1
    18     5     4    2
    19    10    11    1
    20     6     1    2
    21    11     4    1
    22     4     3    1
    23    18    19    1
    24    18    12    1
    25     1    12    1
    26     1     2    1
    27    13    12    1
    28    13    14    1
    29    12    17    1
    30     3     2    2
    31    14    15    1
    32    17    16    1
    33    15    16    1
    34    15    20    1
    35    21    20    2
    36    21    22    1
    37    20    25    1
    38    22    23    2
    39    25    26    1
    40    25    24    2
    41    23    24    1
