@<TRIPOS>MOLECULE
934_out_ligand_01.pdbqt
 26 29 0 0 0
SMALL
GASTEIGER

@<TRIPOS>ATOM
      1  O         23.5990  -22.2430  -11.9700 O.2     1  UNL1       -0.2670
      2  C         22.6600  -22.5820  -11.2800 C.2     1  UNL1        0.2570
      3  N         22.6350  -23.5410  -10.2790 N.am    1  UNL1       -0.3220
      4  C         21.3540  -23.6110   -9.7410 C.2     1  UNL1        0.0470
      5  C         20.8600  -24.4110   -8.7380 C.2     1  UNL1        0.0320
      6  C         19.5050  -24.2560   -8.4030 C.2     1  UNL1        0.0280
      7  C         18.6830  -23.3080   -9.0750 C.2     1  UNL1        0.0860
      8  C         19.2010  -22.4910  -10.1200 C.2     1  UNL1        0.0000
      9  C         18.6010  -21.4950  -10.9430 C.2     1  UNL1        0.0140
     10  C         19.3480  -20.8050  -11.9300 C.2     1  UNL1        0.0020
     11  C         20.7080  -21.0790  -12.1350 C.2     1  UNL1        0.0180
     12  C         21.2840  -22.0440  -11.3390 C.2     1  UNL1        0.0450
     13  C         20.5510  -22.7060  -10.3860 C.2     1  UNL1        0.0180
     14  H         23.4370  -24.0910  -10.0080 H       1  UNL1        0.1690
     15  S         16.9800  -23.1650   -8.5820 S.O2    1  UNL1        0.2460
     16  O         16.1620  -23.6900   -9.6560 O.2     1  UNL1       -0.2060
     17  O         16.7840  -21.8340   -8.0520 O.2     1  UNL1       -0.2060
     18  N         16.9020  -24.3220   -7.3260 N.pl3   1  UNL1       -0.1810
     19  H         16.2040  -25.0150   -7.6030 H       1  UNL1        0.1460
     20  C         16.5690  -23.7600   -6.0480 C.2     1  UNL1        0.0240
     21  C         15.2660  -23.8620   -5.5550 C.2     1  UNL1        0.0240
     22  C         14.9370  -23.2730   -4.3330 C.2     1  UNL1        0.0030
     23  C         15.9060  -22.5730   -3.6130 C.2     1  UNL1        0.0190
     24  C         17.1990  -22.4590   -4.1230 C.2     1  UNL1        0.0120
     25 BR         18.5070  -21.4990   -3.1530 Br      1  UNL1       -0.0510
     26  C         17.5350  -23.0440   -5.3440 C.2     1  UNL1        0.0430
@<TRIPOS>BOND
     1    11    10    1
     2    11    12    2
     3     1     2    2
     4    10     9    2
     5    12     2    1
     6    12    13    1
     7     2     3   am
     8     9     8    1
     9    13     8    1
    10    13     4    2
    11     3    14    1
    12     3     4    1
    13     8     7    2
    14     4     5    1
    15    16    15    2
    16     7    15    1
    17     7     6    1
    18     5     6    2
    19    15    17    2
    20    15    18    1
    21    19    18    1
    22    18    20    1
    23    20    21    2
    24    20    26    1
    25    21    22    1
    26    26    24    2
    27    22    23    2
    28    24    23    1
    29    24    25    1
