@<TRIPOS>MOLECULE
9352_out_ligand_01.pdbqt
 31 34 0 0 0
SMALL
GASTEIGER

@<TRIPOS>ATOM
      1  C         21.4040  -24.1070   -9.2070 C.3     1  UNL1        0.0510
      2  C         21.0150  -23.0700  -10.2050 C.ar    1  UNL1       -0.0220
      3  C         21.8560  -22.4000  -11.0880 C.ar    1  UNL1        0.0520
      4  N         21.0730  -21.5240  -11.8070 N.ar    1  UNL1       -0.3540
      5  C         19.7580  -21.6050  -11.4190 C.ar    1  UNL1        0.0430
      6  C         18.6410  -20.8970  -11.8730 C.2     1  UNL1        0.0310
      7  C         17.4080  -21.1850  -11.2820 C.2     1  UNL1        0.0110
      8  C         17.2870  -22.1430  -10.2690 C.2     1  UNL1       -0.0400
      9  C         18.4300  -22.8410   -9.8370 C.2     1  UNL1        0.0230
     10  C         19.6880  -22.5670  -10.4170 C.ar    1  UNL1       -0.0010
     11  H         21.4250  -20.8760  -12.4980 H       1  UNL1        0.1660
     12  C         15.9340  -22.4490   -9.6750 C.3     1  UNL1        0.1610
     13  N         16.0610  -22.8390   -8.2890 N.am    1  UNL1       -0.3570
     14  C         15.8140  -24.1290   -7.8790 C.2     1  UNL1        0.2180
     15  O         15.3500  -25.0070   -8.6030 O.2     1  UNL1       -0.2740
     16  H         16.6890  -22.2800   -7.7220 H       1  UNL1        0.1620
     17  C         16.1750  -24.3960   -6.4310 C.3     1  UNL1        0.1090
     18  C         17.6870  -24.2920   -6.2370 C.3     1  UNL1        0.0700
     19  C         18.0730  -23.0140   -5.5340 C.2     1  UNL1        0.0520
     20  C         17.7400  -22.8050   -4.1940 C.2     1  UNL1        0.1430
     21  N         18.0750  -21.6780   -3.5210 N.2     1  UNL1       -0.2700
     22  C         18.7770  -20.7680   -4.2400 C.2     1  UNL1        0.1350
     23  C         19.1090  -20.9650   -5.5730 C.2     1  UNL1        0.1360
     24  N         18.7570  -22.0830   -6.2520 N.2     1  UNL1       -0.2630
     25  C         23.3010  -22.4840  -11.2950 C.2     1  UNL1        0.0300
     26  C         23.8140  -23.2030  -12.3840 C.2     1  UNL1        0.0170
     27  C         25.1930  -23.2880  -12.5950 C.2     1  UNL1        0.0010
     28  C         26.0760  -22.6570  -11.7190 C.2     1  UNL1        0.0030
     29  C         25.5790  -21.9430  -10.6310 C.2     1  UNL1        0.0430
     30  C         24.2030  -21.8600  -10.4240 C.2     1  UNL1        0.1280
     31  F         23.7610  -21.1610   -9.3670 F       1  UNL1       -0.2050
@<TRIPOS>BOND
     1    27    26    1
     2    27    28    2
     3    11     4    1
     4    26    25    2
     5     6     5    2
     6     6     7    1
     7     4     5   ar
     8     4     3   ar
     9    28    29    1
    10     5    10   ar
    11    25     3    1
    12    25    30    1
    13     7     8    2
    14     3     2   ar
    15    29    30    2
    16    30    31    1
    17    10     2   ar
    18    10     9    2
    19     8     9    1
    20     8    12    1
    21     2     1    1
    22    12    13    1
    23    15    14    2
    24    13    14   am
    25    13    16    1
    26    14    17    1
    27    17    18    1
    28    24    23    1
    29    24    19    2
    30    18    19    1
    31    23    22    2
    32    19    20    1
    33    22    21    1
    34    20    21    2
