@<TRIPOS>MOLECULE
9384_out_ligand_01.pdbqt
 38 42 0 0 0
SMALL
GASTEIGER

@<TRIPOS>ATOM
      1  C         22.0170  -22.0730   -9.6820 C.3     1  UNL1        0.1510
      2  C         21.4980  -21.3100  -10.9090 C.3     1  UNL1        0.0750
      3  C         20.0570  -21.6350  -10.8150 C.2     1  UNL1       -0.0210
      4  C         19.0530  -21.3970  -11.7340 C.2     1  UNL1        0.0100
      5  C         17.7450  -21.7190  -11.3720 C.2     1  UNL1        0.0020
      6  C         17.4660  -22.2450  -10.0970 C.2     1  UNL1        0.0150
      7  C         18.4830  -22.4770   -9.1500 C.2     1  UNL1        0.0090
      8  C         19.7790  -22.1760   -9.5630 C.2     1  UNL1        0.0860
      9  O         20.9040  -22.3410   -8.7920 O.2     1  UNL1       -0.3430
     10  C         22.7750  -23.3710  -10.0290 C.3     1  UNL1        0.1550
     11  N         23.5540  -23.3150  -11.2590 N.am    1  UNL1       -0.3580
     12  C         24.9370  -23.2710  -11.2550 C.2     1  UNL1        0.2310
     13  O         25.5590  -23.2010  -10.1970 O.2     1  UNL1       -0.2720
     14  H         23.0670  -23.4580  -12.1310 H       1  UNL1        0.1620
     15  C         25.6320  -23.3120  -12.6540 C.3     1  UNL1        0.0680
     16  C         26.9030  -24.1980  -12.5750 C.3     1  UNL1        0.0240
     17  C         27.1210  -24.7750  -13.9750 C.3     1  UNL1        0.0020
     18  C         25.8130  -24.5740  -14.7310 C.3     1  UNL1        0.0020
     19  C         24.8000  -24.1170  -13.6870 C.3     1  UNL1        0.0240
     20  C         25.8660  -21.8870  -13.2100 C.2     1  UNL1       -0.0400
     21  C         25.1980  -21.4840  -14.3840 C.2     1  UNL1        0.0110
     22  C         25.3960  -20.2170  -14.9490 C.2     1  UNL1        0.0370
     23  C         26.2720  -19.3160  -14.3530 C.2     1  UNL1        0.0680
     24  C         26.9370  -19.6940  -13.1880 C.2     1  UNL1        0.0370
     25  C         26.7380  -20.9590  -12.6210 C.2     1  UNL1        0.0110
     26  O         26.5660  -18.0580  -14.8020 O.2     1  UNL1       -0.3560
     27  C         26.4890  -17.8480  -16.2050 C.3     1  UNL1        0.2100
     28  C         18.1630  -22.9640   -7.7990 C.2     1  UNL1       -0.0050
     29  C         17.8220  -24.2920   -7.5320 C.2     1  UNL1        0.1280
     30  N         17.5090  -24.7790   -6.3020 N.2     1  UNL1       -0.2710
     31  C         17.5470  -23.9050   -5.2720 C.2     1  UNL1        0.1330
     32  C         17.9010  -22.5730   -5.4080 C.2     1  UNL1        0.0500
     33  C         18.1950  -22.1010   -6.6910 C.2     1  UNL1        0.0320
     34  C         17.9590  -21.6420   -4.2610 C.2     1  UNL1        0.2500
     35  N         17.0120  -21.7700   -3.2840 N.am    1  UNL1       -0.3660
     36  H         17.1580  -21.2090   -2.4540 H       1  UNL1        0.1590
     37  H         16.4430  -22.5990   -3.1800 H       1  UNL1        0.1590
     38  O         18.8490  -20.8070   -4.1640 O.2     1  UNL1       -0.2680
@<TRIPOS>BOND
     1    27    26    1
     2    22    21    1
     3    22    23    2
     4    26    23    1
     5    18    17    1
     6    18    19    1
     7    21    20    2
     8    23    24    1
     9    17    16    1
    10    19    15    1
    11    20    15    1
    12    20    25    1
    13    24    25    2
    14    15    16    1
    15    15    12    1
    16    14    11    1
    17     4     5    1
    18     4     3    2
    19     5     6    2
    20    11    12   am
    21    11    10    1
    22    12    13    2
    23     2     3    1
    24     2     1    1
    25     3     8    1
    26     6     7    1
    27    10     1    1
    28     1     9    1
    29     8     7    2
    30     8     9    1
    31     7    28    1
    32    28    29    2
    33    28    33    1
    34    29    30    1
    35    33    32    2
    36    30    31    2
    37    32    31    1
    38    32    34    1
    39    34    38    2
    40    34    35   am
    41    35    37    1
    42    35    36    1
