@<TRIPOS>MOLECULE
9418_out_ligand_01.pdbqt
 34 39 0 0 0
SMALL
GASTEIGER

@<TRIPOS>ATOM
      1  C         18.6930  -22.2660  -10.3690 C.2     1  UNL1        0.0760
      2  C         18.7510  -21.6270  -11.6250 C.2     1  UNL1        0.1590
      3  N         19.9900  -21.4540  -12.0790 N.2     1  UNL1       -0.1640
      4  N         20.7910  -21.9130  -11.0670 N.pl3   1  UNL1       -0.0630
      5  C         20.0250  -22.5100  -10.0730 C.2     1  UNL1        0.0760
      6  C         22.2240  -21.7420  -11.1110 C.cat   1  UNL1        0.7500
      7  N         22.8880  -21.6390   -9.9460 N.2     1  UNL1       -0.0730
      8  C         24.2170  -21.4810  -10.0300 C.2     1  UNL1        0.1460
      9  C         24.9250  -21.4230  -11.2170 C.2     1  UNL1       -0.0100
     10  C         24.1820  -21.5750  -12.3730 C.2     1  UNL1        0.0940
     11  C         26.3940  -21.1520  -11.2040 C.3     1  UNL1        0.0430
     12  N         22.8330  -21.7260  -12.3150 N.2     1  UNL1       -0.0600
     13  C         24.7390  -21.6420  -13.7520 C.2     1  UNL1        0.0000
     14  C         24.0460  -22.4640  -14.6850 C.2     1  UNL1        0.0140
     15  C         25.8920  -20.9770  -14.2290 C.2     1  UNL1       -0.0460
     16  C         24.4410  -22.6160  -16.0140 C.2     1  UNL1        0.0010
     17  C         25.5610  -21.9480  -16.4680 C.2     1  UNL1        0.0010
     18  C         26.2740  -21.1430  -15.5870 C.2     1  UNL1        0.0080
     19  C         26.8200  -20.0640  -13.4540 C.3     1  UNL1        0.0400
     20  C         26.6520  -19.8570  -11.9560 C.3     1  UNL1        0.0090
     21  C         20.5530  -23.2940   -8.8300 C.3     1  UNL1        0.0390
     22  C         21.5730  -24.3870   -9.0380 C.3     1  UNL1        0.0110
     23  C         20.1760  -24.7440   -8.6450 C.3     1  UNL1        0.0110
     24  C         17.5270  -22.5940   -9.5610 C.2     1  UNL1        0.2550
     25  N         17.7010  -22.4210   -8.2010 N.am    1  UNL1       -0.3520
     26  H         18.5130  -21.9120   -7.8820 H       1  UNL1        0.1630
     27  O         16.4720  -22.9920  -10.0440 O.2     1  UNL1       -0.2680
     28  C         16.5920  -22.5680   -7.2620 C.3     1  UNL1        0.0880
     29  C         16.7880  -21.6750   -6.0270 C.3     1  UNL1        0.0550
     30  C         17.4850  -22.4330   -4.8990 C.3     1  UNL1        0.2740
     31  N         16.7820  -23.6540   -4.4790 N.3     1  UNL1        0.0840
     32  C         16.1210  -23.4880   -3.1870 C.3     1  UNL1        0.3090
     33  C         15.8430  -24.1810   -5.4800 C.3     1  UNL1        0.2740
     34  C         16.4090  -24.0440   -6.8890 C.3     1  UNL1        0.0550
@<TRIPOS>BOND
     1    17    16    2
     2    17    18    1
     3    16    14    1
     4    18    15    2
     5    14    13    2
     6    15    13    1
     7    15    19    1
     8    13    10    1
     9    19    20    1
    10    10    12    2
    11    10     9    1
    12    12     6    1
    13     3     2    2
    14     3     4    1
    15    20    11    1
    16     2     1    1
    17     9    11    1
    18     9     8    2
    19     6     4    1
    20     6     7    2
    21     4     5    1
    22     1     5    2
    23     1    24    1
    24     5    21    1
    25    27    24    2
    26     8     7    1
    27    24    25   am
    28    22    21    1
    29    22    23    1
    30    21    23    1
    31    25    26    1
    32    25    28    1
    33    28    34    1
    34    28    29    1
    35    34    33    1
    36    29    30    1
    37    33    31    1
    38    30    31    1
    39    31    32    1
