@<TRIPOS>MOLECULE
9430_out_ligand_01.pdbqt
 34 38 0 0 0
SMALL
GASTEIGER

@<TRIPOS>ATOM
      1  C         20.2340  -23.4230   -8.0170 C.2     1  UNL1        0.2240
      2  O         19.9750  -24.5180   -8.5160 O.2     1  UNL1       -0.2730
      3  N         19.3340  -22.7930   -7.1390 N.am    1  UNL1       -0.3410
      4  C         19.7240  -21.6930   -6.2590 C.3     1  UNL1        0.1270
      5  C         18.5580  -20.8580   -5.7460 C.3     1  UNL1        0.0220
      6  C         17.3580  -21.6540   -5.2310 C.3     1  UNL1        0.0350
      7  C         17.4490  -23.1750   -5.4620 C.3     1  UNL1        0.0580
      8  C         18.2590  -23.8570   -4.3320 C.3     1  UNL1        0.0420
      9  C         17.2470  -24.1000   -3.2120 C.3     1  UNL1        0.1050
     10  C         15.9440  -24.2140   -3.9530 C.2     1  UNL1        0.2180
     11  O         14.8810  -24.5870   -3.4930 O.2     1  UNL1       -0.2740
     12  N         16.1420  -23.7790   -5.2430 N.am    1  UNL1       -0.3490
     13  C         18.0610  -23.4990   -6.8720 C.3     1  UNL1        0.1480
     14  H         15.3400  -23.6530   -5.8500 H       1  UNL1        0.1630
     15  C         21.5390  -22.6780   -8.3040 C.3     1  UNL1        0.1440
     16  C         21.8290  -22.5010   -9.7640 C.ar    1  UNL1       -0.0150
     17  C         20.9390  -22.1070  -10.7540 C.ar    1  UNL1        0.0130
     18  N         21.6240  -22.0920  -11.9440 N.ar    1  UNL1       -0.3590
     19  C         19.5070  -21.7240  -10.6780 C.3     1  UNL1        0.0680
     20  C         22.9290  -22.4780  -11.7610 C.ar    1  UNL1        0.0430
     21  H         21.2310  -21.8300  -12.8380 H       1  UNL1        0.1660
     22  C         23.9680  -22.6140  -12.6880 C.2     1  UNL1        0.0310
     23  C         23.0950  -22.7290  -10.4010 C.ar    1  UNL1       -0.0000
     24  C         25.2210  -23.0130  -12.2070 C.2     1  UNL1        0.0090
     25  C         25.4360  -23.2530  -10.8460 C.2     1  UNL1       -0.0610
     26  C         26.7850  -23.6930  -10.3570 C.3     1  UNL1        0.0480
     27  C         24.3680  -23.1250   -9.9400 C.2     1  UNL1        0.0210
     28  C         17.0630  -23.2940   -8.0220 C.2     1  UNL1       -0.0300
     29  C         16.9020  -22.0640   -8.6820 C.2     1  UNL1        0.0090
     30  C         15.9750  -21.9170   -9.7200 C.2     1  UNL1        0.0040
     31  C         15.1970  -23.0020  -10.1180 C.2     1  UNL1        0.0420
     32  C         15.3570  -24.2240   -9.4800 C.2     1  UNL1        0.1170
     33  F         14.6110  -25.2690   -9.8620 F       1  UNL1       -0.2060
     34  C         16.2760  -24.3790   -8.4460 C.2     1  UNL1        0.0510
@<TRIPOS>BOND
     1    21    18    1
     2    22    24    1
     3    22    20    2
     4    24    25    2
     5    18    20   ar
     6    18    17   ar
     7    20    23   ar
     8    25    26    1
     9    25    27    1
    10    17    19    1
    11    17    16   ar
    12    23    27    2
    13    23    16   ar
    14    31    30    2
    15    31    32    1
    16    33    32    1
    17    16    15    1
    18    30    29    1
    19    32    34    2
    20    29    28    2
    21     2     1    2
    22    34    28    1
    23    15     1    1
    24    28    13    1
    25     1     3   am
    26     3    13    1
    27     3     4    1
    28    13     7    1
    29     4     5    1
    30    14    12    1
    31     5     6    1
    32     7    12    1
    33     7     6    1
    34     7     8    1
    35    12    10   am
    36     8     9    1
    37    10    11    2
    38    10     9    1
