@<TRIPOS>MOLECULE
9440_out_ligand_01.pdbqt
 34 38 0 0 0
SMALL
GASTEIGER

@<TRIPOS>ATOM
      1  N         20.1680  -22.9190   -9.4020 N.ar    1  UNL1       -0.3310
      2  C         19.0520  -22.3520  -10.0090 C.ar    1  UNL1        0.0480
      3  C         17.7040  -22.3090   -9.6150 C.2     1  UNL1        0.0300
      4  C         16.7920  -21.6630  -10.4570 C.2     1  UNL1        0.0020
      5  C         17.2040  -21.0810  -11.6520 C.2     1  UNL1        0.0010
      6  C         18.5450  -21.1300  -12.0400 C.2     1  UNL1        0.0160
      7  C         19.4830  -21.7750  -11.2110 C.ar    1  UNL1        0.0220
      8  C         20.8680  -22.0160  -11.2890 C.ar    1  UNL1        0.1030
      9  N         21.7300  -21.6320  -12.3160 N.2     1  UNL1       -0.2400
     10  C         22.9580  -22.0060  -12.1250 C.2     1  UNL1        0.2130
     11  N         23.4570  -22.7310  -11.0520 N.am    1  UNL1       -0.3060
     12  C         22.6370  -23.1160   -9.9970 C.2     1  UNL1        0.2780
     13  O         23.0340  -23.7300   -9.0120 O.2     1  UNL1       -0.2650
     14  C         21.2760  -22.7140  -10.1880 C.ar    1  UNL1        0.1340
     15  C         20.1460  -23.6580   -8.1440 C.3     1  UNL1        0.2320
     16  C         19.3290  -23.0160   -7.0310 C.2     1  UNL1        0.2400
     17  O         19.6640  -21.9090   -6.6080 O.2     1  UNL1       -0.2710
     18  N         18.1990  -23.7090   -6.6290 N.am    1  UNL1       -0.3260
     19  H         17.9670  -24.5600   -7.1300 H       1  UNL1        0.1690
     20  C         17.2980  -23.3660   -5.5970 C.2     1  UNL1        0.0370
     21  C         17.5010  -23.6590   -4.2450 C.2     1  UNL1        0.0290
     22  C         16.5500  -23.2940   -3.2840 C.2     1  UNL1        0.0050
     23  C         15.3890  -22.6300   -3.6670 C.2     1  UNL1        0.0420
     24  C         15.1870  -22.3420   -5.0110 C.2     1  UNL1        0.1180
     25  F         14.0700  -21.7050   -5.3880 F       1  UNL1       -0.2060
     26  C         16.1250  -22.7020   -5.9740 C.2     1  UNL1        0.0710
     27  C         24.8800  -23.0490  -10.9860 C.3     1  UNL1        0.1380
     28  C         25.6080  -22.8270  -12.3200 C.3     1  UNL1        0.0590
     29  C         26.1600  -21.4290  -12.4600 C.2     1  UNL1       -0.0570
     30  C         26.4790  -20.9130  -13.7230 C.2     1  UNL1        0.0070
     31  C         26.9590  -19.6100  -13.8530 C.2     1  UNL1        0.0010
     32  C         27.1210  -18.8090  -12.7250 C.2     1  UNL1        0.0000
     33  C         26.8070  -19.3120  -11.4640 C.2     1  UNL1        0.0010
     34  C         26.3300  -20.6160  -11.3290 C.2     1  UNL1        0.0070
@<TRIPOS>BOND
     1    31    30    1
     2    31    32    2
     3    30    29    2
     4    32    33    1
     5    29    28    1
     6    29    34    1
     7    28    27    1
     8     9    10    2
     9     9     8    1
    10    10    11    1
    11     6     5    2
    12     6     7    1
    13     5     4    1
    14    33    34    2
    15     8     7   ar
    16     8    14   ar
    17     7     2   ar
    18    11    27    1
    19    11    12   am
    20     4     3    2
    21    14    12    1
    22    14     1   ar
    23     2     3    1
    24     2     1   ar
    25    12    13    2
    26     1    15    1
    27    15    16    1
    28    19    18    1
    29    16    18   am
    30    16    17    2
    31    18    20    1
    32    26    20    2
    33    26    24    1
    34    20    21    1
    35    25    24    1
    36    24    23    2
    37    21    22    2
    38    23    22    1
