@<TRIPOS>MOLECULE
9444_out_ligand_01.pdbqt
 29 32 0 0 0
SMALL
GASTEIGER

@<TRIPOS>ATOM
      1  C         21.1530  -22.1340  -11.1390 C.2     1  UNL1        0.0340
      2  C         20.3080  -21.2090  -11.7510 C.2     1  UNL1        0.0300
      3  C         18.9470  -21.1690  -11.4270 C.2     1  UNL1        0.0090
      4  C         18.4110  -22.0490  -10.4800 C.2     1  UNL1       -0.0580
      5  C         19.2580  -22.9780   -9.8680 C.2     1  UNL1        0.0090
      6  C         20.6170  -23.0200  -10.1980 C.2     1  UNL1        0.0300
      7  C         16.9490  -21.9740  -10.1030 C.3     1  UNL1        0.0460
      8  C         16.4220  -23.2640   -9.4660 C.3     1  UNL1        0.0830
      9  C         16.4280  -23.2140   -7.9730 C.ar    1  UNL1        0.1050
     10  N         17.3250  -23.7540   -7.1750 N.ar    1  UNL1       -0.2330
     11  C         16.9090  -23.4580   -5.9000 C.ar    1  UNL1        0.0850
     12  C         17.4860  -23.7940   -4.6660 C.2     1  UNL1        0.0340
     13  C         15.7340  -22.7170   -5.9190 C.ar    1  UNL1        0.0620
     14  C         16.8510  -23.3730   -3.4910 C.2     1  UNL1        0.0020
     15  C         15.6660  -22.6330   -3.5420 C.2     1  UNL1        0.0020
     16  C         15.0780  -22.2860   -4.7640 C.2     1  UNL1        0.0320
     17  N         15.4550  -22.5640   -7.2520 N.ar    1  UNL1       -0.3430
     18  H         14.6460  -22.0990   -7.6390 H       1  UNL1        0.1670
     19  N         22.5310  -22.2420  -11.4040 N.am    1  UNL1       -0.3260
     20  C         23.5900  -21.7600  -10.6530 C.2     1  UNL1        0.2420
     21  O         23.5020  -21.1730   -9.5760 O.2     1  UNL1       -0.2710
     22  H         22.7870  -22.6690  -12.2990 H       1  UNL1        0.1690
     23  C         24.9570  -22.0950  -11.2190 C.3     1  UNL1        0.2530
     24  N         25.5930  -20.9610  -11.8630 N.pl3   1  UNL1       -0.2720
     25  N         26.2860  -20.0730  -11.1140 N.2     1  UNL1       -0.1840
     26  C         26.7100  -19.1750  -12.0080 C.2     1  UNL1        0.1470
     27  C         26.3020  -19.4830  -13.3260 C.2     1  UNL1       -0.0260
     28  C         26.5940  -18.7250  -14.5630 C.3     1  UNL1        0.0510
     29  C         25.5810  -20.6510  -13.1910 C.2     1  UNL1        0.1210
@<TRIPOS>BOND
     1    28    27    1
     2    27    29    2
     3    27    26    1
     4    29    24    1
     5    22    19    1
     6    26    25    2
     7    24    23    1
     8    24    25    1
     9     2     3    1
    10     2     1    2
    11     3     4    2
    12    19     1    1
    13    19    20   am
    14    23    20    1
    15     1     6    1
    16    20    21    2
    17     4     7    1
    18     4     5    1
    19     6     5    2
    20     7     8    1
    21     8     9    1
    22     9    17   ar
    23     9    10   ar
    24    18    17    1
    25    17    13   ar
    26    10    11   ar
    27    13    11   ar
    28    13    16    1
    29    11    12    1
    30    16    15    2
    31    12    14    2
    32    15    14    1
