@<TRIPOS>MOLECULE
9449_out_ligand_01.pdbqt
 34 37 0 0 0
SMALL
GASTEIGER

@<TRIPOS>ATOM
      1  C         17.9300  -22.7560   -6.1220 C.2     1  UNL1        0.0260
      2  C         18.0710  -23.7220   -7.1350 C.2     1  UNL1        0.0270
      3  C         19.1580  -23.7090   -8.0130 C.2     1  UNL1        0.0310
      4  C         20.1510  -22.7360   -7.9020 C.2     1  UNL1        0.0360
      5  C         20.0440  -21.7780   -6.8950 C.2     1  UNL1        0.0480
      6  C         18.9470  -21.7750   -6.0040 C.2     1  UNL1        0.0550
      7  N         21.2060  -22.7970   -8.8250 N.am    1  UNL1       -0.3220
      8  C         22.4380  -22.1720   -8.7780 C.2     1  UNL1        0.2760
      9  O         22.8520  -21.4250   -7.9010 O.2     1  UNL1       -0.2660
     10  H         21.0840  -23.3650   -9.6610 H       1  UNL1        0.1690
     11  C         23.2590  -22.5040   -9.9580 C.2     1  UNL1        0.1470
     12  C         23.0440  -22.0810  -11.2940 C.2     1  UNL1        0.0710
     13  C         24.0650  -22.6320  -12.0430 C.2     1  UNL1        0.0640
     14  N         24.8050  -23.3510  -11.1380 N.pl3   1  UNL1       -0.2770
     15  N         24.3550  -23.2860   -9.8710 N.2     1  UNL1       -0.1690
     16  H         25.6220  -23.9220  -11.3220 H       1  UNL1        0.1890
     17  C         24.3630  -22.5590  -13.4710 C.2     1  UNL1        0.0100
     18  C         25.2190  -23.4850  -14.0760 C.2     1  UNL1        0.0160
     19  C         25.4970  -23.3940  -15.4390 C.2     1  UNL1        0.0200
     20  C         24.9070  -22.3740  -16.1660 C.2     1  UNL1        0.1160
     21  N         24.0730  -21.4620  -15.6280 N.2     1  UNL1       -0.2720
     22  C         23.8160  -21.5810  -14.3020 C.2     1  UNL1        0.1300
     23  C         18.9520  -20.6870   -4.9730 C.2     1  UNL1        0.2510
     24  N         18.5730  -21.0160   -3.7060 N.am    1  UNL1       -0.3660
     25  H         18.5090  -22.0030   -3.4710 H       1  UNL1        0.1590
     26  H         18.7120  -20.3330   -2.9780 H       1  UNL1        0.1590
     27  O         19.2820  -19.5360   -5.2370 O.2     1  UNL1       -0.2680
     28  N         16.8370  -22.8300   -5.2120 N.pl3   1  UNL1       -0.2780
     29  C         17.1600  -23.7760   -4.1180 C.3     1  UNL1        0.0960
     30  C         15.9840  -23.8680   -3.1530 C.3     1  UNL1        0.0150
     31  C         14.7180  -24.3760   -3.8430 C.3     1  UNL1        0.0030
     32  C         14.7810  -24.2450   -5.3650 C.3     1  UNL1        0.0200
     33  C         15.4910  -22.9680   -5.8350 C.3     1  UNL1        0.0590
     34  C         14.6690  -21.7170   -5.5060 C.3     1  UNL1        0.0260
@<TRIPOS>BOND
     1    20    21    2
     2    20    19    1
     3    21    22    1
     4    19    18    2
     5    22    17    2
     6    18    17    1
     7    17    13    1
     8    13    12    2
     9    13    14    1
    10    16    14    1
    11    12    11    1
    12    14    15    1
    13    11    15    2
    14    11     8    1
    15    10     7    1
    16     7     8   am
    17     7     4    1
    18     8     9    2
    19     3     4    2
    20     3     2    1
    21     4     5    1
    22     2     1    2
    23     5     6    2
    24     1     6    1
    25     1    28    1
    26     6    23    1
    27    33    34    1
    28    33    32    1
    29    33    28    1
    30    32    31    1
    31    27    23    2
    32    28    29    1
    33    23    24   am
    34    29    30    1
    35    31    30    1
    36    24    25    1
    37    24    26    1
