@<TRIPOS>MOLECULE
9454_out_ligand_01.pdbqt
 35 38 0 0 0
SMALL
GASTEIGER

@<TRIPOS>ATOM
      1  C         19.2610  -22.9450   -7.4380 C.2     1  UNL1       -0.0050
      2  C         19.4590  -24.2410   -7.9340 C.2     1  UNL1        0.0140
      3  C         20.6710  -24.5930   -8.5330 C.2     1  UNL1        0.0100
      4  C         21.7030  -23.6520   -8.6580 C.2     1  UNL1       -0.0400
      5  C         21.4930  -22.3490   -8.1820 C.2     1  UNL1        0.0100
      6  C         20.2820  -21.9980   -7.5790 C.2     1  UNL1        0.0140
      7  C         17.9990  -22.6000   -6.7920 C.2     1  UNL1        0.1040
      8  N         17.9650  -21.6430   -5.8500 N.2     1  UNL1       -0.1740
      9  N         16.6810  -21.5850   -5.4760 N.pl3   1  UNL1       -0.2880
     10  C         15.8740  -22.4290   -6.1680 C.2     1  UNL1        0.1280
     11  H         16.4260  -20.9360   -4.7390 H       1  UNL1        0.1880
     12  C         16.6870  -23.0990   -7.0650 C.2     1  UNL1        0.0800
     13  C         16.2690  -24.1070   -8.0370 C.2     1  UNL1        0.2610
     14  N         16.1300  -23.7150   -9.3830 N.am    1  UNL1       -0.3180
     15  C         15.2530  -24.5230  -10.2230 C.3     1  UNL1        0.1590
     16  O         15.9480  -25.2310   -7.6540 O.2     1  UNL1       -0.2670
     17  C         16.8930  -22.6910  -10.0320 C.2     1  UNL1        0.0370
     18  C         18.1590  -22.9540  -10.5800 C.2     1  UNL1        0.0290
     19  C         18.8910  -21.9510  -11.2190 C.2     1  UNL1        0.0020
     20  C         18.3630  -20.6700  -11.3390 C.2     1  UNL1        0.0000
     21  C         17.0980  -20.3960  -10.8300 C.2     1  UNL1        0.0020
     22  C         16.3660  -21.4000  -10.1900 C.2     1  UNL1        0.0290
     23  C         23.0270  -24.0320   -9.2680 C.3     1  UNL1        0.1610
     24  N         23.1470  -23.4810  -10.6010 N.am    1  UNL1       -0.3530
     25  C         24.3760  -23.1230  -11.1020 C.2     1  UNL1        0.2520
     26  O         25.4270  -23.2860  -10.4940 O.2     1  UNL1       -0.2680
     27  H         22.3080  -23.0920  -11.0090 H       1  UNL1        0.1630
     28  C         24.3840  -22.4750  -12.4440 C.2     1  UNL1        0.0350
     29  C         25.4460  -22.6430  -13.3490 C.2     1  UNL1        0.0200
     30  C         25.4100  -22.0110  -14.5960 C.2     1  UNL1        0.0460
     31  C         24.3250  -21.2100  -14.9280 C.2     1  UNL1        0.1540
     32  F         24.2940  -20.6110  -16.1260 F       1  UNL1       -0.2030
     33  C         23.2800  -21.0300  -14.0280 C.2     1  UNL1        0.1550
     34  F         22.2400  -20.2490  -14.3520 F       1  UNL1       -0.2030
     35  C         23.3030  -21.6530  -12.7870 C.2     1  UNL1        0.0620
@<TRIPOS>BOND
     1    32    31    1
     2    31    30    2
     3    31    33    1
     4    30    29    1
     5    34    33    1
     6    33    35    2
     7    29    28    2
     8    35    28    1
     9    28    25    1
    10    20    19    2
    11    20    21    1
    12    19    18    1
    13    25    24   am
    14    25    26    2
    15    27    24    1
    16    21    22    2
    17    24    23    1
    18    18    17    2
    19    15    14    1
    20    22    17    1
    21    17    14    1
    22    14    13   am
    23    23     4    1
    24     4     3    2
    25     4     5    1
    26     3     2    1
    27     5     6    2
    28    13    16    2
    29    13    12    1
    30     2     1    2
    31     6     1    1
    32     1     7    1
    33    12     7    1
    34    12    10    2
    35     7     8    2
    36    10     9    1
    37     8     9    1
    38     9    11    1
