@<TRIPOS>MOLECULE
9459_out_ligand_01.pdbqt
 33 37 0 0 0
SMALL
GASTEIGER

@<TRIPOS>ATOM
      1  C         22.6010  -22.0800  -10.7320 C.2     1  UNL1        0.0350
      2  C         23.2630  -21.6500   -9.5820 C.2     1  UNL1        0.0290
      3  C         22.6810  -21.8280   -8.3230 C.2     1  UNL1        0.0030
      4  C         21.4350  -22.4410   -8.2020 C.2     1  UNL1        0.0070
      5  C         20.7600  -22.8910   -9.3410 C.2     1  UNL1       -0.0560
      6  C         21.3500  -22.7030  -10.6020 C.2     1  UNL1        0.0360
      7  N         23.1040  -21.9210  -12.0400 N.am    1  UNL1       -0.3230
      8  C         24.3690  -22.2090  -12.5070 C.2     1  UNL1        0.2610
      9  O         25.2770  -22.7120  -11.8490 O.2     1  UNL1       -0.2670
     10  H         22.4520  -21.5240  -12.7180 H       1  UNL1        0.1690
     11  C         24.5940  -21.8590  -13.9500 C.2     1  UNL1        0.1000
     12  C         25.6470  -22.4210  -14.5820 C.2     1  UNL1        0.0320
     13  C         25.9150  -22.1160  -15.9560 C.2     1  UNL1       -0.0340
     14  C         25.1270  -21.2810  -16.6360 C.2     1  UNL1        0.0180
     15  C         27.0380  -22.6220  -16.7900 C.3     1  UNL1        0.0410
     16  N         24.0490  -20.6960  -16.0480 N.am    1  UNL1       -0.3260
     17  C         25.5620  -21.0800  -18.0400 C.3     1  UNL1        0.0580
     18  C         23.7180  -20.9120  -14.7250 C.2     1  UNL1        0.2610
     19  H         23.4630  -20.0550  -16.5660 H       1  UNL1        0.1690
     20  O         22.7570  -20.3510  -14.2060 O.2     1  UNL1       -0.2670
     21  C         26.9630  -21.7020  -18.0220 C.3     1  UNL1        0.0110
     22  C         19.4350  -23.6070   -9.2140 C.3     1  UNL1        0.0460
     23  C         18.2370  -22.6530   -9.2760 C.3     1  UNL1        0.0830
     24  C         17.4810  -22.6110   -7.9890 C.ar    1  UNL1        0.1050
     25  N         16.1730  -22.5540   -7.8480 N.ar    1  UNL1       -0.2330
     26  C         15.9500  -22.4860   -6.4940 C.ar    1  UNL1        0.0850
     27  C         14.7450  -22.3910   -5.7880 C.2     1  UNL1        0.0340
     28  C         17.1480  -22.5130   -5.7910 C.ar    1  UNL1        0.0620
     29  C         14.7890  -22.3170   -4.3890 C.2     1  UNL1        0.0020
     30  C         16.0090  -22.3380   -3.7100 C.2     1  UNL1        0.0020
     31  C         17.2220  -22.4410   -4.3990 C.2     1  UNL1        0.0320
     32  N         18.1070  -22.6130   -6.7650 N.ar    1  UNL1       -0.3430
     33  H         19.1050  -22.6060   -6.6170 H       1  UNL1        0.1670
@<TRIPOS>BOND
     1    17    21    1
     2    17    14    1
     3    21    15    1
     4    15    13    1
     5    14    16    1
     6    14    13    2
     7    19    16    1
     8    16    18   am
     9    13    12    1
    10    18    20    2
    11    18    11    1
    12    12    11    2
    13    11     8    1
    14    10     7    1
    15     8     7   am
    16     8     9    2
    17     7     1    1
    18     1     6    2
    19     1     2    1
    20     6     5    1
    21     2     3    2
    22     5    22    1
    23     5     4    2
    24    23    22    1
    25    23    24    1
    26     3     4    1
    27    24    25   ar
    28    24    32   ar
    29    25    26   ar
    30    32    33    1
    31    32    28   ar
    32    26    28   ar
    33    26    27    1
    34    28    31    1
    35    27    29    2
    36    31    30    2
    37    29    30    1
