@<TRIPOS>MOLECULE
9461_out_ligand_01.pdbqt
 35 38 0 0 0
SMALL
GASTEIGER

@<TRIPOS>ATOM
      1  C         18.9950  -23.0580   -7.2000 C.2     1  UNL1       -0.0050
      2  C         19.2070  -24.3300   -7.7510 C.2     1  UNL1        0.0140
      3  C         20.4110  -24.6430   -8.3880 C.2     1  UNL1        0.0100
      4  C         21.4330  -23.6900   -8.4860 C.2     1  UNL1       -0.0400
      5  C         21.2200  -22.4160   -7.9470 C.2     1  UNL1        0.0100
      6  C         20.0090  -22.0990   -7.3210 C.2     1  UNL1        0.0140
      7  C         17.7370  -22.7630   -6.5010 C.2     1  UNL1        0.1040
      8  N         17.7210  -21.9380   -5.4330 N.2     1  UNL1       -0.1740
      9  N         16.4440  -21.9320   -5.0290 N.pl3   1  UNL1       -0.2880
     10  C         15.6190  -22.6810   -5.8070 C.2     1  UNL1        0.1280
     11  H         16.2030  -21.3810   -4.2120 H       1  UNL1        0.1880
     12  C         16.4130  -23.2090   -6.8050 C.2     1  UNL1        0.0800
     13  C         15.9350  -24.0650   -7.8750 C.2     1  UNL1        0.2570
     14  N         15.7750  -23.4970   -9.1400 N.am    1  UNL1       -0.3480
     15  C         15.4420  -24.3630  -10.2580 C.3     1  UNL1        0.1530
     16  O         15.6840  -25.2460   -7.6440 O.2     1  UNL1       -0.2670
     17  C         16.0070  -22.0850   -9.4530 C.3     1  UNL1        0.1640
     18  C         17.2290  -21.8460  -10.3130 C.2     1  UNL1       -0.0400
     19  C         18.2170  -22.8270  -10.4750 C.2     1  UNL1        0.0090
     20  C         19.3430  -22.5820  -11.2620 C.2     1  UNL1        0.0010
     21  C         19.4980  -21.3500  -11.8950 C.2     1  UNL1        0.0000
     22  C         18.5300  -20.3620  -11.7340 C.2     1  UNL1        0.0010
     23  C         17.4050  -20.6030  -10.9460 C.2     1  UNL1        0.0090
     24  C         22.7440  -24.0250   -9.1470 C.3     1  UNL1        0.1610
     25  N         22.8260  -23.4580  -10.4720 N.am    1  UNL1       -0.3530
     26  C         23.9970  -22.9470  -10.9820 C.2     1  UNL1        0.2550
     27  O         25.0270  -22.8480  -10.3250 O.2     1  UNL1       -0.2680
     28  H         22.0330  -23.5930  -11.0860 H       1  UNL1        0.1630
     29  C         23.9830  -22.5060  -12.4050 C.2     1  UNL1        0.0700
     30  C         23.0370  -21.5450  -12.7970 C.2     1  UNL1        0.0200
     31  C         22.9800  -21.1030  -14.1220 C.2     1  UNL1        0.0010
     32  C         23.8640  -21.6160  -15.0690 C.2     1  UNL1        0.0030
     33  C         24.8100  -22.5670  -14.6900 C.2     1  UNL1        0.0430
     34  C         24.8660  -23.0030  -13.3680 C.2     1  UNL1        0.1320
     35  F         25.7970  -23.9170  -13.0510 F       1  UNL1       -0.2050
@<TRIPOS>BOND
     1    32    33    2
     2    32    31    1
     3    33    34    1
     4    31    30    2
     5    34    35    1
     6    34    29    2
     7    30    29    1
     8    29    26    1
     9    21    22    2
    10    21    20    1
    11    22    23    1
    12    20    19    2
    13    28    25    1
    14    26    25   am
    15    26    27    2
    16    23    18    2
    17    19    18    1
    18    25    24    1
    19    18    17    1
    20    15    14    1
    21    17    14    1
    22    24     4    1
    23    14    13   am
    24     4     3    2
    25     4     5    1
    26     3     2    1
    27     5     6    2
    28    13    16    2
    29    13    12    1
    30     2     1    2
    31     6     1    1
    32     1     7    1
    33    12     7    1
    34    12    10    2
    35     7     8    2
    36    10     9    1
    37     8     9    1
    38     9    11    1
