@<TRIPOS>MOLECULE
9464_out_ligand_01.pdbqt
 34 37 0 0 0
SMALL
GASTEIGER

@<TRIPOS>ATOM
      1  C         17.8760  -23.1390   -7.7040 C.2     1  UNL1        0.0460
      2  C         19.2110  -23.1330   -7.2670 C.2     1  UNL1        0.0320
      3  C         20.2760  -23.0160   -8.1680 C.2     1  UNL1        0.0320
      4  C         20.0420  -22.9020   -9.5400 C.2     1  UNL1        0.0360
      5  C         18.7270  -22.9250   -9.9990 C.2     1  UNL1        0.0490
      6  C         17.6460  -23.0370   -9.0980 C.2     1  UNL1        0.0600
      7  N         21.1730  -22.7880  -10.3740 N.am    1  UNL1       -0.3230
      8  C         21.3270  -21.9620  -11.4720 C.2     1  UNL1        0.2560
      9  O         20.5450  -21.1090  -11.8730 O.2     1  UNL1       -0.2670
     10  H         21.9890  -23.3120  -10.0790 H       1  UNL1        0.1690
     11  C         22.6220  -22.1220  -12.1910 C.2     1  UNL1        0.0320
     12  C         23.5650  -23.0230  -11.6890 C.2     1  UNL1        0.0170
     13  C         24.7780  -23.2050  -12.3520 C.2     1  UNL1        0.0020
     14  C         25.0570  -22.4820  -13.5150 C.2     1  UNL1        0.0090
     15  C         24.1320  -21.5560  -14.0200 C.2     1  UNL1       -0.0390
     16  C         22.9150  -21.3730  -13.3400 C.2     1  UNL1        0.0260
     17  C         24.4430  -20.7660  -15.2680 C.3     1  UNL1        0.1670
     18  N         25.0300  -21.6110  -16.2940 N.pl3   1  UNL1       -0.3460
     19  C         26.2430  -21.4350  -16.9000 C.2     1  UNL1        0.1110
     20  C         26.3540  -22.4870  -17.7780 C.2     1  UNL1        0.1350
     21  N         25.2420  -23.2890  -17.7230 N.2     1  UNL1       -0.2550
     22  C         24.4540  -22.7250  -16.8370 C.2     1  UNL1        0.2090
     23  C         16.2810  -23.0180   -9.7110 C.2     1  UNL1        0.2510
     24  N         15.8970  -21.8690  -10.3410 N.am    1  UNL1       -0.3660
     25  H         16.4170  -21.0250  -10.1210 H       1  UNL1        0.1590
     26  H         14.9260  -21.7940  -10.6060 H       1  UNL1        0.1590
     27  O         15.5290  -23.9840   -9.6660 O.2     1  UNL1       -0.2680
     28  N         16.8190  -23.3120   -6.7820 N.pl3   1  UNL1       -0.3800
     29  C         17.2560  -23.9900   -5.5420 C.3     1  UNL1        0.1230
     30  C         16.8690  -23.1970   -4.2980 C.3     1  UNL1        0.0200
     31  C         15.3760  -22.8720   -4.2540 C.3     1  UNL1        0.0070
     32  C         14.7850  -22.5810   -5.6460 C.3     1  UNL1       -0.0010
     33  C         13.6940  -21.5180   -5.5700 C.3     1  UNL1        0.0110
     34  C         15.8910  -22.1780   -6.6300 C.3     1  UNL1        0.1270
@<TRIPOS>BOND
     1    20    21    1
     2    20    19    2
     3    21    22    2
     4    19    18    1
     5    22    18    1
     6    18    17    1
     7    17    15    1
     8    15    14    2
     9    15    16    1
    10    14    13    1
    11    16    11    2
    12    13    12    2
    13    11    12    1
    14    11     8    1
    15     9     8    2
    16     8     7   am
    17    26    24    1
    18     7    10    1
    19     7     4    1
    20    24    25    1
    21    24    23   am
    22     5     4    2
    23     5     6    1
    24    23    27    2
    25    23     6    1
    26     4     3    1
    27     6     1    2
    28     3     2    2
    29     1     2    1
    30     1    28    1
    31    28    34    1
    32    28    29    1
    33    34    32    1
    34    32    33    1
    35    32    31    1
    36    29    30    1
    37    30    31    1
