@<TRIPOS>MOLECULE
9467_out_ligand_01.pdbqt
 35 38 0 0 0
SMALL
GASTEIGER

@<TRIPOS>ATOM
      1  C         18.9630  -23.0800   -7.2300 C.2     1  UNL1       -0.0050
      2  C         19.9550  -22.0990   -7.3600 C.2     1  UNL1        0.0140
      3  C         21.1540  -22.3800   -8.0200 C.2     1  UNL1        0.0100
      4  C         21.3840  -23.6490   -8.5690 C.2     1  UNL1       -0.0400
      5  C         20.3900  -24.6280   -8.4480 C.2     1  UNL1        0.0100
      6  C         19.1880  -24.3440   -7.7930 C.2     1  UNL1        0.0140
      7  C         17.7170  -22.7740   -6.5200 C.2     1  UNL1        0.1040
      8  N         17.7260  -21.9970   -5.4210 N.2     1  UNL1       -0.1740
      9  N         16.4360  -21.9060   -5.0640 N.pl3   1  UNL1       -0.2880
     10  C         15.5970  -22.6170   -5.8570 C.2     1  UNL1        0.1280
     11  H         16.2030  -21.3410   -4.2520 H       1  UNL1        0.1880
     12  C         16.3960  -23.2360   -6.7970 C.2     1  UNL1        0.0800
     13  C         15.9260  -24.1370   -7.8290 C.2     1  UNL1        0.2570
     14  N         15.7540  -23.6130   -9.1110 N.am    1  UNL1       -0.3480
     15  C         15.2620  -24.4840  -10.1610 C.3     1  UNL1        0.1530
     16  O         15.7070  -25.3180   -7.5630 O.2     1  UNL1       -0.2670
     17  C         15.9330  -22.2020   -9.4540 C.3     1  UNL1        0.1640
     18  C         17.1620  -21.9060  -10.2830 C.2     1  UNL1       -0.0400
     19  C         18.1490  -22.8720  -10.5260 C.2     1  UNL1        0.0090
     20  C         19.2640  -22.5710  -11.3110 C.2     1  UNL1        0.0010
     21  C         19.3990  -21.3050  -11.8760 C.2     1  UNL1        0.0000
     22  C         18.4200  -20.3380  -11.6570 C.2     1  UNL1        0.0010
     23  C         17.3060  -20.6380  -10.8700 C.2     1  UNL1        0.0090
     24  C         22.6920  -23.9500   -9.2500 C.3     1  UNL1        0.1610
     25  N         22.8320  -23.1580  -10.4530 N.am    1  UNL1       -0.3530
     26  C         24.0770  -22.8090  -10.9250 C.2     1  UNL1        0.2520
     27  O         25.1200  -23.1230  -10.3660 O.2     1  UNL1       -0.2680
     28  H         22.0060  -23.0090  -11.0130 H       1  UNL1        0.1630
     29  C         24.1090  -22.0440  -12.2020 C.2     1  UNL1        0.0350
     30  C         22.8910  -21.7430  -12.8300 C.2     1  UNL1        0.0170
     31  C         22.8710  -21.0190  -14.0250 C.2     1  UNL1        0.0040
     32  C         24.0690  -20.6030  -14.6020 C.2     1  UNL1        0.0420
     33  C         25.2750  -20.9220  -13.9850 C.2     1  UNL1        0.1170
     34  F         26.4240  -20.5320  -14.5460 F       1  UNL1       -0.2060
     35  C         25.3100  -21.6410  -12.7950 C.2     1  UNL1        0.0590
@<TRIPOS>BOND
     1    32    31    2
     2    32    33    1
     3    34    33    1
     4    31    30    1
     5    33    35    2
     6    30    29    2
     7    35    29    1
     8    29    26    1
     9    21    22    2
    10    21    20    1
    11    22    23    1
    12    20    19    2
    13    28    25    1
    14    26    25   am
    15    26    27    2
    16    23    18    2
    17    19    18    1
    18    25    24    1
    19    18    17    1
    20    15    14    1
    21    17    14    1
    22    24     4    1
    23    14    13   am
    24     4     5    2
    25     4     3    1
    26     5     6    1
    27     3     2    2
    28    13    16    2
    29    13    12    1
    30     6     1    2
    31     2     1    1
    32     1     7    1
    33    12     7    1
    34    12    10    2
    35     7     8    2
    36    10     9    1
    37     8     9    1
    38     9    11    1
