@<TRIPOS>MOLECULE
9508_out_ligand_01.pdbqt
 34 38 0 0 0
SMALL
GASTEIGER

@<TRIPOS>ATOM
      1  C         25.3950  -21.5720  -12.0930 C.2     1  UNL1       -0.0510
      2  C         24.2770  -21.9840  -12.8270 C.2     1  UNL1        0.0100
      3  C         23.0550  -22.2170  -12.1890 C.2     1  UNL1        0.0300
      4  C         22.9230  -22.0360  -10.8070 C.2     1  UNL1        0.0350
      5  C         24.0340  -21.6130  -10.0770 C.2     1  UNL1        0.0300
      6  C         25.2610  -21.3840  -10.7110 C.2     1  UNL1        0.0100
      7  N         21.6590  -22.2920  -10.2420 N.am    1  UNL1       -0.3230
      8  C         21.2640  -23.4140   -9.5390 C.2     1  UNL1        0.2570
      9  O         21.9210  -24.4210   -9.3110 O.2     1  UNL1       -0.2670
     10  H         20.9580  -21.5740  -10.3820 H       1  UNL1        0.1690
     11  C         19.8470  -23.3270   -9.0850 C.2     1  UNL1        0.0500
     12  C         19.5710  -24.0450   -7.9900 C.2     1  UNL1        0.0920
     13  C         18.2020  -24.1460   -7.4520 C.2     1  UNL1        0.2480
     14  O         18.0250  -24.8280   -6.4460 O.2     1  UNL1       -0.2680
     15  N         17.1960  -23.4830   -8.1420 N.am    1  UNL1       -0.3180
     16  C         15.8360  -23.5920   -7.6350 C.3     1  UNL1        0.1590
     17  C         17.4660  -22.6770   -9.2890 C.2     1  UNL1        0.0480
     18  C         16.4480  -21.9730   -9.9510 C.2     1  UNL1        0.0300
     19  C         18.7880  -22.5680   -9.7630 C.2     1  UNL1        0.0070
     20  C         16.7350  -21.1610  -11.0500 C.2     1  UNL1        0.0020
     21  C         18.0450  -21.0300  -11.4950 C.2     1  UNL1        0.0010
     22  C         19.0670  -21.7210  -10.8510 C.2     1  UNL1        0.0150
     23  C         26.7240  -21.3420  -12.7780 C.3     1  UNL1        0.1170
     24  C         26.6450  -20.3680  -13.9110 C.ar    1  UNL1        0.1090
     25  N         26.4460  -20.7630  -15.2130 N.ar    1  UNL1       -0.3420
     26  C         26.4270  -19.6450  -16.0050 C.ar    1  UNL1        0.0620
     27  H         26.3100  -21.7150  -15.5220 H       1  UNL1        0.1670
     28  C         26.2510  -19.4680  -17.3790 C.2     1  UNL1        0.0320
     29  C         26.6290  -18.5940  -15.1190 C.ar    1  UNL1        0.0860
     30  C         26.2950  -18.1500  -17.8520 C.2     1  UNL1        0.0090
     31  C         26.5120  -17.0610  -16.9920 C.2     1  UNL1       -0.0600
     32  C         26.5240  -15.6620  -17.5370 C.3     1  UNL1        0.0480
     33  C         26.6680  -17.2810  -15.6100 C.2     1  UNL1        0.0400
     34  N         26.7610  -19.0560  -13.8320 N.ar    1  UNL1       -0.2330
@<TRIPOS>BOND
     1    30    28    1
     2    30    31    2
     3    32    31    1
     4    28    26    2
     5    31    33    1
     6    26    25   ar
     7    26    29   ar
     8    33    29    2
     9    27    25    1
    10    25    24   ar
    11    29    34   ar
    12    24    34   ar
    13    24    23    1
    14     2     3    1
    15     2     1    2
    16    23     1    1
    17     3     4    2
    18     1     6    1
    19    21    20    2
    20    21    22    1
    21    20    18    1
    22    22    19    2
    23     4     7    1
    24     4     5    1
    25     6     5    2
    26    10     7    1
    27     7     8   am
    28    18    17    2
    29    19    17    1
    30    19    11    1
    31     8     9    2
    32     8    11    1
    33    17    15    1
    34    11    12    2
    35    15    16    1
    36    15    13   am
    37    12    13    1
    38    13    14    2
