@<TRIPOS>MOLECULE
9509_out_ligand_01.pdbqt
 31 33 0 0 0
SMALL
GASTEIGER

@<TRIPOS>ATOM
      1  N         19.3150  -22.4420   -9.5180 N.am    1  UNL1       -0.3230
      2  C         19.6310  -22.5850   -8.1800 C.2     1  UNL1        0.2570
      3  O         20.7340  -22.4870   -7.6600 O.2     1  UNL1       -0.2670
      4  H         18.3540  -22.6250   -9.7810 H       1  UNL1        0.1690
      5  C         20.1910  -22.1150  -10.5730 C.2     1  UNL1        0.0360
      6  C         19.7920  -21.4980  -11.7570 C.2     1  UNL1        0.0300
      7  C         20.7270  -21.2010  -12.7560 C.2     1  UNL1        0.0100
      8  C         22.0840  -21.5210  -12.6050 C.2     1  UNL1       -0.0390
      9  C         23.0360  -21.1510  -13.7080 C.3     1  UNL1        0.0500
     10  C         22.4820  -22.1480  -11.4120 C.2     1  UNL1        0.0820
     11  C         21.5410  -22.4370  -10.4060 C.2     1  UNL1        0.0540
     12  S         24.1820  -22.5830  -11.0930 S.O2    1  UNL1        0.2420
     13  O         25.0060  -21.4240  -11.3430 O.2     1  UNL1       -0.2060
     14  O         24.2410  -23.3000   -9.8370 O.2     1  UNL1       -0.2060
     15  N         24.4610  -23.7600  -12.2810 N.3     1  UNL1       -0.2120
     16  H         24.3360  -24.6780  -11.8480 H       1  UNL1        0.1400
     17  C         25.7510  -23.6760  -13.0140 C.3     1  UNL1        0.0630
     18  C         25.6050  -24.4890  -14.2980 C.3     1  UNL1        0.0270
     19  C         26.8900  -24.2220  -12.1610 C.3     1  UNL1        0.0270
     20  C         18.4410  -22.9330   -7.3500 C.2     1  UNL1        0.0500
     21  C         17.5510  -23.7600   -7.9110 C.2     1  UNL1        0.0920
     22  C         16.3190  -24.1700   -7.2110 C.2     1  UNL1        0.2480
     23  O         15.5710  -24.9600   -7.7830 O.2     1  UNL1       -0.2680
     24  N         16.0960  -23.6420   -5.9470 N.am    1  UNL1       -0.3180
     25  C         14.8810  -24.0310   -5.2490 C.3     1  UNL1        0.1590
     26  C         17.0130  -22.7340   -5.3330 C.2     1  UNL1        0.0480
     27  C         16.7780  -22.2000   -4.0550 C.2     1  UNL1        0.0300
     28  C         18.1860  -22.3640   -6.0210 C.2     1  UNL1        0.0070
     29  C         17.6860  -21.3170   -3.4670 C.2     1  UNL1        0.0020
     30  C         18.8410  -20.9550   -4.1480 C.2     1  UNL1        0.0010
     31  C         19.0910  -21.4760   -5.4170 C.2     1  UNL1        0.0150
@<TRIPOS>BOND
     1    18    17    1
     2     9     8    1
     3    17    15    1
     4    17    19    1
     5     7     8    2
     6     7     6    1
     7     8    10    1
     8    15    16    1
     9    15    12    1
    10     6     5    2
    11    10    12    1
    12    10    11    2
    13    13    12    2
    14    12    14    2
    15     5    11    1
    16     5     1    1
    17     4     1    1
    18     1     2   am
    19     2     3    2
    20     2    20    1
    21    21    20    2
    22    21    22    1
    23    23    22    2
    24    20    28    1
    25    22    24   am
    26    28    31    1
    27    28    26    2
    28    24    26    1
    29    24    25    1
    30    31    30    2
    31    26    27    1
    32    30    29    1
    33    27    29    2
