@<TRIPOS>MOLECULE
950_out_ligand_01.pdbqt
 28 30 0 0 0
SMALL
GASTEIGER

@<TRIPOS>ATOM
      1  C         20.1900  -23.3720   -9.2010 C.2     1  UNL1        0.2800
      2  O         20.1960  -24.5240   -8.7820 O.2     1  UNL1       -0.2650
      3  N         19.3900  -22.3490   -8.7200 N.am    1  UNL1       -0.3210
      4  H         19.5260  -21.4590   -9.1860 H       1  UNL1        0.1690
      5  C         21.0550  -22.9340  -10.2870 C.ar    1  UNL1        0.1500
      6  O         22.3670  -23.3330  -10.2810 O.2     1  UNL1       -0.3040
      7  C         22.9590  -22.8020  -11.3820 C.ar    1  UNL1        0.0870
      8  C         24.2930  -22.9760  -11.7400 C.2     1  UNL1        0.0390
      9  C         22.0440  -22.0560  -12.1120 C.ar    1  UNL1        0.0070
     10  C         24.7130  -22.3460  -12.9160 C.2     1  UNL1        0.0100
     11  C         23.8320  -21.5740  -13.6900 C.2     1  UNL1       -0.0580
     12  C         22.4880  -21.4300  -13.2930 C.2     1  UNL1        0.0220
     13  C         20.8060  -22.1420  -11.4020 C.ar    1  UNL1       -0.0090
     14  C         19.5110  -21.5160  -11.7680 C.3     1  UNL1        0.0520
     15  C         24.3140  -20.9220  -14.9630 C.3     1  UNL1        0.0340
     16  C         24.7700  -21.9500  -15.9870 C.3     1  UNL1        0.0100
     17  C         18.4360  -22.3930   -7.6880 C.2     1  UNL1        0.0350
     18  C         18.7270  -22.1470   -6.3430 C.2     1  UNL1        0.0310
     19  C         17.7190  -22.2100   -5.3740 C.2     1  UNL1        0.0270
     20  C         16.4110  -22.5140   -5.7540 C.2     1  UNL1        0.0740
     21  C         16.1060  -22.7760   -7.0910 C.2     1  UNL1        0.0270
     22  C         17.1190  -22.7100   -8.0510 C.2     1  UNL1        0.0310
     23  S         15.1460  -22.6240   -4.5250 S.O2    1  UNL1        0.2390
     24  O         14.1250  -21.6400   -4.8010 O.2     1  UNL1       -0.2060
     25  O         14.8360  -24.0130   -4.2810 O.2     1  UNL1       -0.2060
     26  N         15.9460  -22.0800   -3.1530 N.3     1  UNL1       -0.2250
     27  H         16.4710  -21.2330   -3.3710 H       1  UNL1        0.1360
     28  H         16.5160  -22.8310   -2.7640 H       1  UNL1        0.1360
@<TRIPOS>BOND
     1    16    15    1
     2    15    11    1
     3    11    12    2
     4    11    10    1
     5    12     9    1
     6    10     8    2
     7     9    13   ar
     8     9     7   ar
     9    14    13    1
    10     8     7    1
    11    13     5   ar
    12     7     6   ar
    13     5     6   ar
    14     5     1    1
    15     1     2    2
    16     1     3   am
    17     4     3    1
    18     3    17    1
    19    22    17    2
    20    22    21    1
    21    17    18    1
    22    21    20    2
    23    18    19    2
    24    20    19    1
    25    20    23    1
    26    24    23    2
    27    23    25    2
    28    23    26    1
    29    27    26    1
    30    26    28    1
