@<TRIPOS>MOLECULE
9521_out_ligand_01.pdbqt
 34 38 0 0 0
SMALL
GASTEIGER

@<TRIPOS>ATOM
      1  C         22.3760  -23.4340   -9.6850 C.2     1  UNL1       -0.0510
      2  C         21.5810  -24.2780   -8.9050 C.2     1  UNL1        0.0100
      3  C         20.1870  -24.2210   -8.9890 C.2     1  UNL1        0.0300
      4  C         19.5630  -23.3010   -9.8440 C.2     1  UNL1        0.0340
      5  C         20.3510  -22.4700  -10.6370 C.2     1  UNL1        0.0300
      6  C         21.7470  -22.5410  -10.5690 C.2     1  UNL1        0.0100
      7  N         18.1590  -23.2680   -9.8130 N.am    1  UNL1       -0.3270
      8  C         17.3180  -22.2350  -10.1830 C.2     1  UNL1        0.2220
      9  O         17.6420  -21.1740  -10.6990 O.2     1  UNL1       -0.2730
     10  H         17.6920  -24.1230   -9.5000 H       1  UNL1        0.1690
     11  C         15.8580  -22.5230   -9.8730 C.3     1  UNL1        0.1100
     12  C         15.6840  -23.7800   -9.0380 C.3     1  UNL1        0.0870
     13  C         16.0070  -23.5860   -7.5930 C.ar    1  UNL1        0.1050
     14  N         17.0270  -24.0900   -6.9230 N.ar    1  UNL1       -0.2330
     15  C         16.8740  -23.6410   -5.6310 C.ar    1  UNL1        0.0850
     16  C         17.6710  -23.8670   -4.5030 C.2     1  UNL1        0.0340
     17  C         15.7320  -22.8620   -5.5110 C.ar    1  UNL1        0.0620
     18  C         17.2830  -23.2990   -3.2840 C.2     1  UNL1        0.0020
     19  C         16.1200  -22.5340   -3.1900 C.2     1  UNL1        0.0020
     20  C         15.3130  -22.2950   -4.3090 C.2     1  UNL1        0.0320
     21  N         15.2100  -22.8220   -6.7760 N.ar    1  UNL1       -0.3430
     22  H         14.3780  -22.3280   -7.0600 H       1  UNL1        0.1670
     23  C         23.8840  -23.4620   -9.5620 C.3     1  UNL1        0.1170
     24  C         24.5980  -22.6390  -10.5930 C.ar    1  UNL1        0.1090
     25  N         25.1920  -21.4270  -10.3130 N.ar    1  UNL1       -0.3420
     26  C         25.7670  -20.9500  -11.4630 C.ar    1  UNL1        0.0620
     27  H         25.1780  -20.9630   -9.4160 H       1  UNL1        0.1670
     28  C         26.4790  -19.7820  -11.7430 C.2     1  UNL1        0.0320
     29  C         25.4890  -21.9250  -12.4130 C.ar    1  UNL1        0.0860
     30  C         26.9120  -19.6180  -13.0630 C.2     1  UNL1        0.0090
     31  C         26.6570  -20.5800  -14.0540 C.2     1  UNL1       -0.0600
     32  C         27.1200  -20.3680  -15.4640 C.3     1  UNL1        0.0480
     33  C         25.9430  -21.7460  -13.7310 C.2     1  UNL1        0.0400
     34  N         24.7710  -22.9600  -11.8610 N.ar    1  UNL1       -0.2330
@<TRIPOS>BOND
     1    32    31    1
     2    31    33    2
     3    31    30    1
     4    33    29    1
     5    30    28    2
     6    29    34   ar
     7    29    26   ar
     8    34    24   ar
     9    28    26    1
    10    26    25   ar
    11     9     8    2
    12     5     6    1
    13     5     4    2
    14    24    25   ar
    15    24    23    1
    16     6     1    2
    17    25    27    1
    18     8    11    1
    19     8     7   am
    20    11    12    1
    21     4     7    1
    22     4     3    1
    23     7    10    1
    24     1    23    1
    25     1     2    1
    26    12    13    1
    27     3     2    2
    28    13    14   ar
    29    13    21   ar
    30    22    21    1
    31    14    15   ar
    32    21    17   ar
    33    15    17   ar
    34    15    16    1
    35    17    20    1
    36    16    18    2
    37    20    19    2
    38    18    19    1
