@<TRIPOS>MOLECULE
9525_out_ligand_01.pdbqt
 35 39 0 0 0
SMALL
GASTEIGER

@<TRIPOS>ATOM
      1  C         23.8430  -22.8900  -11.7180 C.2     1  UNL1       -0.0510
      2  C         22.5540  -22.4700  -12.0670 C.2     1  UNL1        0.0100
      3  C         21.6030  -22.1800  -11.0810 C.2     1  UNL1        0.0300
      4  C         21.9270  -22.2980   -9.7300 C.2     1  UNL1        0.0350
      5  C         23.2150  -22.7170   -9.3790 C.2     1  UNL1        0.0300
      6  C         24.1660  -23.0120  -10.3610 C.2     1  UNL1        0.0100
      7  N         21.0280  -22.0270   -8.6790 N.am    1  UNL1       -0.3230
      8  C         20.1920  -22.9170   -8.0310 C.2     1  UNL1        0.2580
      9  O         20.0460  -24.1070   -8.2760 O.2     1  UNL1       -0.2670
     10  H         20.9550  -21.0550   -8.3960 H       1  UNL1        0.1690
     11  C         19.3760  -22.3150   -6.9410 C.2     1  UNL1        0.0590
     12  C         19.9950  -21.3340   -6.1480 C.2     1  UNL1        0.0190
     13  C         19.3200  -20.7680   -5.0670 C.2     1  UNL1        0.0020
     14  C         18.0240  -21.1800   -4.7700 C.2     1  UNL1        0.0180
     15  C         17.3960  -22.1400   -5.5750 C.2     1  UNL1        0.0420
     16  C         16.0150  -22.5750   -5.2560 C.2     1  UNL1        0.1860
     17  C         18.0420  -22.6960   -6.6950 C.2     1  UNL1        0.0620
     18  O         15.4110  -22.1530   -4.2770 O.2     1  UNL1       -0.2870
     19  C         15.3690  -23.5410   -6.1740 C.2     1  UNL1        0.0800
     20  C         16.0610  -24.0200   -7.2210 C.2     1  UNL1        0.0090
     21  C         15.4170  -24.9690   -8.1950 C.3     1  UNL1        0.0680
     22  N         17.3770  -23.6780   -7.4630 N.pl3   1  UNL1       -0.3580
     23  H         17.6980  -23.7940   -8.4240 H       1  UNL1        0.1660
     24  C         24.8600  -23.2140  -12.7910 C.3     1  UNL1        0.1170
     25  C         25.2590  -22.0390  -13.6270 C.ar    1  UNL1        0.1090
     26  N         25.2380  -22.0520  -15.0030 N.ar    1  UNL1       -0.3420
     27  C         25.6560  -20.8290  -15.4560 C.ar    1  UNL1        0.0620
     28  H         24.9290  -22.8250  -15.5760 H       1  UNL1        0.1670
     29  C         25.8040  -20.2960  -16.7370 C.2     1  UNL1        0.0320
     30  C         25.9280  -20.1130  -14.2970 C.ar    1  UNL1        0.0860
     31  C         26.2550  -18.9710  -16.8200 C.2     1  UNL1        0.0090
     32  C         26.5530  -18.2180  -15.6730 C.2     1  UNL1       -0.0600
     33  C         26.9920  -16.7890  -15.7970 C.3     1  UNL1        0.0480
     34  C         26.3780  -18.7870  -14.3990 C.2     1  UNL1        0.0400
     35  N         25.6850  -20.8740  -13.1800 N.ar    1  UNL1       -0.2330
@<TRIPOS>BOND
     1    31    29    1
     2    31    32    2
     3    29    27    2
     4    33    32    1
     5    32    34    1
     6    28    26    1
     7    27    26   ar
     8    27    30   ar
     9    26    25   ar
    10    34    30    2
    11    30    35   ar
    12    25    35   ar
    13    25    24    1
    14    24     1    1
    15     2     1    2
    16     2     3    1
    17     1     6    1
    18     3     4    2
    19     6     5    2
    20     4     5    1
    21     4     7    1
    22     7    10    1
    23     7     8   am
    24    23    22    1
    25     9     8    2
    26    21    20    1
    27     8    11    1
    28    22    20    1
    29    22    17    1
    30    20    19    2
    31    11    17    2
    32    11    12    1
    33    17    15    1
    34    19    16    1
    35    12    13    2
    36    15    16    1
    37    15    14    2
    38    16    18    2
    39    13    14    1
