@<TRIPOS>MOLECULE
9530_out_ligand_01.pdbqt
 34 38 0 0 0
SMALL
GASTEIGER

@<TRIPOS>ATOM
      1  N         20.5400  -22.8690   -9.6020 N.ar    1  UNL1       -0.3310
      2  C         19.4110  -22.3100  -10.1920 C.ar    1  UNL1        0.0480
      3  C         18.0760  -22.2410   -9.7590 C.2     1  UNL1        0.0300
      4  C         17.1490  -21.5900  -10.5810 C.2     1  UNL1        0.0020
      5  C         17.5340  -21.0240  -11.7920 C.2     1  UNL1        0.0010
      6  C         18.8640  -21.0920  -12.2150 C.2     1  UNL1        0.0160
      7  C         19.8170  -21.7400  -11.4060 C.ar    1  UNL1        0.0220
      8  C         21.2010  -21.9790  -11.5090 C.ar    1  UNL1        0.1030
      9  N         22.0440  -21.5870  -12.5490 N.2     1  UNL1       -0.2400
     10  C         23.2830  -21.9280  -12.3650 C.2     1  UNL1        0.2130
     11  N         23.8150  -22.5990  -11.2720 N.am    1  UNL1       -0.3060
     12  C         23.0060  -23.0250  -10.2230 C.2     1  UNL1        0.2780
     13  O         23.4210  -23.6480   -9.2510 O.2     1  UNL1       -0.2650
     14  C         21.6350  -22.6600  -10.4070 C.ar    1  UNL1        0.1340
     15  C         20.5570  -23.5340   -8.3030 C.3     1  UNL1        0.2320
     16  C         19.6420  -22.9210   -7.2490 C.2     1  UNL1        0.2400
     17  O         19.9920  -21.8830   -6.6880 O.2     1  UNL1       -0.2710
     18  N         18.4990  -23.6430   -6.9420 N.am    1  UNL1       -0.3260
     19  H         18.3600  -24.5270   -7.4170 H       1  UNL1        0.1690
     20  C         17.4850  -23.3040   -6.0200 C.2     1  UNL1        0.0350
     21  C         17.5610  -23.5420   -4.6460 C.2     1  UNL1        0.0320
     22  C         16.5080  -23.1690   -3.8040 C.2     1  UNL1        0.0440
     23  C         15.3820  -22.5570   -4.3370 C.2     1  UNL1        0.1160
     24  F         14.3750  -22.2000   -3.5290 F       1  UNL1       -0.2060
     25  C         15.2890  -22.3090   -5.7000 C.2     1  UNL1        0.0440
     26  C         16.3400  -22.6810   -6.5400 C.2     1  UNL1        0.0320
     27  C         25.2360  -22.9250  -11.2380 C.3     1  UNL1        0.1380
     28  C         26.1220  -21.7130  -10.9150 C.3     1  UNL1        0.0590
     29  C         26.4960  -20.9190  -12.1430 C.2     1  UNL1       -0.0570
     30  C         26.6110  -21.5490  -13.3890 C.2     1  UNL1        0.0070
     31  C         26.9200  -20.8080  -14.5310 C.2     1  UNL1        0.0010
     32  C         27.1210  -19.4320  -14.4360 C.2     1  UNL1        0.0000
     33  C         27.0130  -18.7960  -13.2010 C.2     1  UNL1        0.0010
     34  C         26.7020  -19.5340  -12.0590 C.2     1  UNL1        0.0070
@<TRIPOS>BOND
     1    31    32    2
     2    31    30    1
     3    32    33    1
     4    30    29    2
     5    33    34    2
     6     9    10    2
     7     9     8    1
     8    10    11    1
     9     6     5    2
    10     6     7    1
    11    29    34    1
    12    29    28    1
    13     5     4    1
    14     8     7   ar
    15     8    14   ar
    16     7     2   ar
    17    11    27    1
    18    11    12   am
    19    27    28    1
    20     4     3    2
    21    14    12    1
    22    14     1   ar
    23    12    13    2
    24     2     3    1
    25     2     1   ar
    26     1    15    1
    27    15    16    1
    28    19    18    1
    29    16    18   am
    30    16    17    2
    31    18    20    1
    32    26    20    2
    33    26    25    1
    34    20    21    1
    35    25    23    2
    36    21    22    2
    37    23    22    1
    38    23    24    1
