@<TRIPOS>MOLECULE
9558_out_ligand_01.pdbqt
 33 37 0 0 0
SMALL
GASTEIGER

@<TRIPOS>ATOM
      1  N         20.3680  -22.8860   -9.4480 N.ar    1  UNL1       -0.3310
      2  C         19.2380  -22.3550  -10.0640 C.ar    1  UNL1        0.0480
      3  C         17.8900  -22.3130   -9.6630 C.2     1  UNL1        0.0300
      4  C         16.9710  -21.6740  -10.5010 C.2     1  UNL1        0.0020
      5  C         17.3730  -21.0950  -11.7010 C.2     1  UNL1        0.0010
      6  C         18.7120  -21.1430  -12.0980 C.2     1  UNL1        0.0160
      7  C         19.6580  -21.7790  -11.2720 C.ar    1  UNL1        0.0220
      8  C         21.0450  -22.0070  -11.3560 C.ar    1  UNL1        0.1030
      9  N         21.8970  -21.6130  -12.3880 N.2     1  UNL1       -0.2400
     10  C         23.1330  -21.9610  -12.1980 C.2     1  UNL1        0.2130
     11  N         23.6520  -22.6520  -11.1120 N.am    1  UNL1       -0.3060
     12  C         22.8320  -23.0930  -10.0760 C.2     1  UNL1        0.2780
     13  O         23.2360  -23.7640   -9.1300 O.2     1  UNL1       -0.2650
     14  C         21.4670  -22.6970  -10.2530 C.ar    1  UNL1        0.1340
     15  C         20.3740  -23.5280   -8.1380 C.3     1  UNL1        0.2320
     16  C         19.5300  -22.8040   -7.1020 C.2     1  UNL1        0.2360
     17  O         19.8650  -21.7110   -6.6480 O.2     1  UNL1       -0.2720
     18  N         18.4250  -23.4910   -6.6360 N.am    1  UNL1       -0.3550
     19  H         18.1730  -24.3840   -7.0590 H       1  UNL1        0.1620
     20  C         17.5400  -22.9550   -5.6100 C.3     1  UNL1        0.0840
     21  C         16.1060  -22.8530   -6.1490 C.3     1  UNL1        0.0250
     22  C         15.1330  -22.3480   -5.0870 C.3     1  UNL1        0.0020
     23  C         15.1860  -23.2090   -3.8250 C.3     1  UNL1        0.0000
     24  C         16.6070  -23.3160   -3.2780 C.3     1  UNL1        0.0020
     25  C         17.5820  -23.8190   -4.3400 C.3     1  UNL1        0.0250
     26  C         25.0680  -23.0060  -11.0800 C.3     1  UNL1        0.1380
     27  C         25.9800  -21.7940  -10.8300 C.3     1  UNL1        0.0590
     28  C         26.4060  -21.1140  -12.1080 C.2     1  UNL1       -0.0570
     29  C         26.4700  -19.7160  -12.1780 C.2     1  UNL1        0.0070
     30  C         26.8260  -19.0830  -13.3670 C.2     1  UNL1        0.0010
     31  C         27.1190  -19.8400  -14.4990 C.2     1  UNL1        0.0000
     32  C         27.0600  -21.2280  -14.4400 C.2     1  UNL1        0.0010
     33  C         26.7080  -21.8650  -13.2510 C.2     1  UNL1        0.0070
@<TRIPOS>BOND
     1    31    32    2
     2    31    30    1
     3    32    33    1
     4    30    29    2
     5    33    28    2
     6     9    10    2
     7     9     8    1
     8    10    11    1
     9    29    28    1
    10    28    27    1
    11     6     5    2
    12     6     7    1
    13     5     4    1
    14     8     7   ar
    15     8    14   ar
    16     7     2   ar
    17    11    26    1
    18    11    12   am
    19    26    27    1
    20     4     3    2
    21    14    12    1
    22    14     1   ar
    23    12    13    2
    24     2     3    1
    25     2     1   ar
    26     1    15    1
    27    15    16    1
    28    16    17    2
    29    16    18   am
    30    19    18    1
    31    18    20    1
    32    21    20    1
    33    21    22    1
    34    20    25    1
    35    22    23    1
    36    25    24    1
    37    23    24    1
