@<TRIPOS>MOLECULE
9562_out_ligand_01.pdbqt
 26 28 0 0 0
SMALL
GASTEIGER

@<TRIPOS>ATOM
      1  N         19.7070  -22.4480   -9.3230 N.am    1  UNL1       -0.3220
      2  C         19.5560  -23.6120   -8.5940 C.2     1  UNL1        0.2570
      3  O         20.2040  -24.6450   -8.6900 O.2     1  UNL1       -0.2670
      4  H         19.1210  -21.6660   -9.0560 H       1  UNL1        0.1690
      5  C         20.6120  -22.2230  -10.3830 C.2     1  UNL1        0.0520
      6  C         21.9080  -22.7290  -10.4340 C.2     1  UNL1        0.0330
      7  C         22.7230  -22.4500  -11.5330 C.2     1  UNL1        0.0390
      8  C         22.2060  -21.6670  -12.5560 C.2     1  UNL1        0.1230
      9  N         20.9460  -21.1520  -12.5510 N.2     1  UNL1       -0.2530
     10  C         20.1900  -21.4460  -11.4660 C.2     1  UNL1        0.1470
     11  C         23.0530  -21.3480  -13.7510 C.2     1  UNL1        0.2680
     12  N         22.6430  -20.2680  -14.4840 N.am    1  UNL1       -0.3650
     13  H         23.1680  -19.9900  -15.3000 H       1  UNL1        0.1590
     14  H         21.8230  -19.7490  -14.1930 H       1  UNL1        0.1590
     15  O         24.0400  -22.0020  -14.0600 O.2     1  UNL1       -0.2660
     16  C         18.5110  -23.5300   -7.5430 C.2     1  UNL1        0.0430
     17  C         17.4580  -24.4520   -7.6490 C.2     1  UNL1        0.0210
     18  C         16.4690  -24.4830   -6.6720 C.2     1  UNL1        0.0440
     19  C         16.5350  -23.5960   -5.6040 C.2     1  UNL1        0.1270
     20  F         15.5730  -23.6590   -4.6700 F       1  UNL1       -0.2050
     21  C         17.5650  -22.6480   -5.4860 C.2     1  UNL1        0.0140
     22  C         17.5980  -21.7520   -4.4020 C.2     1  UNL1        0.0150
     23  C         18.5760  -22.5910   -6.4780 C.2     1  UNL1       -0.0070
     24  C         18.6010  -20.7920   -4.2920 C.2     1  UNL1        0.0010
     25  C         19.5840  -20.7040   -5.2700 C.2     1  UNL1        0.0010
     26  C         19.5690  -21.5880   -6.3510 C.2     1  UNL1        0.0130
@<TRIPOS>BOND
     1    13    12    1
     2    12    14    1
     3    12    11   am
     4    15    11    2
     5    11     8    1
     6     8     9    2
     7     8     7    1
     8     9    10    1
     9     7     6    2
    10    10     5    2
    11     6     5    1
    12     5     1    1
    13     1     4    1
    14     1     2   am
    15     3     2    2
    16     2    16    1
    17    17    16    2
    18    17    18    1
    19    16    23    1
    20    18    19    2
    21    23    26    1
    22    23    21    2
    23    26    25    2
    24    19    21    1
    25    19    20    1
    26    21    22    1
    27    25    24    1
    28    22    24    2
