@<TRIPOS>MOLECULE
9573_out_ligand_01.pdbqt
 29 33 0 0 0
SMALL
GASTEIGER

@<TRIPOS>ATOM
      1  N         19.0640  -23.3990   -9.1150 N.3     1  UNL1        0.0940
      2  C         17.8370  -22.7580   -9.6160 C.3     1  UNL1        0.2740
      3  C         17.1250  -22.2180   -8.3850 C.3     1  UNL1        0.0560
      4  C         17.4240  -23.2700   -7.3220 C.3     1  UNL1        0.0980
      5  C         18.6640  -24.0200   -7.8290 C.3     1  UNL1        0.2970
      6  C         16.2290  -24.2460   -7.1750 C.2     1  UNL1        0.2370
      7  O         15.7110  -24.9210   -8.0490 O.2     1  UNL1       -0.2720
      8  N         15.8240  -24.2140   -5.8470 N.am    1  UNL1       -0.3260
      9  C         16.5830  -23.3260   -5.1060 C.2     1  UNL1        0.0420
     10  C         16.4500  -23.0370   -3.7650 C.2     1  UNL1        0.0300
     11  C         17.3310  -22.1000   -3.2220 C.2     1  UNL1        0.0020
     12  C         18.3080  -21.4850   -4.0250 C.2     1  UNL1        0.0010
     13  C         18.4210  -21.7970   -5.3840 C.2     1  UNL1        0.0110
     14  C         17.5450  -22.7260   -5.9180 C.2     1  UNL1       -0.0120
     15  H         15.0550  -24.7670   -5.4990 H       1  UNL1        0.1690
     16  C         20.1600  -22.4280   -8.9680 C.3     1  UNL1        0.3110
     17  C         20.9290  -22.1960  -10.2550 C.2     1  UNL1       -0.0300
     18  C         20.3870  -21.4080  -11.2820 C.2     1  UNL1        0.0100
     19  C         21.1010  -21.1820  -12.4620 C.2     1  UNL1        0.0170
     20  C         22.3790  -21.7300  -12.6230 C.2     1  UNL1        0.0320
     21  C         22.9220  -22.5220  -11.6050 C.2     1  UNL1        0.0170
     22  C         22.2070  -22.7470  -10.4270 C.2     1  UNL1        0.0100
     23  C         23.1820  -21.5200  -13.8600 C.2     1  UNL1        0.2520
     24  O         22.8950  -20.6080  -14.6290 O.2     1  UNL1       -0.2680
     25  N         24.2060  -22.4220  -14.0840 N.am    1  UNL1       -0.3520
     26  H         24.2680  -23.2500  -13.5060 H       1  UNL1        0.1630
     27  C         25.0270  -22.3590  -15.2520 C.3     1  UNL1        0.0840
     28  C         24.8410  -23.3430  -16.3730 C.3     1  UNL1        0.0270
     29  C         26.0650  -23.4140  -15.5090 C.3     1  UNL1        0.0270
@<TRIPOS>BOND
     1    28    29    1
     2    28    27    1
     3    29    27    1
     4    27    25    1
     5    24    23    2
     6    25    23   am
     7    25    26    1
     8    23    20    1
     9    20    19    2
    10    20    21    1
    11    19    18    1
    12    21    22    2
    13    18    17    2
    14    22    17    1
    15    17    16    1
    16     2     1    1
    17     2     3    1
    18     1    16    1
    19     1     5    1
    20     3     4    1
    21     7     6    2
    22     5     4    1
    23     4     6    1
    24     4    14    1
    25     6     8   am
    26    14    13    1
    27    14     9    2
    28     8    15    1
    29     8     9    1
    30    13    12    2
    31     9    10    1
    32    12    11    1
    33    10    11    2
