@<TRIPOS>MOLECULE
9599_out_ligand_01.pdbqt
 27 28 0 0 0
SMALL
GASTEIGER

@<TRIPOS>ATOM
      1  N         18.0980  -22.5900   -9.1640 N.am    1  UNL1       -0.3270
      2  C         16.7160  -22.6060   -9.2610 C.2     1  UNL1        0.2250
      3  O         16.0430  -22.2060  -10.2080 O.2     1  UNL1       -0.2730
      4  H         18.4870  -22.8370   -8.2600 H       1  UNL1        0.1690
      5  C         19.0270  -22.1770  -10.1400 C.2     1  UNL1        0.0350
      6  C         18.6210  -21.1660  -11.0180 C.2     1  UNL1        0.0290
      7  C         19.4820  -20.7020  -12.0120 C.2     1  UNL1        0.0030
      8  C         20.7630  -21.2380  -12.1320 C.2     1  UNL1        0.0080
      9  C         21.1970  -22.2380  -11.2510 C.2     1  UNL1       -0.0410
     10  C         20.3150  -22.7030  -10.2610 C.2     1  UNL1        0.0370
     11  C         22.5890  -22.8060  -11.3630 C.3     1  UNL1        0.1950
     12  S         23.5320  -22.4880   -9.8600 S.O2    1  UNL1        0.2110
     13  O         23.4030  -23.6240   -8.9740 O.2     1  UNL1       -0.2110
     14  O         23.3150  -21.1400   -9.3880 O.2     1  UNL1       -0.2110
     15  N         25.1310  -22.5330  -10.3690 N.3     1  UNL1       -0.2290
     16  H         25.6250  -23.2760   -9.8720 H       1  UNL1        0.1360
     17  H         25.1700  -22.6190  -11.3860 H       1  UNL1        0.1360
     18  C         16.0490  -23.1480   -8.0010 C.3     1  UNL1        0.1300
     19  C         16.8140  -24.3420   -7.5020 C.2     1  UNL1       -0.0170
     20  C         17.6210  -24.4030   -6.4310 C.2     1  UNL1        0.0080
     21  C         17.8720  -23.2850   -5.5230 C.2     1  UNL1       -0.0340
     22  C         17.3670  -23.2990   -4.2190 C.2     1  UNL1        0.0110
     23  C         17.6270  -22.2350   -3.3500 C.2     1  UNL1        0.0040
     24  C         18.3950  -21.1560   -3.7840 C.2     1  UNL1        0.0420
     25  C         18.8950  -21.1480   -5.0810 C.2     1  UNL1        0.1170
     26  F         19.6520  -20.1210   -5.4890 F       1  UNL1       -0.2060
     27  C         18.6390  -22.1980   -5.9560 C.2     1  UNL1        0.0530
@<TRIPOS>BOND
     1     8     7    2
     2     8     9    1
     3     7     6    1
     4    17    15    1
     5    11     9    1
     6    11    12    1
     7     9    10    2
     8     6     5    2
     9    15    16    1
    10    15    12    1
    11    10     5    1
    12     3     2    2
    13     5     1    1
    14    12    14    2
    15    12    13    2
    16     2     1   am
    17     2    18    1
    18     1     4    1
    19    18    19    1
    20    19    20    2
    21    20    21    1
    22    27    21    2
    23    27    25    1
    24    21    22    1
    25    26    25    1
    26    25    24    2
    27    22    23    2
    28    24    23    1
