@<TRIPOS>MOLECULE
9600_out_ligand_01.pdbqt
 32 35 0 0 0
SMALL
GASTEIGER

@<TRIPOS>ATOM
      1  C         21.6160  -22.9200   -8.7290 C.2     1  UNL1        0.0320
      2  C         21.4460  -22.0140   -7.6800 C.2     1  UNL1        0.0170
      3  C         20.2400  -21.9720   -6.9740 C.2     1  UNL1        0.0110
      4  C         19.1710  -22.8260   -7.3030 C.2     1  UNL1       -0.0210
      5  C         19.3520  -23.7150   -8.3780 C.2     1  UNL1        0.0110
      6  C         20.5590  -23.7600   -9.0880 C.2     1  UNL1        0.0170
      7  C         22.9180  -22.9320   -9.4570 C.2     1  UNL1        0.2560
      8  N         23.0030  -22.0430  -10.5140 N.am    1  UNL1       -0.3230
      9  H         22.1610  -21.5370  -10.7540 H       1  UNL1        0.1690
     10  O         23.7760  -23.7270   -9.0930 O.2     1  UNL1       -0.2670
     11  C         24.1040  -21.8390  -11.3740 C.2     1  UNL1        0.0350
     12  C         25.3440  -21.3560  -10.9540 C.2     1  UNL1        0.0290
     13  C         26.3940  -21.2070  -11.8640 C.2     1  UNL1        0.0030
     14  C         26.2080  -21.5260  -13.2070 C.2     1  UNL1        0.0150
     15  C         24.9650  -21.9810  -13.6550 C.2     1  UNL1        0.0140
     16  C         23.9220  -22.1470  -12.7310 C.2     1  UNL1        0.0440
     17  C         24.7770  -22.2910  -15.0670 C.2     1  UNL1        0.1630
     18  N         24.3100  -21.4690  -15.9880 N.2     1  UNL1       -0.1300
     19  N         24.2750  -22.1350  -17.1910 N.2     1  UNL1       -0.1430
     20  C         24.6950  -23.3580  -16.9770 C.2     1  UNL1        0.2350
     21  N         25.0140  -23.5060  -15.6630 N.pl3   1  UNL1       -0.3270
     22  C         25.4460  -24.7240  -15.0330 C.3     1  UNL1        0.1590
     23  C         17.8680  -22.7560   -6.5080 C.3     1  UNL1        0.1390
     24  C         16.6480  -22.5030   -7.3950 C.3     1  UNL1        0.0540
     25  N         17.9060  -21.7740   -5.4400 N.am    1  UNL1       -0.3210
     26  C         17.7440  -22.3300   -4.1970 C.2     1  UNL1        0.3240
     27  H         17.9400  -20.7710   -5.5610 H       1  UNL1        0.1650
     28  O         17.6890  -21.7020   -3.1560 O.2     1  UNL1       -0.2470
     29  N         17.6360  -23.6700   -4.3320 N.am    1  UNL1       -0.2770
     30  C         17.6400  -24.0250   -5.6460 C.2     1  UNL1        0.2580
     31  H         17.4700  -24.3030   -3.5700 H       1  UNL1        0.1730
     32  O         17.4640  -25.1640   -6.0540 O.2     1  UNL1       -0.2700
@<TRIPOS>BOND
     1    19    20    2
     2    19    18    1
     3    20    21    1
     4    18    17    2
     5    21    17    1
     6    21    22    1
     7    17    15    1
     8    15    14    2
     9    15    16    1
    10    14    13    1
    11    16    11    2
    12    13    12    2
    13    11    12    1
    14    11     8    1
    15     9     8    1
    16     8     7   am
    17     7    10    2
    18     7     1    1
    19     6     1    2
    20     6     5    1
    21     1     2    1
    22     5     4    2
    23     2     3    2
    24    24    23    1
    25     4     3    1
    26     4    23    1
    27    23    30    1
    28    23    25    1
    29    32    30    2
    30    30    29   am
    31    27    25    1
    32    25    26   am
    33    29    26   am
    34    29    31    1
    35    26    28    2
