@<TRIPOS>MOLECULE
9610_out_ligand_01.pdbqt
 28 30 0 0 0
SMALL
GASTEIGER

@<TRIPOS>ATOM
      1  C         21.4640  -21.7680   -7.2790 C.3     1  UNL1        0.0480
      2  C         20.3060  -22.5480   -7.9240 C.3     1  UNL1        0.2510
      3  C         19.1500  -22.8160   -6.9590 C.2     1  UNL1       -0.0250
      4  C         18.7120  -21.7830   -6.1080 C.2     1  UNL1        0.0110
      5  C         17.6570  -21.9850   -5.2150 C.2     1  UNL1        0.0250
      6  C         17.0240  -23.2270   -5.1710 C.2     1  UNL1        0.0740
      7  C         17.4470  -24.2710   -5.9940 C.2     1  UNL1        0.0250
      8  C         18.5040  -24.0610   -6.8850 C.2     1  UNL1        0.0110
      9  S         15.6890  -23.4800   -4.0340 S.O2    1  UNL1        0.2390
     10  O         15.2680  -22.1960   -3.5290 O.2     1  UNL1       -0.2060
     11  O         16.0260  -24.5860   -3.1660 O.2     1  UNL1       -0.2060
     12  N         14.4820  -24.0590   -5.0570 N.3     1  UNL1       -0.2250
     13  H         13.5430  -23.9340   -4.6830 H       1  UNL1        0.1360
     14  H         14.5900  -23.6220   -5.9730 H       1  UNL1        0.1360
     15  N         20.8120  -23.7310   -8.6590 N.3     1  UNL1        0.0970
     16  C         22.2610  -23.6710   -8.8670 C.3     1  UNL1        0.3110
     17  C         20.1080  -24.0150   -9.9210 C.3     1  UNL1        0.3140
     18  C         19.3000  -22.8430  -10.4240 C.2     1  UNL1        0.0060
     19  C         19.8930  -21.8280  -11.1980 C.2     1  UNL1        0.0120
     20  C         19.1400  -20.7440  -11.6810 C.2     1  UNL1        0.0030
     21  C         17.7750  -20.6530  -11.4070 C.2     1  UNL1        0.0400
     22  C         17.2050  -21.6570  -10.6540 C.2     1  UNL1        0.1120
     23  C         17.9410  -22.7230  -10.1780 C.2     1  UNL1        0.1190
     24  O         15.8940  -21.7230  -10.2990 O.2     1  UNL1       -0.2560
     25  O         17.1750  -23.5940   -9.4640 O.2     1  UNL1       -0.2550
     26  C         15.9010  -22.9420   -9.5490 C.3     1  UNL1        0.4980
     27  F         15.4690  -22.6790   -8.2900 F       1  UNL1       -0.1470
     28  F         15.0170  -23.8030  -10.1120 F       1  UNL1       -0.1470
@<TRIPOS>BOND
     1    20    21    2
     2    20    19    1
     3    21    22    1
     4    19    18    2
     5    22    24    1
     6    22    23    2
     7    18    23    1
     8    18    17    1
     9    24    26    1
    10    23    25    1
    11    28    26    1
    12    17    15    1
    13    26    25    1
    14    26    27    1
    15    16    15    1
    16    15     2    1
    17     2     1    1
    18     2     3    1
    19     3     8    2
    20     3     4    1
    21     8     7    1
    22     4     5    2
    23     7     6    2
    24    14    12    1
    25     5     6    1
    26     6     9    1
    27    12    13    1
    28    12     9    1
    29     9    10    2
    30     9    11    2
