@<TRIPOS>MOLECULE
9621_out_ligand_01.pdbqt
 31 36 0 0 0
SMALL
GASTEIGER

@<TRIPOS>ATOM
      1  N         19.7600  -23.6230   -7.7950 N.pl3   1  UNL1       -0.2670
      2  C         20.6480  -22.5070   -7.4410 C.3     1  UNL1        0.0980
      3  C         21.5020  -22.0640   -8.6270 C.3     1  UNL1        0.0270
      4  C         22.2810  -23.2550   -9.1930 C.3     1  UNL1        0.0590
      5  C         21.3240  -24.3800   -9.5950 C.3     1  UNL1        0.0270
      6  C         20.4250  -24.7730   -8.4240 C.3     1  UNL1        0.0980
      7  C         18.5620  -23.2150   -8.3950 C.2     1  UNL1        0.1210
      8  N         18.4910  -23.0870   -9.7470 N.2     1  UNL1       -0.2290
      9  C         17.3530  -22.6430  -10.3120 C.2     1  UNL1        0.2370
     10  N         16.2080  -22.3020   -9.7060 N.2     1  UNL1       -0.2230
     11  C         16.2910  -22.4860   -8.3800 C.ar    1  UNL1        0.1440
     12  N         15.2670  -22.2460   -7.5110 N.ar    1  UNL1       -0.3390
     13  C         17.3850  -22.9380   -7.6600 C.ar    1  UNL1        0.0630
     14  C         15.6400  -22.5690   -6.2280 C.ar    1  UNL1        0.0450
     15  H         14.3620  -21.9040   -7.7940 H       1  UNL1        0.1670
     16  C         16.9600  -23.0250   -6.2900 C.ar    1  UNL1        0.0080
     17  C         14.9110  -22.5040   -5.0350 C.2     1  UNL1        0.0300
     18  C         17.5660  -23.4640   -5.0930 C.2     1  UNL1        0.0150
     19  C         16.8520  -23.4080   -3.8910 C.2     1  UNL1        0.0010
     20  C         15.5450  -22.9300   -3.8650 C.2     1  UNL1        0.0020
     21  C         23.1590  -22.8420  -10.3500 C.2     1  UNL1        0.1300
     22  N         24.4820  -23.0650  -10.2270 N.2     1  UNL1       -0.2450
     23  C         25.2500  -22.7000  -11.2720 C.2     1  UNL1        0.1290
     24  C         24.7580  -22.1280  -12.4260 C.2     1  UNL1        0.0120
     25  C         23.3900  -21.9270  -12.4500 C.2     1  UNL1        0.0470
     26  C         25.6500  -21.6780  -13.5390 C.3     1  UNL1        0.3110
     27  N         22.5790  -22.2800  -11.4280 N.2     1  UNL1       -0.2370
     28  C         22.7380  -21.3430  -13.6730 C.3     1  UNL1        0.0900
     29  C         23.7460  -20.6000  -14.5530 C.3     1  UNL1        0.2760
     30  N         24.9360  -21.4230  -14.7950 N.3     1  UNL1        0.0880
     31  H         25.5600  -20.9420  -15.4410 H       1  UNL1        0.3160
@<TRIPOS>BOND
     1    31    30    1
     2    30    29    1
     3    30    26    1
     4    29    28    1
     5    28    25    1
     6    26    24    1
     7    25    24    1
     8    25    27    2
     9    24    23    2
    10    27    21    1
    11    23    22    1
    12    21    22    2
    13    21     4    1
    14     9     8    1
    15     9    10    2
    16     8     7    2
    17    10    11    1
    18     5     4    1
    19     5     6    1
    20     4     3    1
    21     3     2    1
    22     6     1    1
    23     7     1    1
    24     7    13    1
    25    11    13   ar
    26    11    12   ar
    27     1     2    1
    28    15    12    1
    29    13    16   ar
    30    12    14   ar
    31    16    14   ar
    32    16    18    1
    33    14    17    1
    34    18    19    2
    35    17    20    2
    36    19    20    1
