@<TRIPOS>MOLECULE
9623_out_ligand_01.pdbqt
 30 33 0 0 0
SMALL
GASTEIGER

@<TRIPOS>ATOM
      1  C         23.6320  -22.3920  -12.5470 C.2     1  UNL1        0.0490
      2  C         22.4380  -21.7340  -12.8420 C.2     1  UNL1        0.0220
      3  C         21.4380  -21.6380  -11.8720 C.2     1  UNL1        0.0450
      4  C         21.6310  -22.2100  -10.6140 C.2     1  UNL1        0.1050
      5  N         22.7900  -22.8400  -10.3140 N.2     1  UNL1       -0.2480
      6  C         23.7530  -22.9190  -11.2710 C.2     1  UNL1        0.1350
      7  N         20.6010  -22.1190   -9.6550 N.pl3   1  UNL1       -0.2630
      8  C         20.9430  -22.7710   -8.3850 C.3     1  UNL1        0.1020
      9  C         19.9190  -22.3580   -7.3250 C.3     1  UNL1        0.0550
     10  C         18.4860  -22.5390   -7.7880 C.2     1  UNL1       -0.0350
     11  C         18.2190  -22.6240   -9.1730 C.2     1  UNL1       -0.0370
     12  C         17.4150  -22.5540   -6.8620 C.2     1  UNL1        0.0540
     13  C         16.8960  -22.7760   -9.6130 C.2     1  UNL1        0.0090
     14  C         19.3290  -22.6020  -10.2130 C.3     1  UNL1        0.1360
     15  C         15.8430  -22.8120   -8.7040 C.2     1  UNL1        0.0010
     16  C         16.1010  -22.7000   -7.3410 C.2     1  UNL1        0.0170
     17  C         17.6460  -22.4330   -5.3700 C.3     1  UNL1        0.4180
     18  F         18.5180  -21.4420   -5.0290 F       1  UNL1       -0.1660
     19  F         16.4980  -22.1610   -4.6860 F       1  UNL1       -0.1660
     20  F         18.1530  -23.5700   -4.8150 F       1  UNL1       -0.1660
     21  C         24.6720  -22.5030  -13.6040 C.2     1  UNL1        0.2530
     22  O         25.7950  -22.9070  -13.3060 O.2     1  UNL1       -0.2680
     23  N         24.3430  -22.1340  -14.8950 N.am    1  UNL1       -0.3500
     24  H         23.3760  -22.0220  -15.1650 H       1  UNL1        0.1630
     25  C         25.3020  -22.3290  -15.9820 C.3     1  UNL1        0.1140
     26  C         25.8990  -21.0110  -16.4370 C.3     1  UNL1        0.0570
     27  C         24.8920  -20.5080  -17.4520 C.3     1  UNL1        0.2720
     28  N         24.4000  -21.6980  -18.1520 N.3     1  UNL1        0.0850
     29  C         24.6230  -22.8570  -17.2520 C.3     1  UNL1        0.2940
     30  H         24.9670  -21.8430  -18.9990 H       1  UNL1        0.3150
@<TRIPOS>BOND
     1    30    28    1
     2    28    27    1
     3    28    29    1
     4    27    26    1
     5    29    25    1
     6    26    25    1
     7    25    23    1
     8    24    23    1
     9    23    21   am
    10    21    22    2
    11    21     1    1
    12     2     1    2
    13     2     3    1
    14     1     6    1
    15     3     4    2
    16     6     5    2
    17     4     5    1
    18     4     7    1
    19    14     7    1
    20    14    11    1
    21     7     8    1
    22    13    11    1
    23    13    15    2
    24    11    10    2
    25    15    16    1
    26     8     9    1
    27    10     9    1
    28    10    12    1
    29    16    12    2
    30    12    17    1
    31    17    18    1
    32    17    20    1
    33    17    19    1
