@<TRIPOS>MOLECULE
9628_out_ligand_01.pdbqt
 37 41 0 0 0
SMALL
GASTEIGER

@<TRIPOS>ATOM
      1  C         23.2490  -22.5450  -10.8910 C.2     1  UNL1        0.2110
      2  N         22.8960  -21.7380  -11.9300 N.2     1  UNL1       -0.1220
      3  N         21.6310  -21.3620  -12.0990 N.pl3   1  UNL1       -0.1430
      4  C         20.7340  -21.8400  -11.2010 C.ar    1  UNL1        0.1370
      5  C         19.3300  -21.6930  -11.1020 C.ar    1  UNL1        0.0250
      6  C         18.3590  -21.0220  -11.8730 C.2     1  UNL1        0.0160
      7  C         17.0180  -21.0710  -11.4870 C.2     1  UNL1        0.0010
      8  C         16.6370  -21.7730  -10.3520 C.2     1  UNL1        0.0020
      9  C         17.5780  -22.4550   -9.5770 C.2     1  UNL1        0.0300
     10  C         18.9230  -22.4080   -9.9700 C.ar    1  UNL1        0.0490
     11  N         20.0600  -22.9740   -9.4150 N.ar    1  UNL1       -0.3290
     12  C         21.1590  -22.6440  -10.1610 C.ar    1  UNL1        0.1650
     13  N         22.4290  -23.0310   -9.9400 N.pl3   1  UNL1       -0.2010
     14  S         24.9320  -23.1130  -10.8570 S.3     1  UNL1       -0.0790
     15  C         25.7520  -21.4990  -11.0500 C.3     1  UNL1        0.1850
     16  C         26.2550  -21.3150  -12.4770 C.2     1  UNL1        0.2310
     17  O         27.1200  -22.0520  -12.9380 O.2     1  UNL1       -0.2720
     18  N         25.6340  -20.2700  -13.1400 N.am    1  UNL1       -0.3260
     19  H         24.9670  -19.7060  -12.6070 H       1  UNL1        0.1690
     20  C         25.7870  -19.8510  -14.4820 C.2     1  UNL1        0.0510
     21  C         26.5290  -18.7130  -14.8210 C.2     1  UNL1        0.0300
     22  C         26.6840  -18.3200  -16.1540 C.2     1  UNL1        0.0020
     23  C         26.1020  -19.0600  -17.1750 C.2     1  UNL1        0.0010
     24  C         25.3620  -20.1960  -16.8630 C.2     1  UNL1        0.0200
     25  C         25.1920  -20.6010  -15.5270 C.2     1  UNL1        0.0640
     26  C         24.3590  -21.8240  -15.3360 C.2     1  UNL1        0.1780
     27  O         24.6700  -22.9610  -15.6530 O.2     1  UNL1       -0.6460
     28  O         23.1590  -21.5790  -14.7650 O.3     1  UNL1       -0.7730
     29  H         22.5540  -21.5010  -15.5370 H       1  UNL1        0.1670
     30  C         20.1110  -23.8290   -8.2440 C.3     1  UNL1        0.1350
     31  C         18.7810  -23.9260   -7.4940 C.3     1  UNL1        0.0580
     32  C         18.6590  -22.9180   -6.3770 C.2     1  UNL1       -0.0570
     33  C         19.3950  -21.7260   -6.4130 C.2     1  UNL1        0.0070
     34  C         19.3220  -20.8170   -5.3570 C.2     1  UNL1        0.0010
     35  C         18.5140  -21.0920   -4.2560 C.2     1  UNL1        0.0000
     36  C         17.7750  -22.2690   -4.2130 C.2     1  UNL1        0.0010
     37  C         17.8440  -23.1790   -5.2680 C.2     1  UNL1        0.0070
@<TRIPOS>BOND
     1    23    24    2
     2    23    22    1
     3    24    25    1
     4    22    21    2
     5    27    26    2
     6    29    28    1
     7    25    26    1
     8    25    20    2
     9    26    28    1
    10    21    20    1
    11    20    18    1
    12    18    19    1
    13    18    16   am
    14    17    16    2
    15    16    15    1
    16     3     2    1
    17     3     4    1
    18     2     1    2
    19     6     7    1
    20     6     5    2
    21     7     8    2
    22     4     5   ar
    23     4    12   ar
    24     5    10   ar
    25    15    14    1
    26     1    14    1
    27     1    13    1
    28     8     9    1
    29    12    13    1
    30    12    11   ar
    31    10     9    2
    32    10    11   ar
    33    11    30    1
    34    30    31    1
    35    31    32    1
    36    33    32    2
    37    33    34    1
    38    32    37    1
    39    34    35    2
    40    37    36    2
    41    35    36    1
