@<TRIPOS>MOLECULE
9629_out_ligand_01.pdbqt
 29 32 0 0 0
SMALL
GASTEIGER

@<TRIPOS>ATOM
      1  O         20.4680  -21.9450  -11.0040 O.2     1  UNL1       -0.2670
      2  C         21.4260  -22.4000  -10.3920 C.2     1  UNL1        0.2570
      3  N         21.4410  -22.8800   -9.0970 N.am    1  UNL1       -0.3230
      4  H         22.3430  -23.1110   -8.7030 H       1  UNL1        0.1690
      5  C         20.3400  -23.0290   -8.2290 C.2     1  UNL1        0.0350
      6  C         19.4670  -24.1180   -8.2550 C.2     1  UNL1        0.0320
      7  C         18.4060  -24.1970   -7.3460 C.2     1  UNL1        0.0320
      8  C         18.2190  -23.2010   -6.3890 C.2     1  UNL1        0.0440
      9  C         19.0660  -22.0940   -6.3790 C.2     1  UNL1        0.0320
     10  C         20.1300  -22.0180   -7.2830 C.2     1  UNL1        0.0320
     11  N         17.0650  -23.2970   -5.5410 N.pl3   1  UNL1       -0.2760
     12  C         15.9640  -22.3560   -5.8270 C.3     1  UNL1        0.1420
     13  C         14.6310  -23.0140   -5.4530 C.3     1  UNL1        0.0220
     14  C         14.7380  -24.1360   -4.4110 C.3     1  UNL1        0.0180
     15  C         15.7000  -23.8040   -3.2810 C.3     1  UNL1        0.1630
     16  S         17.3680  -23.5250   -3.8770 S.O2    1  UNL1        0.2330
     17  O         18.1330  -24.7430   -3.7140 O.2     1  UNL1       -0.2050
     18  O         17.8270  -22.2680   -3.3190 O.2     1  UNL1       -0.2050
     19  C         22.7770  -22.4310  -11.0330 C.2     1  UNL1        0.0480
     20  C         23.9760  -22.8830  -10.3310 C.2     1  UNL1        0.0220
     21  C         25.1750  -22.9070  -10.9390 C.2     1  UNL1        0.0540
     22  C         25.2450  -22.4700  -12.3480 C.ar    1  UNL1        0.1580
     23  N         26.2950  -22.4070  -13.1090 N.ar    1  UNL1       -0.1520
     24  N         24.0840  -22.0880  -12.9410 N.ar    1  UNL1       -0.2550
     25  N         25.7950  -21.9470  -14.3060 N.ar    1  UNL1       -0.2260
     26  C         24.4160  -21.7380  -14.2260 C.ar    1  UNL1        0.3480
     27  H         26.3740  -21.7900  -15.1200 H       1  UNL1        0.1940
     28  O         23.6940  -21.3260  -15.1180 O.2     1  UNL1       -0.2450
     29  C         22.8620  -22.0670  -12.3250 C.2     1  UNL1        0.1200
@<TRIPOS>BOND
     1    27    25    1
     2    28    26    2
     3    25    26   ar
     4    25    23   ar
     5    26    24   ar
     6    23    22   ar
     7    24    22   ar
     8    24    29    1
     9    22    21    1
    10    29    19    2
    11    19     2    1
    12    19    20    1
    13     1     2    2
    14    21    20    2
    15     2     3   am
    16     3     4    1
    17     3     5    1
    18     6     5    2
    19     6     7    1
    20     5    10    1
    21     7     8    2
    22    10     9    2
    23     8     9    1
    24     8    11    1
    25    12    11    1
    26    12    13    1
    27    11    16    1
    28    13    14    1
    29    14    15    1
    30    16    17    2
    31    16    18    2
    32    16    15    1
