@<TRIPOS>MOLECULE
9632_out_ligand_01.pdbqt
 29 32 0 0 0
SMALL
GASTEIGER

@<TRIPOS>ATOM
      1  O         19.2730  -20.6910  -11.4500 O.2     1  UNL1       -0.2670
      2  C         19.8160  -21.7150  -11.0510 C.2     1  UNL1        0.2570
      3  N         19.2890  -22.6670  -10.2020 N.am    1  UNL1       -0.3230
      4  H         19.9090  -23.4030   -9.8890 H       1  UNL1        0.1690
      5  C         17.9900  -22.6940   -9.6470 C.2     1  UNL1        0.0370
      6  C         16.8270  -22.9050  -10.3900 C.2     1  UNL1        0.0290
      7  C         15.5780  -22.9260   -9.7600 C.2     1  UNL1        0.0040
      8  C         15.4840  -22.7290   -8.3850 C.2     1  UNL1        0.0300
      9  C         16.6340  -22.4920   -7.6360 C.2     1  UNL1        0.0470
     10  C         17.8860  -22.5050   -8.2620 C.2     1  UNL1        0.0590
     11  N         16.4930  -22.3880   -6.2060 N.pl3   1  UNL1       -0.2760
     12  C         15.1950  -22.8600   -5.6640 C.3     1  UNL1        0.1420
     13  C         14.9560  -22.2360   -4.2900 C.3     1  UNL1        0.0220
     14  C         16.0390  -22.6040   -3.2740 C.3     1  UNL1        0.0180
     15  C         17.4230  -22.1570   -3.7220 C.3     1  UNL1        0.1630
     16  S         17.8580  -22.8720   -5.2960 S.O2    1  UNL1        0.2330
     17  O         19.0280  -22.1840   -5.7990 O.2     1  UNL1       -0.2050
     18  O         17.8340  -24.3150   -5.1700 O.2     1  UNL1       -0.2050
     19  C         21.2320  -21.9940  -11.4510 C.2     1  UNL1        0.0480
     20  C         22.1040  -22.7570  -10.5600 C.2     1  UNL1        0.0220
     21  C         23.3880  -23.0070  -10.8710 C.2     1  UNL1        0.0540
     22  C         23.9030  -22.4710  -12.1480 C.ar    1  UNL1        0.1580
     23  N         25.0970  -22.5960  -12.6410 N.ar    1  UNL1       -0.1520
     24  N         23.0390  -21.7540  -12.9150 N.ar    1  UNL1       -0.2550
     25  N         25.0280  -21.9050  -13.8290 N.ar    1  UNL1       -0.2260
     26  C         23.7530  -21.3700  -14.0220 C.ar    1  UNL1        0.3480
     27  H         25.8140  -21.8150  -14.4580 H       1  UNL1        0.1940
     28  O         23.3760  -20.7120  -14.9780 O.2     1  UNL1       -0.2450
     29  C         21.7330  -21.4960  -12.5960 C.2     1  UNL1        0.1200
@<TRIPOS>BOND
     1    28    26    2
     2    27    25    1
     3    26    25   ar
     4    26    24   ar
     5    25    23   ar
     6    24    29    1
     7    24    22   ar
     8    23    22   ar
     9    29    19    2
    10    22    21    1
    11    19     2    1
    12    19    20    1
    13     1     2    2
    14     2     3   am
    15    21    20    2
    16     6     7    1
    17     6     5    2
    18     3     4    1
    19     3     5    1
    20     7     8    2
    21     5    10    1
    22     8     9    1
    23    10     9    2
    24     9    11    1
    25    11    12    1
    26    11    16    1
    27    17    16    2
    28    12    13    1
    29    16    18    2
    30    16    15    1
    31    13    14    1
    32    15    14    1
