@<TRIPOS>MOLECULE
9647_out_ligand_01.pdbqt
 27 29 0 0 0
SMALL
GASTEIGER

@<TRIPOS>ATOM
      1  N         20.6130  -22.1280   -9.3520 N.am    1  UNL1       -0.3220
      2  C         20.3380  -23.2240   -8.5510 C.2     1  UNL1        0.2560
      3  O         20.7090  -24.3760   -8.7340 O.2     1  UNL1       -0.2670
      4  H         20.0620  -21.3010   -9.1750 H       1  UNL1        0.1690
      5  C         21.4810  -22.0730  -10.4690 C.2     1  UNL1        0.0420
      6  C         22.7960  -22.5500  -10.4180 C.2     1  UNL1        0.0470
      7  C         23.6300  -22.4800  -11.5420 C.2     1  UNL1        0.0340
      8  C         23.1610  -21.9100  -12.7250 C.2     1  UNL1        0.0170
      9  C         21.8580  -21.4180  -12.7850 C.2     1  UNL1        0.0100
     10  C         21.0070  -21.4910  -11.6680 C.2     1  UNL1       -0.0350
     11  C         19.6120  -20.9410  -11.8010 C.3     1  UNL1        0.0500
     12  C         25.0200  -22.9900  -11.4350 C.2     1  UNL1        0.2490
     13  N         25.4260  -23.4270  -10.2030 N.am    1  UNL1       -0.3660
     14  H         24.9420  -23.1430   -9.3630 H       1  UNL1        0.1590
     15  H         26.4160  -23.6260  -10.1220 H       1  UNL1        0.1590
     16  O         25.7870  -23.0010  -12.3890 O.2     1  UNL1       -0.2680
     17  C         19.4420  -22.9420   -7.3940 C.2     1  UNL1        0.0350
     18  C         19.6060  -21.8010   -6.5960 C.2     1  UNL1        0.0200
     19  C         18.7510  -21.5800   -5.5140 C.2     1  UNL1        0.0400
     20  C         17.7240  -22.4830   -5.2340 C.2     1  UNL1        0.1020
     21  C         17.5730  -23.6320   -6.0140 C.2     1  UNL1        0.1030
     22  O         16.9830  -22.2300   -4.1130 O.2     1  UNL1       -0.3480
     23  C         18.4410  -23.8700   -7.0810 C.2     1  UNL1        0.0560
     24  O         16.6730  -24.6210   -5.7270 O.2     1  UNL1       -0.3480
     25  C         15.3220  -24.1660   -5.7900 C.3     1  UNL1        0.1780
     26  C         14.9020  -23.4520   -4.5150 C.3     1  UNL1        0.0530
     27  C         15.5900  -22.1020   -4.3950 C.3     1  UNL1        0.1780
@<TRIPOS>BOND
     1     9     8    2
     2     9    10    1
     3     8     7    1
     4    16    12    2
     5    11    10    1
     6    10     5    2
     7     7    12    1
     8     7     6    2
     9    12    13   am
    10     5     6    1
    11     5     1    1
    12    13    15    1
    13    13    14    1
    14     1     4    1
    15     1     2   am
    16     3     2    2
    17     2    17    1
    18    17    23    2
    19    17    18    1
    20    23    21    1
    21    18    19    2
    22    21    24    1
    23    21    20    2
    24    25    24    1
    25    25    26    1
    26    19    20    1
    27    20    22    1
    28    26    27    1
    29    27    22    1
