@<TRIPOS>MOLECULE
9649_out_ligand_01.pdbqt
 30 34 0 0 0
SMALL
GASTEIGER

@<TRIPOS>ATOM
      1  C         18.1960  -23.1270  -10.4860 C.3     1  UNL1        0.1350
      2  C         17.5660  -22.0720  -11.4270 C.3     1  UNL1        0.0320
      3  C         18.1410  -20.6580  -11.2020 C.3     1  UNL1        0.0070
      4  C         19.6650  -20.5990  -11.4250 C.3     1  UNL1        0.0420
      5  C         20.3490  -21.7720  -10.8050 C.ar    1  UNL1       -0.0210
      6  C         19.6660  -22.9060  -10.4140 C.ar    1  UNL1        0.0400
      7  N         20.5710  -23.8110   -9.9310 N.ar    1  UNL1       -0.3570
      8  C         21.8400  -23.2710   -9.9790 C.ar    1  UNL1        0.0430
      9  C         23.0650  -23.8210   -9.5840 C.2     1  UNL1        0.0330
     10  C         24.2100  -23.0380   -9.7590 C.2     1  UNL1        0.0440
     11  C         24.1170  -21.7640  -10.3080 C.2     1  UNL1        0.1170
     12  F         25.2320  -21.0390  -10.4640 F       1  UNL1       -0.2060
     13  C         22.8940  -21.2210  -10.7000 C.2     1  UNL1        0.0560
     14  C         21.7270  -21.9890  -10.5300 C.ar    1  UNL1        0.0020
     15  H         20.3480  -24.7330   -9.5790 H       1  UNL1        0.1660
     16  N         17.7000  -22.9870   -9.1330 N.am    1  UNL1       -0.3470
     17  C         16.4170  -23.3370   -8.7980 C.2     1  UNL1        0.2530
     18  O         15.6380  -23.8860   -9.5670 O.2     1  UNL1       -0.2680
     19  H         18.3060  -22.5440   -8.4570 H       1  UNL1        0.1630
     20  C         16.0430  -23.0300   -7.3870 C.2     1  UNL1        0.0480
     21  C         14.6950  -23.2260   -6.8570 C.2     1  UNL1        0.0220
     22  C         14.3980  -22.9440   -5.5750 C.2     1  UNL1        0.0540
     23  C         15.4830  -22.4400   -4.7090 C.ar    1  UNL1        0.1580
     24  N         15.4100  -22.1040   -3.4580 N.ar    1  UNL1       -0.1520
     25  N         16.7150  -22.3090   -5.2660 N.ar    1  UNL1       -0.2550
     26  N         16.6950  -21.7180   -3.1530 N.ar    1  UNL1       -0.2260
     27  C         17.5290  -21.8350   -4.2680 C.ar    1  UNL1        0.3480
     28  H         16.9690  -21.3940   -2.2370 H       1  UNL1        0.1940
     29  O         18.7160  -21.5600   -4.3140 O.2     1  UNL1       -0.2450
     30  C         17.0190  -22.5980   -6.5690 C.2     1  UNL1        0.1200
@<TRIPOS>BOND
     1     2     3    1
     2     2     1    1
     3     4     3    1
     4     4     5    1
     5     5    14   ar
     6     5     6   ar
     7    13    14    1
     8    13    11    2
     9    14     8   ar
    10     1     6    1
    11     1    16    1
    12    12    11    1
    13     6     7   ar
    14    11    10    1
    15     8     7   ar
    16     8     9    1
    17     7    15    1
    18    10     9    2
    19    18    17    2
    20    16    17   am
    21    16    19    1
    22    17    20    1
    23    20    21    1
    24    20    30    2
    25    21    22    2
    26    30    25    1
    27    22    23    1
    28    25    23   ar
    29    25    27   ar
    30    23    24   ar
    31    29    27    2
    32    27    26   ar
    33    24    26   ar
    34    26    28    1
