@<TRIPOS>MOLECULE
9660_out_ligand_01.pdbqt
 28 31 0 0 0
SMALL
GASTEIGER

@<TRIPOS>ATOM
      1  O         20.1540  -21.9540  -10.9360 O.2     1  UNL1       -0.2670
      2  C         21.1700  -22.1250  -10.2740 C.2     1  UNL1        0.2570
      3  N         21.2510  -22.4830   -8.9430 N.am    1  UNL1       -0.3230
      4  H         22.1680  -22.4600   -8.5160 H       1  UNL1        0.1690
      5  C         20.1850  -22.8190   -8.0830 C.2     1  UNL1        0.0350
      6  C         19.8510  -21.8920   -7.0870 C.2     1  UNL1        0.0320
      7  C         18.8120  -22.1530   -6.1870 C.2     1  UNL1        0.0320
      8  C         18.0910  -23.3430   -6.2820 C.2     1  UNL1        0.0440
      9  C         18.4370  -24.2810   -7.2510 C.2     1  UNL1        0.0320
     10  C         19.4720  -24.0180   -8.1550 C.2     1  UNL1        0.0320
     11  N         17.0560  -23.6780   -5.3570 N.pl3   1  UNL1       -0.2760
     12  C         15.6860  -23.1510   -5.5790 C.3     1  UNL1        0.1420
     13  C         15.1830  -22.5880   -4.2480 C.3     1  UNL1        0.0380
     14  C         15.8100  -23.4350   -3.1530 C.3     1  UNL1        0.1650
     15  S         17.4930  -23.6230   -3.6960 S.O2    1  UNL1        0.2330
     16  O         18.1870  -22.3830   -3.4190 O.2     1  UNL1       -0.2050
     17  O         18.0060  -24.9120   -3.2950 O.2     1  UNL1       -0.2050
     18  C         22.5120  -21.8890  -10.8880 C.2     1  UNL1        0.0480
     19  C         23.7250  -21.7130  -10.0930 C.2     1  UNL1        0.0220
     20  C         24.9210  -21.5110  -10.6750 C.2     1  UNL1        0.0540
     21  C         24.9750  -21.4800  -12.1510 C.ar    1  UNL1        0.1580
     22  N         26.0140  -21.2890  -12.9040 N.ar    1  UNL1       -0.1520
     23  N         23.8080  -21.6750  -12.8220 N.ar    1  UNL1       -0.2550
     24  N         25.5050  -21.3650  -14.1800 N.ar    1  UNL1       -0.2260
     25  C         24.1270  -21.6040  -14.1550 C.ar    1  UNL1        0.3480
     26  H         26.0750  -21.2570  -15.0080 H       1  UNL1        0.1940
     27  O         23.3950  -21.7110  -15.1250 O.2     1  UNL1       -0.2450
     28  C         22.5920  -21.8870  -12.2310 C.2     1  UNL1        0.1200
@<TRIPOS>BOND
     1    27    25    2
     2    26    24    1
     3    24    25   ar
     4    24    22   ar
     5    25    23   ar
     6    22    21   ar
     7    23    28    1
     8    23    21   ar
     9    28    18    2
    10    21    20    1
    11     1     2    2
    12    18     2    1
    13    18    19    1
    14    20    19    2
    15     2     3   am
    16     3     4    1
    17     3     5    1
    18    10     5    2
    19    10     9    1
    20     5     6    1
    21     9     8    2
    22     6     7    2
    23     8     7    1
    24     8    11    1
    25    12    11    1
    26    12    13    1
    27    11    15    1
    28    13    14    1
    29    15    16    2
    30    15    17    2
    31    15    14    1
