@<TRIPOS>MOLECULE
9697_out_ligand_01.pdbqt
 32 37 0 0 0
SMALL
GASTEIGER

@<TRIPOS>ATOM
      1  C         23.3070  -23.0370  -10.1670 C.ar    1  UNL1        0.0610
      2  C         22.0100  -22.5570  -10.0800 C.ar    1  UNL1        0.1010
      3  S         21.5310  -21.8280  -11.5590 S.2     1  UNL1       -0.0620
      4  C         23.0260  -22.1600  -12.2950 C.ar    1  UNL1        0.1110
      5  N         23.2520  -21.7900  -13.5720 N.2     1  UNL1       -0.2400
      6  C         24.4720  -22.1030  -14.0610 C.2     1  UNL1        0.0690
      7  C         25.4490  -22.7490  -13.3030 C.2     1  UNL1        0.0330
      8  C         25.1780  -23.1140  -11.9820 C.2     1  UNL1        0.0190
      9  C         23.9090  -22.8150  -11.4490 C.ar    1  UNL1        0.0280
     10  C         21.1030  -22.6330   -8.9370 C.2     1  UNL1        0.2610
     11  O         21.4860  -22.4720   -7.7790 O.2     1  UNL1       -0.2670
     12  N         19.7820  -22.9020   -9.2400 N.am    1  UNL1       -0.3470
     13  H         19.5620  -23.0200  -10.2220 H       1  UNL1        0.1630
     14  C         18.6890  -23.0290   -8.2730 C.3     1  UNL1        0.0340
     15  C         18.7780  -24.4330   -7.6140 C.3     1  UNL1        0.0350
     16  C         17.6550  -24.6330   -6.5850 C.3     1  UNL1       -0.0120
     17  C         17.7750  -23.5580   -5.4930 C.3     1  UNL1        0.0090
     18  C         16.2960  -24.4950   -7.2880 C.3     1  UNL1        0.0090
     19  C         17.6620  -22.1590   -6.1200 C.3     1  UNL1       -0.0120
     20  C         16.3050  -22.0300   -6.8310 C.3     1  UNL1        0.0090
     21  C         18.7920  -21.9700   -7.1470 C.3     1  UNL1        0.0350
     22  C         16.1750  -23.1010   -7.9260 C.3     1  UNL1       -0.0120
     23  C         17.3030  -22.9130   -8.9560 C.3     1  UNL1        0.0350
     24  N         23.9440  -23.6500   -9.1430 N.pl3   1  UNL1       -0.3970
     25  H         23.7830  -24.6480   -8.9770 H       1  UNL1        0.1560
     26  H         24.8320  -23.3230   -8.7770 H       1  UNL1        0.1560
     27  C         24.7020  -21.6980  -15.4610 C.2     1  UNL1        0.0100
     28  C         25.2790  -20.4700  -15.8220 C.2     1  UNL1        0.0170
     29  C         25.4680  -20.1390  -17.1640 C.2     1  UNL1        0.0200
     30  C         25.0760  -21.0500  -18.1290 C.2     1  UNL1        0.1160
     31  N         24.5250  -22.2440  -17.8400 N.2     1  UNL1       -0.2720
     32  C         24.3600  -22.5370  -16.5240 C.2     1  UNL1        0.1300
@<TRIPOS>BOND
     1    30    31    2
     2    30    29    1
     3    31    32    1
     4    29    28    2
     5    32    27    2
     6    28    27    1
     7    27     6    1
     8     6     5    1
     9     6     7    2
    10     5     4    2
    11     7     8    1
    12     4     3   ar
    13     4     9   ar
    14     8     9    2
    15     3     2   ar
    16     9     1   ar
    17    13    12    1
    18     1     2   ar
    19     1    24    1
    20     2    10    1
    21    12    10   am
    22    12    14    1
    23    24    25    1
    24    24    26    1
    25    23    14    1
    26    23    22    1
    27    10    11    2
    28    14    15    1
    29    14    21    1
    30    22    18    1
    31    22    20    1
    32    15    16    1
    33    18    16    1
    34    21    19    1
    35    20    19    1
    36    16    17    1
    37    19    17    1
