@<TRIPOS>MOLECULE
9706_out_ligand_01.pdbqt
 32 35 0 0 0
SMALL
GASTEIGER

@<TRIPOS>ATOM
      1  C         26.7990  -24.0320  -10.3040 C.3     1  UNL1        0.1630
      2  N         25.8400  -23.3830  -11.1760 N.ar    1  UNL1       -0.2860
      3  C         26.0840  -23.2640  -12.5400 C.ar    1  UNL1        0.3300
      4  O         27.1000  -23.6800  -13.0980 O.2     1  UNL1       -0.2460
      5  N         25.1150  -22.6370  -13.3010 N.ar    1  UNL1       -0.2730
      6  C         23.9160  -22.1190  -12.8640 C.ar    1  UNL1        0.2800
      7  O         23.1120  -21.5930  -13.6260 O.2     1  UNL1       -0.2650
      8  C         23.7330  -22.2760  -11.4640 C.ar    1  UNL1        0.1660
      9  C         24.6600  -22.8820  -10.6690 C.ar    1  UNL1        0.1860
     10  N         24.2710  -22.9120   -9.3710 N.ar    1  UNL1       -0.0420
     11  C         23.0750  -22.3450   -9.3480 C.ar    1  UNL1        0.7250
     12  N         22.7210  -21.9100  -10.6170 N.ar    1  UNL1       -0.1700
     13  H         25.3090  -22.5640  -14.2880 H       1  UNL1        0.1730
     14  N         22.2500  -22.1660   -8.2750 N.pl3   1  UNL1       -0.1070
     15  H         22.2460  -21.2250   -7.8760 H       1  UNL1        0.2080
     16  N         21.0240  -22.7670   -8.1320 N.2     1  UNL1       -0.1720
     17  C         20.2240  -22.2260   -7.2670 C.2     1  UNL1        0.1500
     18  C         18.8890  -22.7880   -6.9860 C.2     1  UNL1       -0.0170
     19  C         18.6480  -24.1630   -7.1060 C.2     1  UNL1        0.0160
     20  C         17.3750  -24.6680   -6.8350 C.2     1  UNL1        0.0430
     21  C         16.3600  -23.8000   -6.4450 C.2     1  UNL1        0.1160
     22  F         15.1410  -24.2870   -6.1850 F       1  UNL1       -0.2060
     23  C         16.5920  -22.4330   -6.3200 C.2     1  UNL1        0.0430
     24  C         17.8630  -21.9220   -6.5910 C.2     1  UNL1        0.0160
     25  C         21.5560  -21.1240  -10.9910 C.3     1  UNL1        0.1530
     26  C         20.5410  -21.8940  -11.8380 C.3     1  UNL1        0.0590
     27  C         19.1420  -21.8170  -11.2750 C.2     1  UNL1       -0.0570
     28  C         18.3650  -20.6660  -11.4560 C.2     1  UNL1        0.0070
     29  C         17.0520  -20.6210  -10.9840 C.2     1  UNL1        0.0010
     30  C         16.5080  -21.7220  -10.3250 C.2     1  UNL1        0.0000
     31  C         17.2760  -22.8680  -10.1340 C.2     1  UNL1        0.0010
     32  C         18.5870  -22.9180  -10.6080 C.2     1  UNL1        0.0070
@<TRIPOS>BOND
     1    13     5    1
     2     7     6    2
     3     5     6   ar
     4     5     3   ar
     5     4     3    2
     6     6     8   ar
     7     3     2   ar
     8    26    27    1
     9    26    25    1
    10     8     9   ar
    11     8    12   ar
    12    28    27    2
    13    28    29    1
    14    27    32    1
    15     2     9   ar
    16     2     1    1
    17    25    12    1
    18    29    30    2
    19     9    10   ar
    20    12    11   ar
    21    32    31    2
    22    30    31    1
    23    10    11   ar
    24    11    14    1
    25    14    16    1
    26    14    15    1
    27    16    17    2
    28    17    18    1
    29    19    18    2
    30    19    20    1
    31    18    24    1
    32    20    21    2
    33    24    23    2
    34    21    23    1
    35    21    22    1
