@<TRIPOS>MOLECULE
9712_out_ligand_01.pdbqt
 31 34 0 0 0
SMALL
GASTEIGER

@<TRIPOS>ATOM
      1  N         23.5180  -21.9750  -11.6110 N.ar    1  UNL1       -0.1660
      2  C         24.1680  -21.7300  -10.4080 C.ar    1  UNL1        0.7260
      3  N         25.1790  -20.8960  -10.5920 N.ar    1  UNL1       -0.0420
      4  C         25.1650  -20.5940  -11.9130 C.ar    1  UNL1        0.1860
      5  C         24.1420  -21.2130  -12.5670 C.ar    1  UNL1        0.1670
      6  C         23.8960  -21.0190  -13.9530 C.ar    1  UNL1        0.2800
      7  O         22.9500  -21.4830  -14.5800 O.2     1  UNL1       -0.2650
      8  N         24.8340  -20.2030  -14.5440 N.ar    1  UNL1       -0.2730
      9  C         25.8810  -19.5430  -13.9270 C.ar    1  UNL1        0.3300
     10  O         26.6000  -18.8060  -14.6020 O.2     1  UNL1       -0.2460
     11  N         26.0450  -19.7540  -12.5630 N.ar    1  UNL1       -0.2860
     12  C         27.1210  -19.1110  -11.8350 C.3     1  UNL1        0.1630
     13  H         24.7160  -20.0170  -15.5270 H       1  UNL1        0.1730
     14  N         23.7600  -22.3020   -9.2370 N.pl3   1  UNL1       -0.1070
     15  H         24.4560  -22.8060   -8.6920 H       1  UNL1        0.2080
     16  N         22.7580  -21.8190   -8.4370 N.2     1  UNL1       -0.1720
     17  C         21.8140  -22.6570   -8.1330 C.2     1  UNL1        0.1500
     18  C         20.6560  -22.2620   -7.3080 C.2     1  UNL1       -0.0170
     19  C         20.7070  -21.1330   -6.4860 C.2     1  UNL1        0.0130
     20  C         19.5960  -20.7850   -5.7150 C.2     1  UNL1        0.0010
     21  C         18.4390  -21.5620   -5.7680 C.2     1  UNL1        0.0000
     22  C         18.3870  -22.6890   -6.5900 C.2     1  UNL1        0.0010
     23  C         19.4950  -23.0410   -7.3630 C.2     1  UNL1        0.0130
     24  C         22.3730  -22.8420  -11.8360 C.3     1  UNL1        0.1860
     25  C         21.0640  -22.1280  -11.5980 C.2     1  UNL1       -0.0390
     26  C         20.8990  -20.7690  -11.9070 C.2     1  UNL1        0.0090
     27  C         19.6780  -20.1340  -11.6820 C.2     1  UNL1        0.0010
     28  C         18.6030  -20.8460  -11.1520 C.2     1  UNL1        0.0070
     29  C         18.7360  -22.2030  -10.8500 C.2     1  UNL1       -0.0610
     30  C         17.5950  -22.9640  -10.2420 C.3     1  UNL1        0.0480
     31  C         19.9700  -22.8330  -11.0660 C.2     1  UNL1        0.0150
@<TRIPOS>BOND
     1    13     8    1
     2    10     9    2
     3     7     6    2
     4     8     6   ar
     5     8     9   ar
     6     6     5   ar
     7     9    11   ar
     8     5     4   ar
     9     5     1   ar
    10    11     4   ar
    11    11    12    1
    12     4     3   ar
    13    26    27    1
    14    26    25    2
    15    24     1    1
    16    24    25    1
    17    27    28    2
    18     1     2   ar
    19    25    31    1
    20    28    29    1
    21    31    29    2
    22    29    30    1
    23     3     2   ar
    24     2    14    1
    25    14    15    1
    26    14    16    1
    27    16    17    2
    28    17    18    1
    29    23    18    2
    30    23    22    1
    31    18    19    1
    32    22    21    2
    33    19    20    2
    34    21    20    1
