@<TRIPOS>MOLECULE
9718_out_ligand_01.pdbqt
 31 33 0 0 0
SMALL
GASTEIGER

@<TRIPOS>ATOM
      1  S         21.5890  -23.2670   -8.9460 S.O2    1  UNL1        0.2610
      2  O         22.3170  -24.5060   -8.7850 O.2     1  UNL1       -0.2000
      3  O         21.7340  -22.1820   -8.0020 O.2     1  UNL1       -0.2000
      4  C         21.9360  -22.6220  -10.5590 C.2     1  UNL1        0.1130
      5  C         23.1390  -22.9610  -11.1900 C.2     1  UNL1        0.0450
      6  C         23.4290  -22.4420  -12.4580 C.2     1  UNL1        0.0330
      7  C         22.5010  -21.6090  -13.0980 C.2     1  UNL1        0.0200
      8  C         21.3000  -21.2780  -12.4650 C.2     1  UNL1        0.0390
      9  C         21.0250  -21.7670  -11.1860 C.2     1  UNL1        0.0920
     10  C         24.7080  -22.8310  -13.1040 C.2     1  UNL1        0.2490
     11  N         25.1430  -24.1140  -12.9180 N.am    1  UNL1       -0.3660
     12  H         25.9470  -24.3860  -13.4720 H       1  UNL1        0.1590
     13  H         24.5300  -24.8520  -12.6030 H       1  UNL1        0.1590
     14  O         25.3360  -22.0490  -13.8030 O.2     1  UNL1       -0.2680
     15  O         19.8160  -21.4850  -10.6080 O.2     1  UNL1       -0.3500
     16  C         19.0430  -20.6030  -11.4330 C.3     1  UNL1        0.1710
     17  C         17.7150  -21.2790  -11.7210 C.3     1  UNL1        0.0340
     18  N         19.9510  -23.6490   -9.0290 N.3     1  UNL1       -0.3140
     19  H         19.7140  -24.0230   -9.9490 H       1  UNL1        0.1720
     20  C         19.3270  -24.3130   -7.8690 C.3     1  UNL1        0.1460
     21  C         17.9590  -23.6870   -7.4920 C.3     1  UNL1        0.0030
     22  C         17.3350  -22.9190   -8.6860 C.3     1  UNL1        0.0160
     23  C         15.8540  -22.7700   -8.3340 C.3     1  UNL1        0.0010
     24  C         15.5350  -23.9330   -7.3960 C.3     1  UNL1        0.0010
     25  C         16.8340  -24.7310   -7.2690 C.3     1  UNL1        0.0160
     26  C         18.1900  -22.8340   -6.2230 C.2     1  UNL1       -0.0480
     27  C         17.6880  -23.2000   -4.9630 C.2     1  UNL1        0.0080
     28  C         17.8910  -22.3940   -3.8380 C.2     1  UNL1        0.0010
     29  C         18.5900  -21.1960   -3.9490 C.2     1  UNL1        0.0000
     30  C         19.0800  -20.8000   -5.1860 C.2     1  UNL1        0.0010
     31  C         18.8760  -21.6050   -6.3100 C.2     1  UNL1        0.0080
@<TRIPOS>BOND
     1    14    10    2
     2    12    11    1
     3    10    11   am
     4    10     6    1
     5     7     8    1
     6     7     6    2
     7    11    13    1
     8     8     9    2
     9     6     5    1
    10    17    16    1
    11    16    15    1
    12     5     4    2
    13     9    15    1
    14     9     4    1
    15     4     1    1
    16    19    18    1
    17    18     1    1
    18    18    20    1
    19     1     2    2
    20     1     3    2
    21    22    23    1
    22    22    21    1
    23    23    24    1
    24    20    21    1
    25    21    25    1
    26    21    26    1
    27    24    25    1
    28    31    26    2
    29    31    30    1
    30    26    27    1
    31    30    29    2
    32    27    28    2
    33    29    28    1
