@<TRIPOS>MOLECULE
9734_out_ligand_01.pdbqt
 33 36 0 0 0
SMALL
GASTEIGER

@<TRIPOS>ATOM
      1  C         23.9840  -21.7590  -10.3450 C.ar    1  UNL1        0.7260
      2  N         25.0670  -21.0300  -10.5240 N.ar    1  UNL1       -0.0420
      3  C         25.0550  -20.6980  -11.8360 C.ar    1  UNL1        0.1860
      4  C         23.9880  -21.2390  -12.4930 C.ar    1  UNL1        0.1670
      5  C         23.7720  -21.0250  -13.8810 C.ar    1  UNL1        0.2800
      6  O         22.8390  -21.4750  -14.5380 O.2     1  UNL1       -0.2650
      7  N         24.7420  -20.2290  -14.4520 N.ar    1  UNL1       -0.2730
      8  C         25.8410  -19.6630  -13.8310 C.ar    1  UNL1        0.3300
      9  O         26.6110  -18.9700  -14.4990 O.2     1  UNL1       -0.2460
     10  N         25.9960  -19.9190  -12.4760 N.ar    1  UNL1       -0.2860
     11  C         27.1210  -19.3710  -11.7400 C.3     1  UNL1        0.1630
     12  N         23.3200  -21.9710  -11.5420 N.ar    1  UNL1       -0.1660
     13  H         24.6480  -20.0370  -15.4360 H       1  UNL1        0.1730
     14  N         23.6170  -22.3200   -9.1650 N.pl3   1  UNL1       -0.1070
     15  H         24.4290  -22.4240   -8.5350 H       1  UNL1        0.2080
     16  N         22.4670  -22.1240   -8.4430 N.2     1  UNL1       -0.1720
     17  C         21.6430  -23.1040   -8.2700 C.2     1  UNL1        0.1500
     18  C         20.3660  -22.9130   -7.5560 C.2     1  UNL1       -0.0170
     19  C         19.4040  -23.9240   -7.5930 C.2     1  UNL1        0.0150
     20  C         18.1820  -23.7310   -6.9490 C.2     1  UNL1        0.0370
     21  C         17.9110  -22.5370   -6.2740 C.2     1  UNL1        0.0680
     22  C         18.8930  -21.5460   -6.2150 C.2     1  UNL1        0.0370
     23  C         20.1190  -21.7340   -6.8530 C.2     1  UNL1        0.0150
     24  O         16.6660  -22.4630   -5.7090 O.2     1  UNL1       -0.3560
     25  C         15.5590  -22.4350   -6.5980 C.3     1  UNL1        0.2100
     26  C         22.1860  -22.8490  -11.7700 C.3     1  UNL1        0.1860
     27  C         20.8710  -22.1370  -11.5640 C.2     1  UNL1       -0.0390
     28  C         20.7360  -20.7830  -11.9020 C.2     1  UNL1        0.0090
     29  C         19.5210  -20.1230  -11.7210 C.2     1  UNL1        0.0010
     30  C         18.4270  -20.8060  -11.1910 C.2     1  UNL1        0.0070
     31  C         18.5430  -22.1520  -10.8250 C.2     1  UNL1       -0.0610
     32  C         17.3700  -22.9110  -10.2770 C.3     1  UNL1        0.0480
     33  C         19.7640  -22.8120  -11.0260 C.2     1  UNL1        0.0150
@<TRIPOS>BOND
     1    13     7    1
     2     6     5    2
     3     9     8    2
     4     7     5   ar
     5     7     8   ar
     6     5     4   ar
     7     8    10   ar
     8     4     3   ar
     9     4    12   ar
    10    10     3   ar
    11    10    11    1
    12    28    29    1
    13    28    27    2
    14     3     2   ar
    15    26    27    1
    16    26    12    1
    17    29    30    2
    18    27    33    1
    19    12     1   ar
    20    30    31    1
    21    33    31    2
    22    31    32    1
    23     2     1   ar
    24     1    14    1
    25    14    15    1
    26    14    16    1
    27    16    17    2
    28    17    18    1
    29    19    18    2
    30    19    20    1
    31    18    23    1
    32    20    21    2
    33    23    22    2
    34    25    24    1
    35    21    22    1
    36    21    24    1
