@<TRIPOS>MOLECULE
9736_out_ligand_01.pdbqt
 32 35 0 0 0
SMALL
GASTEIGER

@<TRIPOS>ATOM
      1  N         23.6710  -22.0560  -11.7830 N.ar    1  UNL1       -0.1660
      2  C         24.2990  -21.8770  -10.5590 C.ar    1  UNL1        0.7260
      3  N         25.2390  -20.9510  -10.6500 N.ar    1  UNL1       -0.0420
      4  C         25.2550  -20.5810  -11.9540 C.ar    1  UNL1        0.1860
      5  C         24.3070  -21.2380  -12.6830 C.ar    1  UNL1        0.1670
      6  C         24.1310  -21.0130  -14.0750 C.ar    1  UNL1        0.2800
      7  O         23.3130  -21.5830  -14.7870 O.2     1  UNL1       -0.2650
      8  N         24.9990  -20.0670  -14.5720 N.ar    1  UNL1       -0.2730
      9  C         25.9800  -19.3810  -13.8790 C.ar    1  UNL1        0.3300
     10  O         26.6840  -18.5760  -14.4890 O.2     1  UNL1       -0.2460
     11  N         26.1020  -19.6530  -12.5220 N.ar    1  UNL1       -0.2860
     12  C         27.1070  -18.9850  -11.7190 C.3     1  UNL1        0.1630
     13  H         24.9310  -19.8620  -15.5570 H       1  UNL1        0.1730
     14  N         23.9220  -22.5870   -9.4570 N.pl3   1  UNL1       -0.1070
     15  H         24.6860  -22.8690   -8.8420 H       1  UNL1        0.2080
     16  N         22.7750  -22.3560   -8.7380 N.2     1  UNL1       -0.1720
     17  C         21.9360  -23.3430   -8.6730 C.2     1  UNL1        0.1500
     18  C         20.6470  -23.2220   -7.9630 C.2     1  UNL1       -0.0170
     19  C         20.3810  -22.0500   -7.2480 C.2     1  UNL1        0.0140
     20  C         19.1670  -21.9120   -6.5690 C.2     1  UNL1        0.0200
     21  C         18.2290  -22.9440   -6.6100 C.2     1  UNL1        0.0110
     22 BR         16.5880  -22.7550   -5.6920 Br      1  UNL1       -0.0510
     23  C         18.4920  -24.1150   -7.3220 C.2     1  UNL1        0.0200
     24  C         19.7050  -24.2550   -8.0000 C.2     1  UNL1        0.0140
     25  C         22.4740  -22.8470  -12.0340 C.3     1  UNL1        0.1860
     26  C         21.2040  -22.0750  -11.7710 C.2     1  UNL1       -0.0390
     27  C         21.1510  -20.6960  -12.0170 C.2     1  UNL1        0.0090
     28  C         19.9820  -19.9770  -11.7700 C.2     1  UNL1        0.0010
     29  C         18.8480  -20.6300  -11.2900 C.2     1  UNL1        0.0070
     30  C         18.8650  -22.0100  -11.0710 C.2     1  UNL1       -0.0610
     31  C         17.6510  -22.7100  -10.5350 C.3     1  UNL1        0.0480
     32  C         20.0490  -22.7230  -11.3070 C.2     1  UNL1        0.0150
@<TRIPOS>BOND
     1    13     8    1
     2     7     6    2
     3     8     6   ar
     4     8     9   ar
     5    10     9    2
     6     6     5   ar
     7     9    11   ar
     8     5     4   ar
     9     5     1   ar
    10    11     4   ar
    11    11    12    1
    12    25     1    1
    13    25    26    1
    14    27    26    2
    15    27    28    1
    16     4     3   ar
    17     1     2   ar
    18    26    32    1
    19    28    29    2
    20    32    30    2
    21    29    30    1
    22    30    31    1
    23     3     2   ar
    24     2    14    1
    25    14    15    1
    26    14    16    1
    27    16    17    2
    28    17    18    1
    29    24    18    2
    30    24    23    1
    31    18    19    1
    32    23    21    2
    33    19    20    2
    34    21    20    1
    35    21    22    1
