@<TRIPOS>MOLECULE
976_out_ligand_01.pdbqt
 29 32 0 0 0
SMALL
GASTEIGER

@<TRIPOS>ATOM
      1  C         21.4860  -22.2850  -10.0780 C.2     1  UNL1        0.1020
      2  C         21.3270  -23.0680   -8.9460 C.2     1  UNL1        0.0490
      3  C         19.9380  -23.2660   -8.7220 C.2     1  UNL1       -0.0040
      4  C         19.1930  -23.9470   -7.7400 C.2     1  UNL1        0.0510
      5  C         17.7940  -23.9370   -7.8240 C.2     1  UNL1        0.0770
      6  C         17.1450  -23.3060   -8.8840 C.2     1  UNL1        0.0390
      7  C         17.8680  -22.6290   -9.8700 C.2     1  UNL1        0.0330
      8  C         19.2640  -22.6230   -9.7560 C.2     1  UNL1        0.0430
      9  N         20.2190  -22.0590  -10.5710 N.pl3   1  UNL1       -0.3510
     10  H         20.0120  -21.5870  -11.4390 H       1  UNL1        0.1660
     11  C         22.7300  -21.8390  -10.6820 C.2     1  UNL1        0.2720
     12  N         22.8150  -22.1230  -12.0340 N.am    1  UNL1       -0.3220
     13  H         21.9620  -22.4100  -12.4890 H       1  UNL1        0.1690
     14  O         23.5780  -21.2430  -10.0290 O.2     1  UNL1       -0.2660
     15  C         23.9150  -21.9020  -12.8910 C.2     1  UNL1        0.0350
     16  C         23.7040  -21.0760  -14.0020 C.2     1  UNL1        0.0300
     17  C         24.7380  -20.8140  -14.9060 C.2     1  UNL1        0.0090
     18  C         26.0060  -21.3700  -14.7110 C.2     1  UNL1       -0.0620
     19  C         27.1100  -21.1190  -15.6940 C.3     1  UNL1        0.0480
     20  C         26.2110  -22.2110  -13.6130 C.2     1  UNL1        0.0090
     21  C         25.1750  -22.4730  -12.7090 C.2     1  UNL1        0.0300
     22  O         16.9960  -24.6070   -6.9210 O.2     1  UNL1       -0.3110
     23  C         16.4130  -23.8650   -5.9200 C.2     1  UNL1        0.0760
     24  C         16.9190  -23.8250   -4.6200 C.2     1  UNL1        0.0370
     25  C         16.3040  -23.0170   -3.6650 C.2     1  UNL1        0.0030
     26  C         15.1950  -22.2430   -4.0110 C.2     1  UNL1        0.0070
     27  C         14.6860  -22.2700   -5.3160 C.2     1  UNL1       -0.0590
     28  C         13.5240  -21.4050   -5.6990 C.3     1  UNL1        0.0480
     29  C         15.3180  -23.0730   -6.2750 C.2     1  UNL1        0.0440
@<TRIPOS>BOND
     1    19    18    1
     2    17    18    2
     3    17    16    1
     4    18    20    1
     5    16    15    2
     6    20    21    2
     7    15    21    1
     8    15    12    1
     9    13    12    1
    10    12    11   am
    11    10     9    1
    12    11     1    1
    13    11    14    2
    14     9     1    1
    15     9     8    1
    16     1     2    2
    17     7     8    1
    18     7     6    2
    19     8     3    2
    20     2     3    1
    21     6     5    1
    22     3     4    1
    23     5     4    2
    24     5    22    1
    25    22    23    1
    26    29    23    2
    27    29    27    1
    28    23    24    1
    29    28    27    1
    30    27    26    2
    31    24    25    2
    32    26    25    1
