@<TRIPOS>MOLECULE
989_out_ligand_01.pdbqt
 35 38 0 0 0
SMALL
GASTEIGER

@<TRIPOS>ATOM
      1  O         21.1700  -25.1560   -9.1900 O.2     1  UNL1       -0.2730
      2  C         20.7340  -24.1100   -8.7230 C.2     1  UNL1        0.2230
      3  N         21.1080  -22.8290   -9.1000 N.am    1  UNL1       -0.3270
      4  H         20.6160  -22.0620   -8.6600 H       1  UNL1        0.1690
      5  C         22.1020  -22.4630  -10.0320 C.2     1  UNL1        0.0340
      6  C         23.3390  -22.0500   -9.5140 C.2     1  UNL1        0.0310
      7  C         24.3820  -21.6740  -10.3660 C.2     1  UNL1        0.0270
      8  C         24.1900  -21.7220  -11.7470 C.2     1  UNL1        0.0790
      9  C         22.9630  -22.1210  -12.2780 C.2     1  UNL1        0.0270
     10  C         21.9250  -22.4950  -11.4170 C.2     1  UNL1        0.0310
     11  S         25.5130  -21.2420  -12.8270 S.O2    1  UNL1        0.2590
     12  O         26.3660  -22.3960  -13.0110 O.2     1  UNL1       -0.2010
     13  O         26.0370  -19.9670  -12.3920 O.2     1  UNL1       -0.2010
     14  N         24.7100  -21.0180  -14.2780 N.3     1  UNL1       -0.3110
     15  H         23.7060  -20.8740  -14.1830 H       1  UNL1        0.1720
     16  C         25.2530  -21.5710  -15.5220 C.3     1  UNL1        0.0930
     17  C         24.4850  -22.8410  -15.9120 C.3     1  UNL1        0.0260
     18  C         24.3950  -23.0600  -17.4240 C.3     1  UNL1        0.0020
     19  C         25.6060  -22.4930  -18.1530 C.3     1  UNL1        0.0000
     20  C         25.7500  -20.9860  -17.9350 C.3     1  UNL1        0.0020
     21  C         25.1530  -20.5030  -16.6120 C.3     1  UNL1        0.0260
     22  C         19.6190  -24.0930   -7.6850 C.3     1  UNL1        0.1170
     23  C         18.9410  -22.7130   -7.5680 C.3     1  UNL1        0.0600
     24  C         18.6310  -22.2920   -6.1280 C.2     1  UNL1       -0.0490
     25  C         19.1460  -21.0710   -5.6560 C.2     1  UNL1        0.0080
     26  C         18.8870  -20.6360   -4.3550 C.2     1  UNL1        0.0010
     27  C         18.1030  -21.4120   -3.5050 C.2     1  UNL1        0.0000
     28  C         17.5750  -22.6180   -3.9570 C.2     1  UNL1        0.0010
     29  C         17.8340  -23.0550   -5.2600 C.2     1  UNL1        0.0080
     30  C         17.7040  -22.6510   -8.4660 C.2     1  UNL1       -0.0490
     31  C         17.7090  -21.8210   -9.5990 C.2     1  UNL1        0.0080
     32  C         16.6050  -21.7670  -10.4520 C.2     1  UNL1        0.0010
     33  C         15.4800  -22.5440  -10.1870 C.2     1  UNL1        0.0000
     34  C         15.4590  -23.3740   -9.0690 C.2     1  UNL1        0.0010
     35  C         16.5620  -23.4300   -8.2160 C.2     1  UNL1        0.0080
@<TRIPOS>BOND
     1    19    20    1
     2    19    18    1
     3    20    21    1
     4    18    17    1
     5    21    16    1
     6    17    16    1
     7    16    14    1
     8    14    15    1
     9    14    11    1
    10    12    11    2
    11    11    13    2
    12    11     8    1
    13     9     8    2
    14     9    10    1
    15     8     7    1
    16    10     5    2
    17    32    33    2
    18    32    31    1
    19     7     6    2
    20    33    34    1
    21     5     6    1
    22     5     3    1
    23    31    30    2
    24     1     2    2
    25     3     2   am
    26     3     4    1
    27    34    35    2
    28     2    22    1
    29    30    35    1
    30    30    23    1
    31    22    23    1
    32    23    24    1
    33    24    25    2
    34    24    29    1
    35    25    26    1
    36    29    28    2
    37    26    27    2
    38    28    27    1
