@<TRIPOS>MOLECULE
98_out_ligand_01.pdbqt
 30 33 0 0 0
SMALL
GASTEIGER

@<TRIPOS>ATOM
      1  C         22.1020  -23.1370   -9.5960 C.2     1  UNL1       -0.0210
      2  C         22.1480  -22.1740   -8.5780 C.2     1  UNL1        0.0130
      3  C         21.1360  -22.1010   -7.6130 C.2     1  UNL1        0.0300
      4  C         20.0570  -22.9860   -7.6460 C.2     1  UNL1        0.0350
      5  C         20.0040  -23.9470   -8.6620 C.2     1  UNL1        0.0300
      6  C         21.0130  -24.0230   -9.6270 C.2     1  UNL1        0.0130
      7  C         23.1990  -23.2040  -10.6480 C.3     1  UNL1        0.1990
      8  N         23.1960  -22.0450  -11.5330 N.pl3   1  UNL1       -0.2450
      9  C         24.3130  -22.0140  -12.3990 C.2     1  UNL1        0.1230
     10  C         21.9460  -21.7360  -12.2280 C.3     1  UNL1        0.1210
     11  C         25.5390  -22.5430  -11.9970 C.2     1  UNL1        0.0720
     12  N         24.1960  -21.4250  -13.6170 N.2     1  UNL1       -0.2410
     13  C         26.6520  -22.4770  -12.8360 C.2     1  UNL1        0.0220
     14  C         25.6340  -23.1690  -10.6740 C.2     1  UNL1        0.2560
     15  C         26.5200  -21.8740  -14.0790 C.2     1  UNL1        0.0280
     16  C         25.2790  -21.3610  -14.4340 C.2     1  UNL1        0.0320
     17  C         25.0930  -20.6950  -15.7640 C.3     1  UNL1        0.0700
     18  N         24.4670  -23.2690   -9.9800 N.am    1  UNL1       -0.3350
     19  O         26.6950  -23.5780  -10.2190 O.2     1  UNL1       -0.2670
     20  H         24.5310  -23.8100   -9.1290 H       1  UNL1        0.1640
     21  N         19.0030  -22.9790   -6.7160 N.am    1  UNL1       -0.3210
     22  C         18.6430  -21.9820   -5.8280 C.2     1  UNL1        0.2790
     23  O         19.2090  -20.9000   -5.7010 O.2     1  UNL1       -0.2650
     24  H         18.4170  -23.8060   -6.6750 H       1  UNL1        0.1690
     25  C         17.4880  -22.3450   -5.0240 C.2     1  UNL1        0.1430
     26  C         17.1860  -22.0950   -3.6990 C.2     1  UNL1        0.0450
     27  C         15.9250  -22.6860   -3.4490 C.2     1  UNL1        0.0350
     28  C         15.5260  -23.2650   -4.6330 C.2     1  UNL1        0.0500
     29  C         14.3280  -24.0260   -5.0380 C.3     1  UNL1        0.0760
     30  O         16.4690  -23.0630   -5.5960 O.2     1  UNL1       -0.3100
@<TRIPOS>BOND
     1    17    16    1
     2    16    15    2
     3    16    12    1
     4    15    13    1
     5    12     9    2
     6    13    11    2
     7     9    11    1
     8     9     8    1
     9    10     8    1
    10    11    14    1
    11     8     7    1
    12    14    19    2
    13    14    18   am
    14     7    18    1
    15     7     1    1
    16    18    20    1
    17     6     1    2
    18     6     5    1
    19     1     2    1
    20     5     4    2
    21     2     3    2
    22     4     3    1
    23     4    21    1
    24    21    24    1
    25    21    22   am
    26    22    23    2
    27    22    25    1
    28    30    25    1
    29    30    28    1
    30    29    28    1
    31    25    26    2
    32    28    27    2
    33    26    27    1
