@<TRIPOS>MOLECULE
999_out_ligand_01.pdbqt
 31 33 0 0 0
SMALL
GASTEIGER

@<TRIPOS>ATOM
      1  N         19.9670  -22.5460   -9.9570 N.am    1  UNL1       -0.3210
      2  C         18.8130  -21.8770  -10.3300 C.2     1  UNL1        0.2800
      3  O         18.7590  -20.9120  -11.0850 O.2     1  UNL1       -0.2650
      4  H         19.8160  -23.3280   -9.3240 H       1  UNL1        0.1690
      5  C         17.6240  -22.4470   -9.7220 C.2     1  UNL1        0.1440
      6  C         16.6090  -23.2290  -10.2380 C.2     1  UNL1        0.0460
      7  C         15.7200  -23.4980   -9.1660 C.2     1  UNL1        0.0410
      8  C         16.2420  -22.8700   -8.0520 C.2     1  UNL1        0.0870
      9  O         17.3860  -22.2170   -8.3940 O.2     1  UNL1       -0.3040
     10  C         15.8180  -22.7310   -6.6600 C.2     1  UNL1        0.0130
     11  C         14.6340  -22.0130   -6.4010 C.2     1  UNL1        0.0150
     12  C         14.1720  -21.8200   -5.0980 C.2     1  UNL1        0.0010
     13  C         14.8860  -22.3400   -4.0270 C.2     1  UNL1        0.0010
     14  C         16.0570  -23.0600   -4.2610 C.2     1  UNL1        0.0170
     15  C         16.5360  -23.2740   -5.5720 C.2     1  UNL1        0.0600
     16  C         17.7950  -24.0930   -5.7530 C.3     1  UNL1        0.4180
     17  F         17.6440  -25.1510   -6.5970 F       1  UNL1       -0.1660
     18  F         18.2460  -24.6390   -4.5830 F       1  UNL1       -0.1660
     19  F         18.8520  -23.3690   -6.2290 F       1  UNL1       -0.1660
     20  C         21.2920  -22.2920  -10.3500 C.2     1  UNL1        0.0350
     21  C         21.7350  -22.3210  -11.6750 C.2     1  UNL1        0.0310
     22  C         23.0740  -22.0570  -11.9830 C.2     1  UNL1        0.0270
     23  C         23.9710  -21.7510  -10.9580 C.2     1  UNL1        0.0740
     24  C         23.5490  -21.7300   -9.6290 C.2     1  UNL1        0.0270
     25  C         22.2100  -21.9990   -9.3310 C.2     1  UNL1        0.0310
     26  S         25.6690  -21.4150  -11.3430 S.O2    1  UNL1        0.2390
     27  O         26.0250  -20.1330  -10.7790 O.2     1  UNL1       -0.2060
     28  O         25.9000  -21.7470  -12.7280 O.2     1  UNL1       -0.2060
     29  N         26.4590  -22.5640  -10.3980 N.3     1  UNL1       -0.2250
     30  H         25.7610  -23.0880   -9.8670 H       1  UNL1        0.1360
     31  H         27.0660  -23.1800  -10.9380 H       1  UNL1        0.1360
@<TRIPOS>BOND
     1    28    26    2
     2    22    21    1
     3    22    23    2
     4    21    20    2
     5    26    23    1
     6    26    27    2
     7    26    29    1
     8     3     2    2
     9    23    24    1
    10    31    29    1
    11    29    30    1
    12    20     1    1
    13    20    25    1
    14     2     1   am
    15     2     5    1
    16     6     5    2
    17     6     7    1
    18     1     4    1
    19     5     9    1
    20    24    25    2
    21     7     8    2
    22     9     8    1
    23     8    10    1
    24    10    11    2
    25    10    15    1
    26    17    16    1
    27    11    12    1
    28    19    16    1
    29    16    15    1
    30    16    18    1
    31    15    14    2
    32    12    13    2
    33    14    13    1
