@<TRIPOS>MOLECULE
tr13511_out_ligand_01.pdbqt
 37 40 0 0 0
SMALL
GASTEIGER

@<TRIPOS>ATOM
      1  C         22.2690  -22.0130  -10.7870 C.2     1  UNL1        0.0240
      2  C         21.3060  -21.4280  -11.5190 C.2     1  UNL1        0.0270
      3  C         19.8980  -21.5730  -11.1670 C.2     1  UNL1       -0.0080
      4  C         18.9210  -20.9770  -11.9760 C.2     1  UNL1        0.0140
      5  C         17.5680  -21.1230  -11.6730 C.2     1  UNL1        0.0070
      6  C         17.1780  -21.8620  -10.5540 C.2     1  UNL1       -0.0600
      7  C         15.7220  -22.0770  -10.2560 C.3     1  UNL1        0.0480
      8  C         18.1620  -22.4650   -9.7520 C.2     1  UNL1        0.0370
      9  C         19.5280  -22.3180  -10.0380 C.2     1  UNL1        0.0480
     10  N         20.5550  -22.9060   -9.2380 N.am    1  UNL1       -0.3040
     11  C         21.8970  -22.8360   -9.5940 C.2     1  UNL1        0.2560
     12  O         22.7820  -23.4120   -8.9570 O.2     1  UNL1       -0.2670
     13  C         23.7520  -21.9460  -11.0550 C.3     1  UNL1        0.1360
     14  N         24.2320  -23.1840  -11.6800 N.pl3   1  UNL1       -0.2880
     15  H         23.5720  -23.9470  -11.5400 H       1  UNL1        0.1280
     16  C         24.6500  -23.1540  -13.0200 C.2     1  UNL1        0.0110
     17  C         24.1440  -22.1400  -13.8430 C.2     1  UNL1        0.0260
     18  C         24.4650  -22.0710  -15.2030 C.2     1  UNL1        0.0410
     19  C         25.2810  -23.0420  -15.7830 C.2     1  UNL1        0.1010
     20  C         25.7570  -24.1020  -14.9870 C.2     1  UNL1        0.1030
     21  C         25.4310  -24.1510  -13.6220 C.2     1  UNL1        0.0630
     22  O         25.6490  -23.0610  -17.1050 O.2     1  UNL1       -0.3530
     23  C         24.6140  -23.1300  -18.0760 C.3     1  UNL1        0.2100
     24  O         26.5310  -25.0380  -15.6330 O.2     1  UNL1       -0.3530
     25  C         27.1200  -26.0680  -14.8470 C.3     1  UNL1        0.2100
     26  C         20.2420  -23.6920   -8.0510 C.3     1  UNL1        0.2350
     27  C         19.3460  -22.9290   -7.0610 C.2     1  UNL1        0.2400
     28  O         19.6610  -21.8260   -6.6220 O.2     1  UNL1       -0.2710
     29  N         18.2190  -23.6570   -6.6910 N.am    1  UNL1       -0.3260
     30  H         18.0590  -24.5310   -7.1760 H       1  UNL1        0.1690
     31  C         17.2200  -23.2790   -5.7670 C.2     1  UNL1        0.0370
     32  C         17.4620  -23.5610   -4.4120 C.2     1  UNL1        0.0290
     33  C         16.5280  -23.2160   -3.4270 C.2     1  UNL1        0.0050
     34  C         15.3430  -22.5850   -3.7920 C.2     1  UNL1        0.0420
     35  C         15.1040  -22.3090   -5.1350 C.2     1  UNL1        0.1180
     36  F         13.9590  -21.7050   -5.4850 F       1  UNL1       -0.2060
     37  C         16.0260  -22.6470   -6.1220 C.2     1  UNL1        0.0710
@<TRIPOS>BOND
     1    23    22    1
     2    22    19    1
     3    19    18    2
     4    19    20    1
     5    24    20    1
     6    24    25    1
     7    18    17    1
     8    20    21    2
     9    17    16    2
    10    21    16    1
    11    16    14    1
    12     4     5    1
    13     4     3    2
    14    14    15    1
    15    14    13    1
    16     5     6    2
    17     2     3    1
    18     2     1    2
    19     3     9    1
    20    13     1    1
    21     1    11    1
    22     6     7    1
    23     6     8    1
    24     9     8    2
    25     9    10    1
    26    11    10   am
    27    11    12    2
    28    10    26    1
    29    26    27    1
    30    30    29    1
    31    27    29   am
    32    27    28    2
    33    29    31    1
    34    37    31    2
    35    37    35    1
    36    31    32    1
    37    36    35    1
    38    35    34    2
    39    32    33    2
    40    34    33    1
