@<TRIPOS>MOLECULE
tr13172_out_ligand_01.pdbqt
 32 35 0 0 0
SMALL
GASTEIGER

@<TRIPOS>ATOM
      1  C         21.8350  -23.1060  -10.5840 C.3     1  UNL1        0.0990
      2  N         23.0160  -22.2370  -10.6600 N.pl3   1  UNL1       -0.2670
      3  H         22.8060  -21.2490  -10.6200 H       1  UNL1        0.1300
      4  C         23.9680  -22.5420  -11.6320 C.2     1  UNL1        0.1200
      5  C         23.8540  -22.0910  -12.9550 C.2     1  UNL1        0.0710
      6  C         22.9530  -21.3340  -13.7310 C.2     1  UNL1        0.1570
      7  C         24.8570  -22.4410  -13.8400 C.2     1  UNL1        0.1620
      8  N         23.3280  -21.2230  -15.0100 N.2     1  UNL1       -0.1820
      9  N         24.5160  -21.8750  -15.0430 N.pl3   1  UNL1       -0.2500
     10  N         25.9460  -23.1820  -13.5710 N.2     1  UNL1       -0.2220
     11  C         25.9670  -23.5540  -12.2800 C.2     1  UNL1        0.2370
     12  N         25.0650  -23.2750  -11.3170 N.2     1  UNL1       -0.2290
     13  C         25.2430  -22.0170  -16.2910 C.3     1  UNL1        0.1790
     14  C         24.7530  -23.1850  -17.1400 C.3     1  UNL1        0.1860
     15  O         23.3320  -23.1770  -17.2470 O.3     1  UNL1       -0.3990
     16  H         22.9810  -22.8070  -16.4180 H       1  UNL1        0.2090
     17  C         21.7840  -23.8380   -9.2140 C.3     1  UNL1        0.0650
     18  C         20.6900  -23.4230   -8.2470 C.2     1  UNL1       -0.0350
     19  C         19.5470  -24.2370   -8.1350 C.2     1  UNL1        0.0100
     20  C         18.5190  -23.9140   -7.2490 C.2     1  UNL1        0.0240
     21  C         18.6170  -22.7670   -6.4670 C.2     1  UNL1        0.0350
     22 CL         17.3520  -22.3710   -5.3720 Cl      1  UNL1       -0.0840
     23  C         19.7310  -21.9380   -6.5680 C.2     1  UNL1        0.0480
     24  C         20.7600  -22.2610   -7.4580 C.2     1  UNL1        0.0420
     25 CL         22.0950  -21.1670   -7.5440 Cl      1  UNL1       -0.0840
     26  C         20.5500  -22.3510  -10.9160 C.2     1  UNL1       -0.0400
     27  C         19.3230  -23.0370  -10.8540 C.2     1  UNL1        0.0120
     28  C         18.1230  -22.3810  -11.1380 C.2     1  UNL1        0.0430
     29  C         18.1410  -21.0370  -11.4830 C.2     1  UNL1        0.1160
     30  F         16.9910  -20.4080  -11.7550 F       1  UNL1       -0.2060
     31  C         19.3370  -20.3360  -11.5520 C.2     1  UNL1        0.0430
     32  C         20.5400  -20.9890  -11.2690 C.2     1  UNL1        0.0120
@<TRIPOS>BOND
     1    15    14    1
     2    15    16    1
     3    14    13    1
     4    13     9    1
     5     9     8    1
     6     9     7    1
     7     8     6    2
     8     7    10    2
     9     7     5    1
    10     6     5    1
    11    10    11    1
    12     5     4    2
    13    11    12    2
    14    30    29    1
    15     4    12    1
    16     4     2    1
    17    31    29    2
    18    31    32    1
    19    29    28    1
    20    32    26    2
    21    28    27    2
    22    26    27    1
    23    26     1    1
    24     2     3    1
    25     2     1    1
    26     1    17    1
    27    17    18    1
    28    18    19    2
    29    18    24    1
    30    19    20    1
    31    25    24    1
    32    24    23    2
    33    20    21    2
    34    23    21    1
    35    21    22    1
