@<TRIPOS>MOLECULE
tr13177_out_ligand_01.pdbqt
 33 36 0 0 0
SMALL
GASTEIGER

@<TRIPOS>ATOM
      1  C         23.9300  -22.6570  -11.9190 C.2     1  UNL1        0.0690
      2  C         23.1910  -21.4640  -12.4550 C.2     1  UNL1        0.0860
      3  C         23.2600  -21.2770  -13.7780 C.2     1  UNL1        0.1670
      4  N         24.0080  -22.1620  -14.5640 N.pl3   1  UNL1       -0.1920
      5  N         24.1730  -22.1030  -15.9150 N.2     1  UNL1       -0.1750
      6  C         24.9750  -23.1390  -16.1850 C.2     1  UNL1        0.1660
      7  C         25.3210  -23.8710  -15.0370 C.2     1  UNL1        0.1110
      8  C         26.1550  -25.0230  -14.9640 C.1     1  UNL1        0.1050
      9  N         26.8470  -25.9530  -14.9580 N.1     1  UNL1       -0.1910
     10  C         24.6850  -23.2390  -13.9900 C.2     1  UNL1        0.1760
     11  N         24.6330  -23.4860  -12.6440 N.2     1  UNL1       -0.2300
     12  C         23.8240  -22.9060  -10.4160 C.3     1  UNL1        0.3290
     13  N         22.5460  -23.5630  -10.1480 N.3     1  UNL1        0.0970
     14  H         22.0220  -23.6290  -11.0250 H       1  UNL1        0.3170
     15  C         21.6640  -22.9170   -9.1580 C.3     1  UNL1        0.2510
     16  C         22.3850  -21.8770   -8.2830 C.3     1  UNL1        0.0480
     17  C         20.3550  -22.3890   -9.7470 C.2     1  UNL1       -0.0010
     18  C         20.3570  -21.6990  -10.9760 C.2     1  UNL1        0.0530
     19  C         19.1780  -21.2200  -11.5340 C.2     1  UNL1        0.1170
     20  C         17.9690  -21.4080  -10.8970 C.2     1  UNL1        0.0440
     21  F         19.2170  -20.5580  -12.6970 F       1  UNL1       -0.2060
     22  C         17.9400  -22.0770   -9.6750 C.2     1  UNL1        0.0270
     23  C         19.1190  -22.5720   -9.0760 C.2     1  UNL1        0.0190
     24  N         19.0920  -23.1410   -7.7920 N.pl3   1  UNL1       -0.2800
     25  C         18.1500  -24.2610   -7.5790 C.3     1  UNL1        0.1260
     26  C         17.9220  -24.5050   -6.0690 C.3     1  UNL1        0.2870
     27  N         17.3700  -23.3500   -5.3210 N.3     1  UNL1        0.0900
     28  C         17.7400  -22.0750   -5.9760 C.3     1  UNL1        0.2870
     29  C         19.0940  -22.1240   -6.7140 C.3     1  UNL1        0.1260
     30  C         15.9200  -23.4710   -5.1290 C.3     1  UNL1        0.2680
     31  C         15.3580  -22.4190   -4.1750 C.3     1  UNL1        0.0370
     32  O         22.6070  -20.2150  -14.3850 O.2     1  UNL1       -0.3450
     33  H         21.6500  -20.4090  -14.3050 H       1  UNL1        0.2190
@<TRIPOS>BOND
     1     6     5    2
     2     6     7    1
     3     5     4    1
     4     7     8    1
     5     7    10    2
     6     8     9    3
     7     4    10    1
     8     4     3    1
     9    32    33    1
    10    32     3    1
    11    10    11    1
    12     3     2    2
    13    21    19    1
    14    11     1    2
    15     2     1    1
    16     1    12    1
    17    19    18    1
    18    19    20    2
    19    14    13    1
    20    18    17    2
    21    20    22    1
    22    12    13    1
    23    13    15    1
    24    17    15    1
    25    17    23    1
    26    22    23    2
    27    15    16    1
    28    23    24    1
    29    24    25    1
    30    24    29    1
    31    25    26    1
    32    29    28    1
    33    26    27    1
    34    28    27    1
    35    27    30    1
    36    30    31    1
