@<TRIPOS>MOLECULE
tr13292_out_ligand_01.pdbqt
 33 36 0 0 0
SMALL
GASTEIGER

@<TRIPOS>ATOM
      1  C         21.8370  -23.0100  -10.3480 C.ar    1  UNL1        0.2110
      2  N         22.3600  -23.8580   -9.4770 N.ar    1  UNL1       -0.1070
      3  N         21.3690  -24.2200   -8.5600 N.ar    1  UNL1        0.0450
      4  C         20.2910  -23.5720   -8.9180 C.ar    1  UNL1        0.7350
      5  N         18.9880  -23.4390   -8.5660 N.ar    1  UNL1       -0.1680
      6  C         18.3880  -22.6100   -9.5150 C.ar    1  UNL1        0.0800
      7  C         17.0860  -22.1950   -9.6630 C.2     1  UNL1        0.0320
      8  C         16.7830  -21.3840  -10.7660 C.2     1  UNL1        0.0020
      9  C         17.7740  -21.0010  -11.6990 C.2     1  UNL1        0.0020
     10  C         19.0980  -21.4200  -11.5610 C.2     1  UNL1        0.0330
     11  C         19.3640  -22.2040  -10.4660 C.ar    1  UNL1        0.0870
     12  N         20.5320  -22.8250  -10.0420 N.ar    1  UNL1       -0.1170
     13  S         22.6850  -22.2720  -11.6540 S.3     1  UNL1       -0.0800
     14  C         24.3760  -22.8900  -11.4280 C.3     1  UNL1        0.1850
     15  C         25.0840  -23.2200  -12.7260 C.2     1  UNL1        0.2290
     16  N         25.7690  -22.2720  -13.4700 N.am    1  UNL1       -0.3470
     17  C         25.9880  -22.6620  -14.8700 C.3     1  UNL1        0.1260
     18  C         26.2020  -20.8900  -13.1450 C.3     1  UNL1        0.0870
     19  C         26.3000  -21.4910  -15.8030 C.3     1  UNL1        0.0200
     20  C         25.3880  -20.3070  -15.5030 C.3     1  UNL1        0.0040
     21  C         25.4330  -19.8890  -14.0260 C.3     1  UNL1        0.0250
     22  O         24.9910  -24.3890  -13.1290 O.2     1  UNL1       -0.2730
     23  C         26.2770  -20.4670  -11.6710 C.3     1  UNL1        0.0210
     24  C         26.8870  -19.0820  -11.4670 C.3     1  UNL1        0.0070
     25  C         18.3540  -24.2470   -7.5380 C.3     1  UNL1        0.2500
     26  C         17.5350  -23.4000   -6.5530 C.2     1  UNL1        0.2370
     27  O         17.9700  -22.3510   -6.0870 O.2     1  UNL1       -0.2720
     28  N         16.2620  -23.8810   -6.3070 N.am    1  UNL1       -0.3520
     29  H         16.1320  -24.8490   -6.5710 H       1  UNL1        0.1630
     30  C         15.3550  -23.3780   -5.2680 C.3     1  UNL1        0.0220
     31  C         14.7070  -22.0370   -5.6580 C.3     1  UNL1        0.0370
     32  C         16.1090  -23.2360   -3.9360 C.3     1  UNL1        0.0370
     33  C         14.2300  -24.4160   -5.0940 C.3     1  UNL1        0.0370
@<TRIPOS>BOND
     1    19    20    1
     2    19    17    1
     3    20    21    1
     4    17    16    1
     5    21    18    1
     6    16    18    1
     7    16    15   am
     8    18    23    1
     9    22    15    2
    10    15    14    1
    11     9    10    2
    12     9     8    1
    13    23    24    1
    14    13    14    1
    15    13     1    1
    16    10    11    1
    17     8     7    2
    18    11    12   ar
    19    11     6   ar
    20     1    12   ar
    21     1     2   ar
    22    12     4   ar
    23     7     6    1
    24     6     5   ar
    25     2     3   ar
    26     4     5   ar
    27     4     3   ar
    28     5    25    1
    29    25    26    1
    30    29    28    1
    31    26    28   am
    32    26    27    2
    33    28    30    1
    34    31    30    1
    35    30    33    1
    36    30    32    1
