@<TRIPOS>MOLECULE
tr13408_out_ligand_01.pdbqt
 28 31 0 0 0
SMALL
GASTEIGER

@<TRIPOS>ATOM
      1  C         21.6780  -23.3810  -10.1410 C.2     1  UNL1        0.1460
      2  N         21.8650  -24.3800   -9.2560 N.2     1  UNL1       -0.2230
      3  C         20.8150  -24.8350   -8.5580 C.2     1  UNL1        0.2370
      4  N         19.5450  -24.4150   -8.6220 N.2     1  UNL1       -0.2230
      5  C         19.3940  -23.4160   -9.5110 C.ar    1  UNL1        0.1460
      6  C         20.3830  -22.8430  -10.2960 C.ar    1  UNL1        0.0640
      7  C         19.7450  -21.8060  -11.0700 C.ar    1  UNL1       -0.0220
      8  C         20.4060  -20.8920  -12.0440 C.3     1  UNL1        0.0510
      9  C         18.3910  -21.8160  -10.7410 C.ar    1  UNL1        0.0160
     10  C         17.2680  -20.9750  -11.2520 C.3     1  UNL1        0.0690
     11  N         18.2020  -22.7940   -9.7880 N.ar    1  UNL1       -0.3320
     12  N         22.7490  -22.8910  -10.9010 N.am    1  UNL1       -0.3100
     13  C         23.5690  -21.8320  -10.5560 C.2     1  UNL1        0.2300
     14  O         23.4790  -21.1550   -9.5310 O.2     1  UNL1       -0.2730
     15  H         22.9350  -23.3700  -11.7650 H       1  UNL1        0.1700
     16  C         24.6590  -21.5730  -11.6170 C.3     1  UNL1        0.1140
     17  C         24.2380  -21.5990  -13.1020 C.3     1  UNL1        0.1410
     18  N         25.4810  -22.3180  -13.3410 N.am    1  UNL1       -0.3510
     19  C         25.8950  -23.0160  -14.4440 C.2     1  UNL1        0.2150
     20  C         25.6060  -22.7400  -11.9550 C.3     1  UNL1        0.1410
     21  C         25.2470  -22.6110  -15.7400 C.3     1  UNL1        0.1170
     22  O         26.7310  -23.9150  -14.3860 O.2     1  UNL1       -0.2740
     23  C         16.9560  -23.1340   -9.1060 C.3     1  UNL1        0.1620
     24  C         16.6820  -22.2230   -7.9020 C.3     1  UNL1        0.1390
     25  C         15.6930  -22.8450   -6.9220 C.3     1  UNL1        0.0350
     26  C         16.5910  -23.5810   -5.9600 C.3     1  UNL1        0.0290
     27  C         17.7740  -22.6470   -5.8700 C.3     1  UNL1        0.1680
     28  O         17.9080  -22.0350   -7.1590 O.3     1  UNL1       -0.3840
@<TRIPOS>BOND
     1    21    19    1
     2    19    22    2
     3    19    18   am
     4    18    17    1
     5    18    20    1
     6    17    16    1
     7     8     7    1
     8    20    16    1
     9    15    12    1
    10    16    13    1
    11    10     9    1
    12     7     9   ar
    13     7     6   ar
    14    12    13   am
    15    12     1    1
    16     9    11   ar
    17    13    14    2
    18     6     1    2
    19     6     5   ar
    20     1     2    1
    21    11     5   ar
    22    11    23    1
    23     5     4    2
    24     2     3    2
    25    23    24    1
    26     4     3    1
    27    24    28    1
    28    24    25    1
    29    28    27    1
    30    25    26    1
    31    26    27    1
