@<TRIPOS>MOLECULE
tr13768_out_ligand_01.pdbqt
 27 29 0 0 0
SMALL
GASTEIGER

@<TRIPOS>ATOM
      1  C         18.4220  -20.8990  -11.4120 C.3     1  UNL1        0.0500
      2  C         19.4440  -21.7840  -10.7530 C.2     1  UNL1       -0.0290
      3  C         20.8280  -21.5410  -11.1380 C.2     1  UNL1        0.0300
      4  C         21.8730  -22.2130  -10.6130 C.2     1  UNL1        0.0830
      5  C         21.5590  -23.2920   -9.6190 C.2     1  UNL1        0.2600
      6  O         22.3970  -24.0370   -9.1210 O.2     1  UNL1       -0.2670
      7  N         20.2360  -23.4480   -9.2840 N.am    1  UNL1       -0.3180
      8  C         19.1930  -22.7350   -9.8330 C.2     1  UNL1        0.1090
      9  H         20.0350  -24.2250   -8.6650 H       1  UNL1        0.1690
     10  C         17.8060  -23.0840   -9.3670 C.2     1  UNL1        0.2690
     11  O         16.8380  -23.0960  -10.1140 O.2     1  UNL1       -0.2660
     12  N         17.7610  -23.3900   -8.0200 N.am    1  UNL1       -0.3470
     13  H         18.5720  -23.1200   -7.4740 H       1  UNL1        0.1630
     14  C         16.5130  -23.6580   -7.2960 C.3     1  UNL1        0.0350
     15  C         15.7160  -24.7630   -8.0090 C.3     1  UNL1        0.0390
     16  C         15.6630  -22.3600   -7.2460 C.3     1  UNL1        0.0360
     17  C         15.0500  -22.3430   -5.8540 C.3     1  UNL1        0.0810
     18  C         16.1850  -22.8750   -5.0160 C.3     1  UNL1        0.2460
     19  F         15.7740  -23.2510   -3.7920 F       1  UNL1       -0.2060
     20  F         17.1250  -21.9140   -4.8580 F       1  UNL1       -0.2060
     21  C         16.7530  -24.0340   -5.8090 C.3     1  UNL1        0.1090
     22  C         23.2310  -21.9560  -10.9740 C.2     1  UNL1        0.2030
     23  N         24.0140  -21.1780  -10.1490 N.2     1  UNL1       -0.1360
     24  N         25.2170  -21.1190  -10.7010 N.pl3   1  UNL1        0.0220
     25  N         25.1120  -21.8580  -11.8120 N.3     1  UNL1       -0.2000
     26  N         23.9210  -22.4350  -12.0220 N.pl3   1  UNL1       -0.1380
     27  H         25.8930  -21.9780  -12.4510 H       1  UNL1        0.2080
@<TRIPOS>BOND
     1    27    25    1
     2    26    25    1
     3    26    22    1
     4    25    24    1
     5     1     2    1
     6     3     2    1
     7     3     4    2
     8    22     4    1
     9    22    23    2
    10     2     8    2
    11    24    23    1
    12     4     5    1
    13    11    10    2
    14     8    10    1
    15     8     7    1
    16     5     7   am
    17     5     6    2
    18    10    12   am
    19     7     9    1
    20    12    13    1
    21    12    14    1
    22    15    14    1
    23    14    16    1
    24    14    21    1
    25    16    17    1
    26    17    18    1
    27    21    18    1
    28    18    20    1
    29    18    19    1
