@<TRIPOS>MOLECULE
tr13516_out_ligand_01.pdbqt
 37 41 0 0 0
SMALL
GASTEIGER

@<TRIPOS>ATOM
      1  C         20.4940  -23.1460   -8.1400 C.2     1  UNL1        0.1000
      2  C         21.1910  -22.0110   -7.9360 C.2     1  UNL1        0.0250
      3  C         22.5490  -21.8670   -8.4130 C.2     1  UNL1        0.0280
      4  C         23.1230  -22.8530   -9.1190 C.2     1  UNL1        0.0400
      5  N         22.4200  -24.0200   -9.3320 N.am    1  UNL1       -0.3250
      6  C         21.1470  -24.2700   -8.8690 C.2     1  UNL1        0.2610
      7  O         20.6160  -25.3640   -9.0260 O.2     1  UNL1       -0.2670
      8  H         22.8950  -24.7820   -9.8070 H       1  UNL1        0.1690
      9  C         24.5170  -22.7660   -9.7070 C.3     1  UNL1        0.3290
     10  N         24.6540  -21.7590  -10.7760 N.3     1  UNL1        0.0940
     11  C         23.7890  -22.0320  -11.9360 C.3     1  UNL1        0.2750
     12  C         24.4720  -22.8030  -13.0660 C.3     1  UNL1        0.0660
     13  C         25.7670  -22.1160  -13.5620 C.3     1  UNL1        0.2260
     14  C         26.2620  -21.0630  -12.5530 C.3     1  UNL1        0.0660
     15  C         26.0700  -21.5920  -11.1320 C.3     1  UNL1        0.2750
     16  N         25.6540  -21.6600  -14.9630 N.3     1  UNL1        0.0930
     17  C         26.8900  -21.1370  -15.5480 C.3     1  UNL1        0.2750
     18  C         26.5690  -20.3120  -16.8040 C.3     1  UNL1        0.0620
     19  C         25.3570  -20.8520  -17.5710 C.3     1  UNL1        0.1210
     20  C         25.1770  -22.3470  -17.3340 C.3     1  UNL1        0.0620
     21  C         25.0370  -22.6730  -15.8400 C.3     1  UNL1        0.2750
     22  O         24.1800  -20.1630  -17.1450 O.3     1  UNL1       -0.3950
     23  H         23.9840  -19.5090  -17.8460 H       1  UNL1        0.2100
     24  C         19.0740  -23.2030   -7.7220 C.2     1  UNL1        0.2570
     25  O         18.3450  -22.2200   -7.7680 O.2     1  UNL1       -0.2670
     26  N         18.6740  -24.4320   -7.2490 N.am    1  UNL1       -0.3480
     27  H         19.3180  -25.2090   -7.2410 H       1  UNL1        0.1630
     28  C         17.3420  -24.6450   -6.6990 C.3     1  UNL1        0.1180
     29  C         16.2980  -24.3920   -7.8030 C.3     1  UNL1        0.0300
     30  C         14.8960  -24.2880   -7.2220 C.3     1  UNL1        0.0070
     31  C         14.8080  -23.0880   -6.2840 C.3     1  UNL1        0.0390
     32  C         15.9260  -23.0590   -5.2710 C.2     1  UNL1       -0.0500
     33  C         15.7710  -22.2680   -4.1210 C.2     1  UNL1        0.0070
     34  C         17.1240  -23.7760   -5.4670 C.2     1  UNL1       -0.0290
     35  C         16.7710  -22.2120   -3.1530 C.2     1  UNL1        0.0010
     36  C         17.9380  -22.9530   -3.3190 C.2     1  UNL1        0.0010
     37  C         18.1090  -23.7330   -4.4620 C.2     1  UNL1        0.0100
@<TRIPOS>BOND
     1    23    22    1
     2    19    20    1
     3    19    22    1
     4    19    18    1
     5    20    21    1
     6    18    17    1
     7    21    16    1
     8    17    16    1
     9    16    13    1
    10    13    12    1
    11    13    14    1
    12    12    11    1
    13    14    15    1
    14    11    10    1
    15    15    10    1
    16    10     9    1
    17     8     5    1
    18     9     4    1
    19     5     4    1
    20     5     6   am
    21     4     3    2
    22     7     6    2
    23     6     1    1
    24     3     2    1
    25     1     2    2
    26     1    24    1
    27    29    30    1
    28    29    28    1
    29    25    24    2
    30    24    26   am
    31    26    27    1
    32    26    28    1
    33    30    31    1
    34    28    34    1
    35    31    32    1
    36    34    32    2
    37    34    37    1
    38    32    33    1
    39    37    36    2
    40    33    35    2
    41    36    35    1
