@<TRIPOS>MOLECULE
tr13424_out_ligand_01.pdbqt
 28 32 0 0 0
SMALL
GASTEIGER

@<TRIPOS>ATOM
      1  C         21.8610  -21.6710  -12.5490 C.3     1  UNL1        0.1890
      2  C         20.9120  -21.9800  -11.4230 C.2     1  UNL1        0.0060
      3  C         19.5690  -21.5880  -11.4820 C.2     1  UNL1        0.0130
      4  C         18.6900  -21.8990  -10.4400 C.2     1  UNL1        0.0130
      5  C         19.1270  -22.6170   -9.3160 C.2     1  UNL1       -0.0210
      6  C         20.4720  -23.0160   -9.2720 C.2     1  UNL1        0.0490
      7  C         21.3510  -22.7140  -10.3150 C.2     1  UNL1        0.0780
      8  O         22.6400  -23.1490  -10.1500 O.2     1  UNL1       -0.3480
      9  C         23.4590  -23.0970  -11.3250 C.3     1  UNL1        0.2140
     10  C         23.3270  -21.7570  -12.0610 C.3     1  UNL1        0.2800
     11  C         18.2020  -22.9190   -8.2040 C.2     1  UNL1        0.0070
     12  C         17.1450  -23.8230   -8.4370 C.2     1  UNL1        0.0570
     13  C         16.2500  -24.1340   -7.4280 C.2     1  UNL1        0.1180
     14  F         15.2520  -24.9930   -7.6700 F       1  UNL1       -0.2060
     15  C         16.3740  -23.5660   -6.1740 C.2     1  UNL1        0.0560
     16  C         17.4170  -22.6650   -5.9180 C.2     1  UNL1       -0.0040
     17  C         17.5520  -22.0840   -4.6490 C.2     1  UNL1        0.0150
     18  C         18.3500  -22.3250   -6.9300 C.2     1  UNL1        0.0780
     19  C         18.5890  -21.1970   -4.3990 C.2     1  UNL1        0.0200
     20  C         19.4580  -20.9190   -5.4320 C.2     1  UNL1        0.1170
     21  N         19.3550  -21.4590   -6.6650 N.2     1  UNL1       -0.2590
     22  O         21.6200  -20.3680  -13.0880 O.3     1  UNL1       -0.3890
     23  H         21.3470  -19.8350  -12.3140 H       1  UNL1        0.2100
     24  N         24.2590  -21.4670  -13.1770 N.3     1  UNL1        0.0980
     25  C         25.5290  -20.8860  -12.7360 C.3     1  UNL1        0.2730
     26  C         26.3970  -20.9560  -13.9850 C.3     1  UNL1        0.0320
     27  C         25.7660  -22.0420  -14.8520 C.3     1  UNL1        0.0320
     28  C         24.6310  -22.6090  -14.0120 C.3     1  UNL1        0.2730
@<TRIPOS>BOND
     1    27    28    1
     2    27    26    1
     3    28    24    1
     4    26    25    1
     5    24    25    1
     6    24    10    1
     7    22     1    1
     8    22    23    1
     9     1    10    1
    10     1     2    1
    11    10     9    1
    12     3     2    2
    13     3     4    1
    14     2     7    1
    15     9     8    1
    16     4     5    2
    17     7     8    1
    18     7     6    2
    19     5     6    1
    20     5    11    1
    21    12    11    2
    22    12    13    1
    23    11    18    1
    24    14    13    1
    25    13    15    2
    26    18    21    1
    27    18    16    2
    28    21    20    2
    29    15    16    1
    30    16    17    1
    31    20    19    1
    32    17    19    2
