@<TRIPOS>MOLECULE
tr13290_out_ligand_01.pdbqt
 36 41 0 0 0
SMALL
GASTEIGER

@<TRIPOS>ATOM
      1  N         20.3600  -23.8650   -9.4660 N.ar    1  UNL1       -0.1680
      2  C         19.8910  -22.8350  -10.2970 C.ar    1  UNL1        0.0800
      3  C         18.6140  -22.4820  -10.6690 C.2     1  UNL1        0.0320
      4  C         18.4660  -21.4040  -11.5540 C.2     1  UNL1        0.0020
      5  C         19.5830  -20.6980  -12.0520 C.2     1  UNL1        0.0020
      6  C         20.8830  -21.0400  -11.6760 C.2     1  UNL1        0.0330
      7  C         20.9930  -22.0960  -10.8030 C.ar    1  UNL1        0.0870
      8  N         22.0950  -22.6700  -10.1870 N.ar    1  UNL1       -0.1170
      9  C         23.4400  -22.5740  -10.0640 C.ar    1  UNL1        0.2110
     10  N         23.8580  -23.5090   -9.2280 N.ar    1  UNL1       -0.1070
     11  N         22.7420  -24.2230   -8.7710 N.ar    1  UNL1        0.0450
     12  C         21.7050  -23.7040   -9.3760 C.ar    1  UNL1        0.7350
     13  S         24.4430  -21.4280  -10.8720 S.3     1  UNL1       -0.0800
     14  C         25.6910  -22.4880  -11.6500 C.3     1  UNL1        0.1850
     15  C         25.3100  -22.9410  -13.0520 C.2     1  UNL1        0.2340
     16  O         24.9370  -24.1080  -13.2000 O.2     1  UNL1       -0.2720
     17  N         25.4280  -22.0130  -14.0710 N.am    1  UNL1       -0.3170
     18  C         25.8410  -20.6040  -13.9310 C.2     1  UNL1        0.1370
     19  C         25.0950  -22.2380  -15.4230 C.2     1  UNL1        0.0430
     20  C         25.8650  -19.9790  -15.3310 C.2     1  UNL1        0.0610
     21  C         25.3230  -21.0840  -16.1760 C.2     1  UNL1       -0.0300
     22  C         25.0700  -21.0480  -17.5390 C.2     1  UNL1        0.0090
     23  C         24.5750  -22.2000  -18.1530 C.2     1  UNL1        0.0010
     24  C         24.3440  -23.3620  -17.4000 C.2     1  UNL1        0.0020
     25  C         24.6060  -23.3850  -16.0260 C.2     1  UNL1        0.0300
     26  C         19.5640  -24.4650   -8.4040 C.3     1  UNL1        0.2500
     27  C         19.1410  -23.4000   -7.3890 C.2     1  UNL1        0.2360
     28  O         19.8280  -22.4100   -7.1550 O.2     1  UNL1       -0.2720
     29  N         17.9410  -23.6790   -6.7610 N.am    1  UNL1       -0.3550
     30  H         17.3910  -24.4140   -7.1980 H       1  UNL1        0.1620
     31  C         17.2430  -22.7610   -5.8720 C.3     1  UNL1        0.0840
     32  C         16.9690  -23.4000   -4.5040 C.3     1  UNL1        0.0250
     33  C         16.0960  -22.4880   -3.6510 C.3     1  UNL1        0.0020
     34  C         14.7410  -22.2010   -4.3000 C.3     1  UNL1        0.0000
     35  C         14.6960  -22.4990   -5.7980 C.3     1  UNL1        0.0020
     36  C         15.9940  -22.1180   -6.5070 C.3     1  UNL1        0.0250
@<TRIPOS>BOND
     1    23    22    2
     2    23    24    1
     3    22    21    1
     4    24    25    2
     5    21    19    2
     6    21    20    1
     7    25    19    1
     8    19    17    1
     9    20    18    2
    10    17    18    1
    11    17    15   am
    12    16    15    2
    13    15    14    1
    14     5     6    2
    15     5     4    1
    16     6     7    1
    17    14    13    1
    18     4     3    2
    19    13     9    1
    20     7     2   ar
    21     7     8   ar
    22     3     2    1
    23     2     1   ar
    24     8     9   ar
    25     8    12   ar
    26     9    10   ar
    27     1    12   ar
    28     1    26    1
    29    12    11   ar
    30    10    11   ar
    31    26    27    1
    32    27    28    2
    33    27    29   am
    34    30    29    1
    35    29    31    1
    36    36    31    1
    37    36    35    1
    38    31    32    1
    39    35    34    1
    40    32    33    1
    41    34    33    1
