@<TRIPOS>MOLECULE
tr13422_out_ligand_01.pdbqt
 32 35 0 0 0
SMALL
GASTEIGER

@<TRIPOS>ATOM
      1  C         25.5280  -22.4960  -12.5890 C.2     1  UNL1        0.0280
      2  C         25.9520  -21.1310  -13.0740 C.2     1  UNL1        0.0440
      3  C         26.3670  -20.0940  -12.0530 C.3     1  UNL1        0.0710
      4  N         25.9960  -20.7590  -14.3210 N.2     1  UNL1       -0.2320
      5  C         25.6550  -21.6850  -15.2630 C.2     1  UNL1        0.1760
      6  C         25.5930  -21.6240  -16.6370 C.2     1  UNL1        0.1110
      7  C         25.8790  -20.4970  -17.4550 C.1     1  UNL1        0.1050
      8  N         26.1030  -19.5980  -18.1530 N.1     1  UNL1       -0.1910
      9  C         25.1970  -22.9000  -17.0500 C.2     1  UNL1        0.1660
     10  N         25.0120  -23.7350  -16.0280 N.2     1  UNL1       -0.1740
     11  N         25.2880  -22.9910  -14.9180 N.pl3   1  UNL1       -0.1910
     12  C         25.2390  -23.3830  -13.5660 C.2     1  UNL1        0.1740
     13  O         24.8750  -24.6920  -13.2760 O.2     1  UNL1       -0.3440
     14  H         24.9710  -24.8340  -12.3070 H       1  UNL1        0.2190
     15  C         25.3850  -22.7820  -11.1200 C.3     1  UNL1        0.1480
     16  C         24.0290  -22.2960  -10.6290 C.2     1  UNL1        0.2280
     17  N         22.9700  -22.8780  -11.2850 N.am    1  UNL1       -0.3050
     18  H         23.0990  -23.6030  -11.9740 H       1  UNL1        0.1710
     19  O         23.9810  -21.4600   -9.7280 O.2     1  UNL1       -0.2730
     20  C         21.6740  -22.5330  -11.0160 C.2     1  UNL1        0.1730
     21  S         21.0050  -21.4210  -12.1240 S.3     1  UNL1       -0.0610
     22  C         19.5300  -21.4730  -11.2480 C.2     1  UNL1        0.0850
     23  C         19.6570  -22.3240  -10.1630 C.2     1  UNL1        0.0770
     24  N         20.8970  -22.9280  -10.0450 N.2     1  UNL1       -0.2230
     25  C         18.5790  -22.5840   -9.2110 C.2     1  UNL1       -0.0010
     26  C         17.2980  -22.9010   -9.6970 C.2     1  UNL1        0.0150
     27  C         16.2360  -23.1470   -8.8240 C.2     1  UNL1        0.0070
     28  C         16.4300  -23.0840   -7.4430 C.2     1  UNL1       -0.0610
     29  C         15.2840  -23.3030   -6.5010 C.3     1  UNL1        0.0480
     30  C         17.6980  -22.7480   -6.9520 C.2     1  UNL1        0.0140
     31  C         18.7820  -22.5090   -7.8180 C.2     1  UNL1       -0.0490
     32  C         20.1140  -22.1480   -7.2120 C.3     1  UNL1        0.0490
@<TRIPOS>BOND
     1     8     7    3
     2     7     6    1
     3     9     6    1
     4     9    10    2
     5     6     5    2
     6    10    11    1
     7     5    11    1
     8     5     4    1
     9    11    12    1
    10     4     2    2
    11    12    13    1
    12    12     1    2
    13    13    14    1
    14     2     1    1
    15     2     3    1
    16     1    15    1
    17    21    22    1
    18    21    20    1
    19    18    17    1
    20    17    20    1
    21    17    16   am
    22    22    23    2
    23    15    16    1
    24    20    24    2
    25    16    19    2
    26    23    24    1
    27    23    25    1
    28    26    25    2
    29    26    27    1
    30    25    31    1
    31    27    28    2
    32    31    32    1
    33    31    30    2
    34    28    30    1
    35    28    29    1
