@<TRIPOS>MOLECULE
tr13764_out_ligand_01.pdbqt
 28 31 0 0 0
SMALL
GASTEIGER

@<TRIPOS>ATOM
      1  C         20.5600  -22.5530  -10.1250 C.ar    1  UNL1        0.0980
      2  S         22.0580  -23.3280   -9.9030 S.2     1  UNL1       -0.0750
      3  C         22.7280  -22.6010  -11.2820 C.ar    1  UNL1       -0.0070
      4  C         21.8330  -21.7750  -11.9340 C.ar    1  UNL1       -0.0210
      5  C         20.5730  -21.7450  -11.2510 C.ar    1  UNL1        0.0850
      6  C         19.4410  -20.9700  -11.6610 C.1     1  UNL1        0.1030
      7  N         18.4860  -20.3680  -11.9340 N.1     1  UNL1       -0.1910
      8  C         22.2170  -21.0150  -13.1730 C.3     1  UNL1        0.0410
      9  C         23.4990  -21.5720  -13.8110 C.3     1  UNL1        0.0050
     10  C         24.5860  -21.8430  -12.7600 C.3     1  UNL1        0.0050
     11  C         24.1310  -22.8830  -11.7260 C.3     1  UNL1        0.0470
     12  N         19.4910  -22.7470   -9.2540 N.am    1  UNL1       -0.3140
     13  C         18.2060  -23.1710   -9.5800 C.2     1  UNL1        0.2790
     14  O         17.8110  -23.4470  -10.7080 O.2     1  UNL1       -0.2650
     15  H         19.7010  -22.5540   -8.2790 H       1  UNL1        0.1700
     16  C         17.2930  -23.2830   -8.4040 C.3     1  UNL1        0.1720
     17  N         17.5170  -22.7540   -7.1650 N.3     1  UNL1       -0.1410
     18  N         18.5000  -21.9930   -6.5850 N.pl3   1  UNL1       -0.1500
     19  N         16.4170  -23.0840   -6.3090 N.pl3   1  UNL1       -0.1240
     20  C         17.8920  -21.8480   -5.1750 C.2     1  UNL1        0.1060
     21  C         18.5730  -21.0930   -4.1080 C.3     1  UNL1        0.0770
     22  C         16.6130  -22.5370   -5.0540 C.2     1  UNL1        0.2420
     23  N         15.4290  -23.8590   -7.0280 N.2     1  UNL1       -0.1500
     24  C         16.0790  -23.9000   -8.2510 C.2     1  UNL1        0.0890
     25  C         15.3300  -24.6380   -9.3220 C.3     1  UNL1        0.0750
     26  N         15.7400  -22.6310   -3.9510 N.pl3   1  UNL1       -0.0920
     27  O         14.7950  -21.8390   -3.8800 O.2     1  UNL1       -0.5300
     28  O         15.9880  -23.5480   -3.1530 O.2     1  UNL1       -0.5300
@<TRIPOS>BOND
     1     9     8    1
     2     9    10    1
     3     8     4    1
     4    10    11    1
     5     4     3   ar
     6     4     5   ar
     7     7     6    3
     8    11     3    1
     9     6     5    1
    10     3     2   ar
    11     5     1   ar
    12    14    13    2
    13     1     2   ar
    14     1    12    1
    15    13    12   am
    16    13    16    1
    17    25    24    1
    18    12    15    1
    19    16    24    1
    20    16    17    1
    21    24    23    2
    22    17    18    1
    23    17    19    1
    24    23    19    1
    25    18    20    1
    26    19    22    1
    27    20    22    2
    28    20    21    1
    29    22    26    1
    30    26    27    2
    31    26    28    2
