@<TRIPOS>MOLECULE
tr13605_out_ligand_01.pdbqt
 34 39 0 0 0
SMALL
GASTEIGER

@<TRIPOS>ATOM
      1  N         19.2870  -21.3850  -10.9320 N.pl3   1  UNL1       -0.2500
      2  N         18.3800  -20.8620  -11.7990 N.2     1  UNL1       -0.1820
      3  C         17.2040  -21.3070  -11.3330 C.2     1  UNL1        0.1600
      4  C         17.3630  -22.1320  -10.2140 C.2     1  UNL1        0.0990
      5  C         16.4710  -22.8610   -9.3590 C.2     1  UNL1        0.2640
      6  O         15.2520  -22.8000   -9.4760 O.2     1  UNL1       -0.2670
      7  N         17.1510  -23.6010   -8.3830 N.am    1  UNL1       -0.3030
      8  C         18.5380  -23.5400   -8.2470 C.2     1  UNL1        0.2150
      9  N         19.3530  -22.8600   -8.9980 N.2     1  UNL1       -0.2230
     10  C         18.7130  -22.1770   -9.9750 C.2     1  UNL1        0.1640
     11  C         20.7040  -21.1250  -11.1130 C.3     1  UNL1        0.1720
     12  C         21.0950  -21.1930  -12.5860 C.3     1  UNL1        0.1440
     13  N         22.4320  -21.7340  -12.7880 N.am    1  UNL1       -0.3590
     14  C         23.2360  -21.2620  -13.8040 C.2     1  UNL1        0.2260
     15  O         22.9240  -20.2800  -14.4750 O.2     1  UNL1       -0.2730
     16  H         22.5670  -22.6960  -12.4970 H       1  UNL1        0.1620
     17  C         24.5360  -22.0520  -14.0340 C.3     1  UNL1        0.0420
     18  C         24.5890  -22.6150  -15.4750 C.3     1  UNL1        0.0240
     19  C         25.8830  -23.4200  -15.6930 C.3     1  UNL1       -0.0130
     20  C         27.0960  -22.5040  -15.4530 C.3     1  UNL1        0.0090
     21  C         25.9280  -24.5890  -14.6960 C.3     1  UNL1        0.0090
     22  C         27.0720  -21.9590  -14.0140 C.3     1  UNL1       -0.0130
     23  C         27.1110  -23.1370  -13.0270 C.3     1  UNL1        0.0090
     24  C         25.7770  -21.1560  -13.7990 C.3     1  UNL1        0.0240
     25  C         25.8980  -24.0540  -13.2550 C.3     1  UNL1       -0.0130
     26  C         24.6090  -23.2450  -13.0440 C.3     1  UNL1        0.0240
     27  C         16.3770  -24.4000   -7.4470 C.3     1  UNL1        0.1740
     28  C         16.1020  -23.6840   -6.1470 C.2     1  UNL1       -0.0010
     29  C         14.9750  -22.8590   -6.0010 C.2     1  UNL1        0.0120
     30  C         14.7270  -22.2070   -4.7890 C.2     1  UNL1        0.0010
     31  C         15.5970  -22.3730   -3.7110 C.2     1  UNL1        0.0030
     32  C         16.7160  -23.1930   -3.8430 C.2     1  UNL1        0.0430
     33  C         16.9570  -23.8400   -5.0520 C.2     1  UNL1        0.1240
     34  F         18.0380  -24.6250   -5.1540 F       1  UNL1       -0.2050
@<TRIPOS>BOND
     1    19    18    1
     2    19    20    1
     3    19    21    1
     4    18    17    1
     5    20    22    1
     6    21    25    1
     7    15    14    2
     8    17    14    1
     9    17    24    1
    10    17    26    1
    11    22    24    1
    12    22    23    1
    13    14    13   am
    14    25    26    1
    15    25    23    1
    16    13    12    1
    17    13    16    1
    18    12    11    1
    19     2     3    2
    20     2     1    1
    21     3     4    1
    22    11     1    1
    23     1    10    1
    24     4    10    2
    25     4     5    1
    26    10     9    1
    27     6     5    2
    28     5     7   am
    29     9     8    2
    30     7     8    1
    31     7    27    1
    32    27    28    1
    33    28    29    2
    34    28    33    1
    35    29    30    1
    36    34    33    1
    37    33    32    2
    38    30    31    2
    39    32    31    1
