@<TRIPOS>MOLECULE
tr1347_out_ligand_01.pdbqt
 34 38 0 0 0
SMALL
GASTEIGER

@<TRIPOS>ATOM
      1  N         20.5520  -22.0890  -10.6180 N.am    1  UNL1       -0.3510
      2  C         20.9990  -21.2470  -11.6140 C.2     1  UNL1        0.2700
      3  O         20.3950  -20.2560  -12.0080 O.2     1  UNL1       -0.2660
      4  H         21.0970  -22.9400  -10.4880 H       1  UNL1        0.1630
      5  C         19.2270  -21.9760  -10.0230 C.3     1  UNL1        0.0890
      6  C         19.1870  -22.6730   -8.6390 C.3     1  UNL1        0.0660
      7  C         17.7860  -22.8250   -8.1510 C.ar    1  UNL1       -0.0210
      8  C         16.6950  -22.6890   -8.9830 C.ar    1  UNL1        0.0170
      9  C         17.2960  -23.1410   -6.8530 C.ar    1  UNL1       -0.0010
     10  N         15.5630  -22.8960   -8.2470 N.ar    1  UNL1       -0.3580
     11  C         16.7260  -22.3420  -10.4280 C.3     1  UNL1        0.0590
     12  C         15.9020  -23.1770   -6.9400 C.ar    1  UNL1        0.0430
     13  H         14.6160  -22.8510   -8.5950 H       1  UNL1        0.1660
     14  C         15.0870  -23.4540   -5.8370 C.2     1  UNL1        0.0310
     15  C         15.7140  -23.7070   -4.6120 C.2     1  UNL1        0.0090
     16  C         17.1070  -23.6960   -4.4870 C.2     1  UNL1       -0.0610
     17  C         17.7500  -23.9380   -3.1530 C.3     1  UNL1        0.0480
     18  C         17.9030  -23.4000   -5.6070 C.2     1  UNL1        0.0210
     19  C         18.1490  -22.5400  -10.9790 C.3     1  UNL1        0.0310
     20  C         22.3110  -21.6520  -12.2120 C.2     1  UNL1        0.1270
     21  C         23.2850  -22.2500  -11.4200 C.2     1  UNL1        0.0450
     22  C         24.5040  -22.6150  -12.0030 C.2     1  UNL1       -0.0400
     23  C         25.5580  -23.2630  -11.1540 C.3     1  UNL1        0.0490
     24  C         24.6780  -22.3500  -13.3720 C.3     1  UNL1        0.0860
     25  C         25.9000  -22.6710  -14.1400 C.2     1  UNL1        0.2630
     26  C         23.6450  -21.7430  -14.0890 C.2     1  UNL1        0.1700
     27  O         26.8850  -23.2030  -13.6440 O.2     1  UNL1       -0.2670
     28  N         25.8870  -22.3380  -15.4700 N.am    1  UNL1       -0.2870
     29  C         24.8170  -21.7470  -16.0530 C.2     1  UNL1        0.2480
     30  H         26.7260  -22.5630  -15.9780 H       1  UNL1        0.1720
     31  N         23.7270  -21.4390  -15.4520 N.2     1  UNL1       -0.1880
     32  N         22.4670  -21.3880  -13.5350 N.2     1  UNL1       -0.2230
     33  O         24.9640  -21.4840  -17.3590 O.2     1  UNL1       -0.3310
     34  H         24.8740  -22.2660  -17.9170 H       1  UNL1        0.2210
@<TRIPOS>BOND
     1    34    33    1
     2    33    29    1
     3    29    28    1
     4    29    31    2
     5    30    28    1
     6    28    25   am
     7    31    26    2
     8    25    27    2
     9    25    24    1
    10    26    32    1
    11    26    24    1
    12    32    20    2
    13    24    22    1
    14    20     2    1
    15    20    21    1
    16     3     2    2
    17    22    21    2
    18    22    23    1
    19     2     1   am
    20    19    11    1
    21    19     5    1
    22     1     4    1
    23     1     5    1
    24    11     8    1
    25     5     6    1
    26     8    10   ar
    27     8     7   ar
    28     6     7    1
    29    13    10    1
    30    10    12   ar
    31     7     9   ar
    32    12     9   ar
    33    12    14    1
    34     9    18    1
    35    14    15    2
    36    18    16    2
    37    15    16    1
    38    16    17    1
