@<TRIPOS>MOLECULE
tr13423_out_ligand_01.pdbqt
 24 27 0 0 0
SMALL
GASTEIGER

@<TRIPOS>ATOM
      1  C         17.8180  -21.8250   -4.3960 C.2     1  UNL1        0.0190
      2  C         18.6700  -20.7230   -4.3810 C.2     1  UNL1        0.0430
      3  C         19.5980  -20.5970   -5.3880 C.2     1  UNL1        0.1190
      4  N         19.7120  -21.4630   -6.4110 N.2     1  UNL1       -0.2590
      5  C         18.8430  -22.4950   -6.5020 C.2     1  UNL1        0.0790
      6  C         18.9130  -23.3800   -7.5990 C.2     1  UNL1        0.0060
      7  C         17.9980  -24.4450   -7.7080 C.2     1  UNL1        0.0150
      8  C         17.0130  -24.6410   -6.7520 C.2     1  UNL1        0.0020
      9  C         16.9400  -23.7780   -5.6640 C.2     1  UNL1        0.0150
     10  C         17.8500  -22.7070   -5.5100 C.2     1  UNL1        0.0150
     11  C         19.9430  -23.2140   -8.6570 C.2     1  UNL1        0.0060
     12  C         21.1880  -23.8610   -8.4970 C.2     1  UNL1        0.0180
     13  C         22.1860  -23.7370   -9.4550 C.2     1  UNL1        0.0440
     14  C         21.9420  -22.9660  -10.5790 C.2     1  UNL1        0.1290
     15  F         22.9150  -22.8540  -11.4970 F       1  UNL1       -0.2050
     16  C         20.7180  -22.3130  -10.7710 C.2     1  UNL1        0.0320
     17  C         20.4830  -21.5350  -11.9160 C.2     1  UNL1        0.0180
     18  C         19.6930  -22.4320   -9.8060 C.2     1  UNL1        0.0810
     19  C         19.2630  -20.8970  -12.0870 C.2     1  UNL1        0.0200
     20  C         18.3130  -21.0650  -11.1030 C.2     1  UNL1        0.1170
     21  N         18.5030  -21.8100   -9.9930 N.2     1  UNL1       -0.2590
     22  N         16.8210  -21.9010   -3.3980 N.pl3   1  UNL1       -0.3020
     23  H         16.2870  -22.7630   -3.4210 H       1  UNL1        0.1240
     24  H         17.1650  -21.7070   -2.4630 H       1  UNL1        0.1240
@<TRIPOS>BOND
     1    19    17    2
     2    19    20    1
     3    17    16    1
     4    15    14    1
     5    20    21    2
     6    16    14    2
     7    16    18    1
     8    14    13    1
     9    21    18    1
    10    18    11    2
    11    13    12    2
    12    11    12    1
    13    11     6    1
    14     7     6    2
    15     7     8    1
    16     6     5    1
    17     8     9    2
    18     5     4    2
    19     5    10    1
    20     4     3    1
    21     9    10    1
    22    10     1    2
    23     3     2    2
    24     1     2    1
    25     1    22    1
    26    23    22    1
    27    22    24    1
