@<TRIPOS>MOLECULE
tr13189_out_ligand_01.pdbqt
 34 36 0 0 0
SMALL
GASTEIGER

@<TRIPOS>ATOM
      1  C         18.8080  -23.1650   -7.1310 C.ar    1  UNL1        0.1590
      2  N         19.0400  -24.1980   -7.8940 N.ar    1  UNL1       -0.1410
      3  N         20.2870  -24.3530   -8.5070 N.ar    1  UNL1       -0.1240
      4  C         21.1770  -23.4290   -8.3720 C.ar    1  UNL1        0.1910
      5  N         21.0130  -22.3040   -7.6460 N.ar    1  UNL1       -0.2990
      6  C         19.8890  -22.1190   -6.9020 C.ar    1  UNL1        0.2790
      7  O         19.7660  -21.2120   -6.0950 O.2     1  UNL1       -0.2650
      8  H         21.7540  -21.6150   -7.5850 H       1  UNL1        0.1710
      9  S         22.7330  -23.5960   -9.1240 S.3     1  UNL1       -0.0810
     10  C         23.1370  -21.8440   -9.3620 C.3     1  UNL1        0.1850
     11  C         24.0460  -21.6770  -10.5770 C.2     1  UNL1        0.2310
     12  O         25.0340  -20.9450  -10.5290 O.2     1  UNL1       -0.2720
     13  N         23.6340  -22.4160  -11.6730 N.am    1  UNL1       -0.3260
     14  H         22.8290  -23.0200  -11.5500 H       1  UNL1        0.1690
     15  C         24.2350  -22.4700  -12.9500 C.2     1  UNL1        0.0360
     16  C         23.8230  -21.5140  -13.8860 C.2     1  UNL1        0.0300
     17  C         24.3650  -21.4920  -15.1750 C.2     1  UNL1        0.0110
     18  C         25.3360  -22.4250  -15.5570 C.2     1  UNL1       -0.0400
     19  C         25.9000  -22.3830  -16.9500 C.3     1  UNL1        0.0500
     20  C         25.7480  -23.3790  -14.6160 C.2     1  UNL1        0.0420
     21 CL         26.9440  -24.5650  -15.0080 Cl      1  UNL1       -0.0840
     22  C         25.2040  -23.4010  -13.3240 C.2     1  UNL1        0.0530
     23  C         17.4730  -23.0440   -6.4650 C.2     1  UNL1        0.0270
     24  C         17.3010  -23.5540   -5.1650 C.2     1  UNL1        0.0230
     25  C         16.0610  -23.4790   -4.5200 C.2     1  UNL1       -0.0610
     26  C         14.9850  -22.9010   -5.1940 C.2     1  UNL1        0.0090
     27  C         15.8800  -24.0690   -3.1530 C.3     1  UNL1        0.0480
     28  C         15.1490  -22.3700   -6.4770 C.2     1  UNL1        0.0310
     29  C         16.3880  -22.4180   -7.1250 C.2     1  UNL1        0.0470
     30  N         16.5820  -21.8550   -8.4130 N.am    1  UNL1       -0.3270
     31  C         16.3610  -22.4280   -9.6490 C.2     1  UNL1        0.2180
     32  C         16.6270  -21.4630  -10.7790 C.3     1  UNL1        0.1170
     33  O         15.9790  -23.5700   -9.8780 O.2     1  UNL1       -0.2740
     34  H         16.8640  -20.8730   -8.4140 H       1  UNL1        0.1690
@<TRIPOS>BOND
     1    19    18    1
     2    18    17    2
     3    18    20    1
     4    17    16    1
     5    21    20    1
     6    20    22    2
     7    16    15    2
     8    22    15    1
     9    15    13    1
    10    13    14    1
    11    13    11   am
    12    32    31    1
    13    11    12    2
    14    11    10    1
    15    33    31    2
    16    31    30   am
    17    10     9    1
    18     9     4    1
    19     3     4   ar
    20     3     2   ar
    21    34    30    1
    22    30    29    1
    23     4     5   ar
    24     2     1   ar
    25     5     8    1
    26     5     6   ar
    27     1     6   ar
    28     1    23    1
    29    29    28    1
    30    29    23    2
    31     6     7    2
    32    28    26    2
    33    23    24    1
    34    26    25    1
    35    24    25    2
    36    25    27    1
