@<TRIPOS>MOLECULE
tr13349_out_ligand_01.pdbqt
 34 37 0 0 0
SMALL
GASTEIGER

@<TRIPOS>ATOM
      1  C         17.1020  -21.5740  -11.0200 C.3     1  UNL1        0.0480
      2  C         18.5980  -21.5700  -11.1430 C.2     1  UNL1       -0.0600
      3  C         19.2240  -20.8170  -12.1380 C.2     1  UNL1        0.0070
      4  C         20.6090  -20.8650  -12.2820 C.2     1  UNL1        0.0140
      5  C         21.3840  -21.6680  -11.4350 C.2     1  UNL1       -0.0080
      6  C         22.8300  -21.7210  -11.6170 C.2     1  UNL1        0.0270
      7  C         23.6020  -22.5010  -10.8440 C.2     1  UNL1        0.0240
      8  C         22.9750  -23.3370   -9.7750 C.2     1  UNL1        0.2560
      9  O         23.6850  -24.0780   -9.0930 O.2     1  UNL1       -0.2670
     10  N         21.6030  -23.2260   -9.5760 N.am    1  UNL1       -0.3040
     11  C         20.7760  -22.4290  -10.4260 C.2     1  UNL1        0.0480
     12  C         19.3780  -22.3800  -10.3020 C.2     1  UNL1        0.0370
     13  C         21.0360  -24.0280   -8.4970 C.3     1  UNL1        0.2350
     14  C         20.0550  -23.2350   -7.6150 C.2     1  UNL1        0.2400
     15  O         20.3920  -22.2060   -7.0370 O.2     1  UNL1       -0.2710
     16  N         18.8200  -23.8600   -7.5070 N.am    1  UNL1       -0.3260
     17  H         18.6580  -24.6610   -8.1040 H       1  UNL1        0.1690
     18  C         17.7210  -23.4710   -6.7100 C.2     1  UNL1        0.0350
     19  C         16.7020  -22.7490   -7.3380 C.2     1  UNL1        0.0300
     20  C         15.5720  -22.3390   -6.6250 C.2     1  UNL1        0.0090
     21  C         15.4350  -22.6430   -5.2650 C.2     1  UNL1       -0.0560
     22  C         14.2120  -22.1790   -4.5230 C.3     1  UNL1        0.0490
     23  C         16.4600  -23.3630   -4.6200 C.2     1  UNL1       -0.0540
     24  C         16.3820  -23.6940   -3.1530 C.3     1  UNL1        0.0490
     25  C         17.5910  -23.7710   -5.3530 C.2     1  UNL1        0.0370
     26  C         25.1000  -22.6470  -10.9520 C.3     1  UNL1        0.1360
     27  N         25.4560  -23.7910  -11.7960 N.pl3   1  UNL1       -0.2890
     28  H         24.8730  -24.6020  -11.5970 H       1  UNL1        0.1280
     29  C         25.5810  -23.6140  -13.1810 C.2     1  UNL1        0.0080
     30  C         25.2370  -24.5860  -14.1280 C.2     1  UNL1        0.0230
     31  C         25.3200  -24.3200  -15.5000 C.2     1  UNL1        0.0020
     32  C         25.7180  -23.0630  -15.9500 C.2     1  UNL1        0.0000
     33  C         26.0220  -22.0690  -15.0250 C.2     1  UNL1        0.0020
     34  C         25.9370  -22.3410  -13.6570 C.2     1  UNL1        0.0230
@<TRIPOS>BOND
     1    32    31    2
     2    32    33    1
     3    31    30    1
     4    33    34    2
     5    30    29    2
     6    34    29    1
     7    29    27    1
     8     4     3    1
     9     4     5    2
    10     3     2    2
    11    27    28    1
    12    27    26    1
    13     6     5    1
    14     6     7    2
    15     5    11    1
    16     2     1    1
    17     2    12    1
    18    26     7    1
    19     7     8    1
    20    11    12    2
    21    11    10    1
    22     8    10   am
    23     8     9    2
    24    10    13    1
    25    13    14    1
    26    17    16    1
    27    14    16   am
    28    14    15    2
    29    16    18    1
    30    19    18    2
    31    19    20    1
    32    18    25    1
    33    20    21    2
    34    25    23    2
    35    21    23    1
    36    21    22    1
    37    23    24    1
