@<TRIPOS>MOLECULE
tr13583_out_ligand_01.pdbqt
 28 31 0 0 0
SMALL
GASTEIGER

@<TRIPOS>ATOM
      1  C         18.3490  -22.4550   -7.8510 C.ar    1  UNL1        0.0980
      2  S         19.0110  -21.9690   -6.3490 S.2     1  UNL1       -0.0750
      3  C         17.6850  -22.5820   -5.4900 C.ar    1  UNL1       -0.0070
      4  C         16.7160  -23.1090   -6.3210 C.ar    1  UNL1       -0.0210
      5  C         17.1000  -23.0290   -7.7110 C.ar    1  UNL1        0.0850
      6  C         16.2200  -23.4650   -8.7600 C.1     1  UNL1        0.1030
      7  N         15.4130  -23.8090   -9.5210 N.1     1  UNL1       -0.1910
      8  C         15.4440  -23.6990   -5.7720 C.3     1  UNL1        0.0410
      9  C         15.2040  -23.2920   -4.3100 C.3     1  UNL1        0.0050
     10  C         16.4820  -23.4130   -3.4710 C.3     1  UNL1        0.0050
     11  C         17.5940  -22.4940   -3.9970 C.3     1  UNL1        0.0470
     12  N         19.2250  -22.1440   -8.8730 N.am    1  UNL1       -0.3140
     13  C         19.9710  -23.0540   -9.5970 C.2     1  UNL1        0.2790
     14  O         19.9860  -24.2580   -9.3800 O.2     1  UNL1       -0.2650
     15  H         19.3660  -21.1480   -9.0010 H       1  UNL1        0.1700
     16  C         20.8080  -22.4460  -10.6670 C.3     1  UNL1        0.1720
     17  N         22.1600  -22.5870  -10.8030 N.3     1  UNL1       -0.1410
     18  N         23.1530  -23.2610  -10.1390 N.pl3   1  UNL1       -0.1500
     19  N         22.5920  -21.8430  -11.9500 N.pl3   1  UNL1       -0.1240
     20  C         24.3540  -22.8500  -11.0190 C.2     1  UNL1        0.1060
     21  C         25.7240  -23.3070  -10.7290 C.3     1  UNL1        0.0770
     22  C         23.9560  -21.9780  -12.1170 C.2     1  UNL1        0.2420
     23  N         21.4680  -21.1920  -12.5870 N.2     1  UNL1       -0.1500
     24  C         20.4800  -21.6350  -11.7210 C.2     1  UNL1        0.0890
     25  C         19.0980  -21.1680  -12.0680 C.3     1  UNL1        0.0750
     26  N         24.7410  -21.4040  -13.1400 N.pl3   1  UNL1       -0.0920
     27  O         25.5320  -20.5050  -12.8400 O.2     1  UNL1       -0.5300
     28  O         24.5830  -21.8950  -14.2670 O.2     1  UNL1       -0.5300
@<TRIPOS>BOND
     1    28    26    2
     2    26    27    2
     3    26    22    1
     4    23    19    1
     5    23    24    2
     6    22    19    1
     7    22    20    2
     8    25    24    1
     9    19    17    1
    10    24    16    1
    11    20    21    1
    12    20    18    1
    13    17    16    1
    14    17    18    1
    15    16    13    1
    16    13    14    2
    17    13    12   am
    18     7     6    3
    19    15    12    1
    20    12     1    1
    21     6     5    1
    22     1     5   ar
    23     1     2   ar
    24     5     4   ar
    25     2     3   ar
    26     4     8    1
    27     4     3   ar
    28     8     9    1
    29     3    11    1
    30     9    10    1
    31    11    10    1
