@<TRIPOS>MOLECULE
tr13643_out_ligand_01.pdbqt
 26 29 0 0 0
SMALL
GASTEIGER

@<TRIPOS>ATOM
      1  C         20.5430  -20.8850  -12.0370 C.3     1  UNL1        0.0510
      2  C         19.8220  -21.7930  -11.1010 C.ar    1  UNL1       -0.0220
      3  C         18.4500  -21.7920  -10.8560 C.ar    1  UNL1        0.0160
      4  C         17.3930  -20.9130  -11.4400 C.3     1  UNL1        0.0690
      5  N         18.1850  -22.8090   -9.9600 N.ar    1  UNL1       -0.3320
      6  C         19.3590  -23.4310   -9.6040 C.ar    1  UNL1        0.1460
      7  N         19.4510  -24.4600   -8.7430 N.2     1  UNL1       -0.2230
      8  C         20.7150  -24.8730   -8.5910 C.2     1  UNL1        0.2370
      9  N         21.8150  -24.3860   -9.1830 N.2     1  UNL1       -0.2230
     10  C         21.6870  -23.3560  -10.0420 C.2     1  UNL1        0.1460
     11  C         20.4040  -22.8290  -10.2910 C.ar    1  UNL1        0.0640
     12  N         22.8080  -22.8170  -10.6720 N.am    1  UNL1       -0.3050
     13  C         23.5370  -21.7310  -10.2490 C.2     1  UNL1        0.2770
     14  O         23.3580  -21.0410   -9.2560 O.2     1  UNL1       -0.2650
     15  H         23.1300  -23.2460  -11.5290 H       1  UNL1        0.1700
     16  C         24.6340  -21.4610  -11.1740 C.2     1  UNL1        0.1480
     17  C         24.7740  -21.9510  -12.4510 C.2     1  UNL1        0.1800
     18  O         25.9320  -21.4590  -12.9710 O.2     1  UNL1       -0.3140
     19  C         26.4400  -20.6880  -11.9720 C.2     1  UNL1        0.2580
     20  N         25.7190  -20.6440  -10.8740 N.2     1  UNL1       -0.2290
     21  C         16.8920  -23.1820   -9.4060 C.3     1  UNL1        0.1620
     22  C         16.8070  -23.1720   -7.8780 C.3     1  UNL1        0.1390
     23  C         16.1910  -24.3940   -7.2120 C.3     1  UNL1        0.0350
     24  C         15.8010  -23.8320   -5.8680 C.3     1  UNL1        0.0290
     25  C         15.3160  -22.4470   -6.2400 C.3     1  UNL1        0.1680
     26  O         16.0740  -22.0320   -7.3880 O.3     1  UNL1       -0.3840
@<TRIPOS>BOND
     1    18    17    1
     2    18    19    1
     3    17    16    2
     4     1     2    1
     5    19    20    2
     6    15    12    1
     7     4     3    1
     8    16    20    1
     9    16    13    1
    10     2     3   ar
    11     2    11   ar
    12     3     5   ar
    13    12    13   am
    14    12    10    1
    15    11    10    1
    16    11     6   ar
    17    13    14    2
    18    10     9    2
    19     5     6   ar
    20     5    21    1
    21     6     7    1
    22    21    22    1
    23     9     8    1
    24     7     8    2
    25    22    26    1
    26    22    23    1
    27    26    25    1
    28    23    24    1
    29    25    24    1
