@<TRIPOS>MOLECULE
tr13337_out_ligand_01.pdbqt
 30 34 0 0 0
SMALL
GASTEIGER

@<TRIPOS>ATOM
      1  N         23.6580  -21.5630  -12.8470 N.am    1  UNL1       -0.1160
      2  C         22.4440  -21.3900  -13.4880 C.2     1  UNL1        0.1210
      3  C         21.2870  -21.5300  -12.8300 C.2     1  UNL1        0.0530
      4  C         21.2880  -21.8690  -11.4280 C.ar    1  UNL1        0.0980
      5  C         22.4380  -22.0500  -10.7540 C.ar    1  UNL1        0.1760
      6  N         22.4620  -22.3770   -9.4090 N.ar    1  UNL1       -0.1400
      7  N         21.3980  -22.5220   -8.7480 N.ar    1  UNL1       -0.1280
      8  C         20.1830  -22.3520   -9.3460 C.ar    1  UNL1        0.1860
      9  C         18.8800  -22.4410   -8.8950 C.ar    1  UNL1        0.0500
     10  C         18.0830  -22.1480  -10.0330 C.ar    1  UNL1        0.0660
     11  C         16.6020  -22.0780  -10.1280 C.3     1  UNL1        0.0730
     12  N         18.8280  -21.9040  -11.1180 N.ar    1  UNL1       -0.1700
     13  N         20.1130  -22.0270  -10.6930 N.ar    1  UNL1       -0.2100
     14  C         23.7550  -21.8930  -11.4790 C.2     1  UNL1        0.2990
     15  O         24.7930  -22.0610  -10.8420 O.2     1  UNL1       -0.2640
     16  C         24.8420  -21.4040  -13.5750 C.ar    1  UNL1        0.7340
     17  N         25.8650  -22.2390  -13.6540 N.ar    1  UNL1        0.0450
     18  N         26.8310  -21.7040  -14.4780 N.ar    1  UNL1       -0.1080
     19  C         26.3820  -20.5510  -14.8880 C.ar    1  UNL1        0.2020
     20  N         25.1540  -20.3160  -14.3590 N.ar    1  UNL1       -0.1630
     21  H         24.6080  -19.4900  -14.5320 H       1  UNL1        0.1860
     22  S         27.1210  -19.4060  -15.9350 S.3     1  UNL1       -0.0940
     23  C         26.7980  -17.8790  -15.0220 C.3     1  UNL1        0.0990
     24  C         18.5030  -22.7800   -7.5350 C.2     1  UNL1       -0.0200
     25  C         18.0420  -24.0670   -7.2320 C.2     1  UNL1        0.0140
     26  C         17.6680  -24.3980   -5.9260 C.2     1  UNL1        0.0200
     27  C         17.7540  -23.4380   -4.9190 C.2     1  UNL1        0.0110
     28 BR         17.2480  -23.8840   -3.1530 Br      1  UNL1       -0.0510
     29  C         18.2130  -22.1550   -5.2050 C.2     1  UNL1        0.0200
     30  C         18.5870  -21.8260   -6.5110 C.2     1  UNL1        0.0140
@<TRIPOS>BOND
     1    22    23    1
     2    22    19    1
     3    19    18   ar
     4    19    20   ar
     5    21    20    1
     6    18    17   ar
     7    20    16   ar
     8    17    16   ar
     9    16     1    1
    10     2     1    1
    11     2     3    2
    12     1    14   am
    13     3     4    1
    14    14    15    2
    15    14     5    1
    16     4     5   ar
    17     4    13   ar
    18    12    13   ar
    19    12    10   ar
    20     5     6   ar
    21    13     8   ar
    22    11    10    1
    23    10     9   ar
    24     6     7   ar
    25     8     9   ar
    26     8     7   ar
    27     9    24    1
    28    24    25    2
    29    24    30    1
    30    25    26    1
    31    30    29    2
    32    26    27    2
    33    29    27    1
    34    27    28    1
