@<TRIPOS>MOLECULE
tr1388_out_ligand_01.pdbqt
 37 40 0 0 0
SMALL
GASTEIGER

@<TRIPOS>ATOM
      1  N         23.9490  -22.5230   -9.4930 N.am    1  UNL1       -0.3260
      2  C         24.2530  -21.7920  -10.6350 C.2     1  UNL1        0.2400
      3  O         23.4660  -21.1040  -11.2780 O.2     1  UNL1       -0.2710
      4  H         24.7420  -22.9000   -8.9730 H       1  UNL1        0.1690
      5  C         22.6820  -22.7180   -8.9060 C.2     1  UNL1        0.0340
      6  C         22.0750  -21.8140   -8.0340 C.2     1  UNL1        0.0300
      7  C         20.8250  -22.1030   -7.4740 C.2     1  UNL1        0.0190
      8  C         20.1590  -23.2950   -7.7750 C.2     1  UNL1        0.0320
      9  C         20.7440  -24.1790   -8.6890 C.2     1  UNL1        0.0190
     10  C         22.0020  -23.8960   -9.2390 C.2     1  UNL1        0.0300
     11  C         18.8490  -23.5620   -7.0990 C.2     1  UNL1        0.2560
     12  N         18.2550  -22.4780   -6.4880 N.am    1  UNL1       -0.3210
     13  H         18.6900  -21.5660   -6.5600 H       1  UNL1        0.1690
     14  O         18.3830  -24.6930   -7.1720 O.2     1  UNL1       -0.2670
     15  C         17.0270  -22.4330   -5.7840 C.2     1  UNL1        0.0680
     16  C         16.9190  -22.5390   -4.4000 C.2     1  UNL1        0.0320
     17  C         15.6670  -22.4660   -3.7830 C.2     1  UNL1        0.0020
     18  C         14.5140  -22.2970   -4.5470 C.2     1  UNL1        0.0030
     19  C         14.6090  -22.1830   -5.9300 C.2     1  UNL1        0.0390
     20  C         15.8620  -22.2320   -6.5520 C.2     1  UNL1        0.0950
     21  O         16.0480  -22.1010   -7.9120 O.2     1  UNL1       -0.3540
     22  C         15.5160  -23.1600   -8.7010 C.3     1  UNL1        0.2100
     23  C         25.7440  -21.8070  -10.9900 C.3     1  UNL1        0.2400
     24  N         26.0050  -21.2210  -12.3010 N.am    1  UNL1       -0.2550
     25  C         26.5220  -19.9340  -12.3450 C.2     1  UNL1        0.2920
     26  O         26.9020  -19.3270  -11.3400 O.2     1  UNL1       -0.2640
     27  C         26.6580  -19.3440  -13.6890 C.2     1  UNL1        0.2000
     28  F         27.0930  -18.0710  -13.7700 F       1  UNL1       -0.1990
     29  C         26.4080  -20.0820  -14.7630 C.2     1  UNL1        0.1460
     30  N         25.9940  -21.3980  -14.6560 N.am    1  UNL1       -0.2790
     31  C         25.8230  -22.0300  -13.4220 C.2     1  UNL1        0.3340
     32  O         25.5340  -23.2270  -13.3300 O.2     1  UNL1       -0.2460
     33  C         25.8060  -22.2160  -15.8480 C.3     1  UNL1        0.2320
     34  C         26.8900  -22.0200  -16.8900 C.3     1  UNL1        0.0560
     35  C         26.2170  -22.5170  -18.1530 C.3     1  UNL1        0.0310
     36  C         24.7350  -22.3190  -17.8870 C.3     1  UNL1        0.1700
     37  O         24.5930  -21.8680  -16.5300 O.3     1  UNL1       -0.3660
@<TRIPOS>BOND
     1    35    36    1
     2    35    34    1
     3    36    37    1
     4    34    33    1
     5    37    33    1
     6    33    30    1
     7    29    30    1
     8    29    27    2
     9    30    31   am
    10    28    27    1
    11    27    25    1
    12    31    32    2
    13    31    24   am
    14    25    24   am
    15    25    26    2
    16    24    23    1
    17     3     2    2
    18    23     2    1
    19     2     1   am
    20     1     4    1
    21     1     5    1
    22    10     5    2
    23    10     9    1
    24     5     6    1
    25    22    21    1
    26     9     8    2
    27     6     7    2
    28    21    20    1
    29     8     7    1
    30     8    11    1
    31    14    11    2
    32    11    12   am
    33    13    12    1
    34    20    19    1
    35    20    15    2
    36    12    15    1
    37    19    18    2
    38    15    16    1
    39    18    17    1
    40    16    17    2
