@<TRIPOS>MOLECULE
tr13334_out_ligand_01.pdbqt
 30 34 0 0 0
SMALL
GASTEIGER

@<TRIPOS>ATOM
      1  N         23.5140  -21.6880  -12.4740 N.am    1  UNL1       -0.1160
      2  C         22.2940  -21.5620  -13.1160 C.2     1  UNL1        0.1210
      3  C         21.1420  -21.6950  -12.4480 C.2     1  UNL1        0.0530
      4  C         21.1530  -21.9770  -11.0350 C.ar    1  UNL1        0.0980
      5  C         22.3090  -22.1080  -10.3590 C.ar    1  UNL1        0.1760
      6  N         22.3440  -22.3820   -9.0010 N.ar    1  UNL1       -0.1400
      7  N         21.2840  -22.5230   -8.3310 N.ar    1  UNL1       -0.1280
      8  C         20.0630  -22.3990   -8.9310 C.ar    1  UNL1        0.1860
      9  C         18.7640  -22.4950   -8.4730 C.ar    1  UNL1        0.0500
     10  C         17.9590  -22.2610   -9.6180 C.ar    1  UNL1        0.0660
     11  C         16.4770  -22.2220   -9.7100 C.3     1  UNL1        0.0730
     12  N         18.6950  -22.0470  -10.7160 N.ar    1  UNL1       -0.1700
     13  N         19.9840  -22.1280  -10.2900 N.ar    1  UNL1       -0.2100
     14  C         23.6220  -21.9570  -11.0930 C.2     1  UNL1        0.2990
     15  O         24.6630  -22.0830  -10.4510 O.2     1  UNL1       -0.2640
     16  C         24.6940  -21.5360  -13.2110 C.ar    1  UNL1        0.7330
     17  N         25.5800  -22.4600  -13.5210 N.ar    1  UNL1        0.0440
     18  N         26.5960  -21.8980  -14.2560 N.ar    1  UNL1       -0.1200
     19  C         26.3220  -20.6240  -14.3980 C.ar    1  UNL1        0.1420
     20  N         25.1440  -20.3540  -13.7580 N.ar    1  UNL1       -0.1730
     21  H         24.7000  -19.4530  -13.7190 H       1  UNL1        0.1850
     22  C         27.1210  -19.6030  -15.1220 C.3     1  UNL1        0.0760
     23  C         26.3870  -18.2750  -15.1990 C.3     1  UNL1        0.0130
     24  C         18.3990  -22.7890   -7.0990 C.2     1  UNL1       -0.0200
     25  C         17.9140  -24.0600   -6.7570 C.2     1  UNL1        0.0150
     26  C         17.5550  -24.3460   -5.4370 C.2     1  UNL1        0.0430
     27  C         17.6820  -23.3630   -4.4630 C.2     1  UNL1        0.1160
     28  F         17.3380  -23.6380   -3.1980 F       1  UNL1       -0.2060
     29  C         18.1620  -22.0980   -4.7820 C.2     1  UNL1        0.0430
     30  C         18.5210  -21.8100   -6.1010 C.2     1  UNL1        0.0150
@<TRIPOS>BOND
     1    23    22    1
     2    22    19    1
     3    19    18   ar
     4    19    20   ar
     5    18    17   ar
     6    20    21    1
     7    20    16   ar
     8    17    16   ar
     9    16     1    1
    10     2     1    1
    11     2     3    2
    12     1    14   am
    13     3     4    1
    14    14    15    2
    15    14     5    1
    16     4     5   ar
    17     4    13   ar
    18    12    13   ar
    19    12    10   ar
    20     5     6   ar
    21    13     8   ar
    22    11    10    1
    23    10     9   ar
    24     6     7   ar
    25     8     9   ar
    26     8     7   ar
    27     9    24    1
    28    24    25    2
    29    24    30    1
    30    25    26    1
    31    30    29    2
    32    26    27    2
    33    29    27    1
    34    27    28    1
