@<TRIPOS>MOLECULE
tr13346_out_ligand_01.pdbqt
 34 38 0 0 0
SMALL
GASTEIGER

@<TRIPOS>ATOM
      1  N         22.9880  -22.1280  -11.4340 N.am    1  UNL1       -0.3030
      2  C         21.9220  -21.5380  -12.1120 C.2     1  UNL1        0.2150
      3  N         20.6590  -21.6830  -11.8320 N.2     1  UNL1       -0.2230
      4  C         20.4530  -22.5030  -10.7750 C.2     1  UNL1        0.1640
      5  C         21.3990  -23.1500  -10.0230 C.2     1  UNL1        0.0990
      6  C         20.6870  -23.8750   -9.0620 C.2     1  UNL1        0.1600
      7  N         19.3640  -23.7110   -9.1900 N.2     1  UNL1       -0.1820
      8  N         19.2430  -22.8660  -10.2460 N.pl3   1  UNL1       -0.2500
      9  C         22.7880  -22.9760  -10.3390 C.2     1  UNL1        0.2640
     10  O         23.6810  -23.5270   -9.7050 O.2     1  UNL1       -0.2670
     11  C         17.9350  -22.4300  -10.6990 C.3     1  UNL1        0.1720
     12  C         16.8060  -23.1660   -9.9820 C.3     1  UNL1        0.1450
     13  N         16.6970  -22.8260   -8.5740 N.am    1  UNL1       -0.3550
     14  C         16.2060  -23.7240   -7.6510 C.2     1  UNL1        0.2520
     15  O         15.8950  -24.8780   -7.9190 O.2     1  UNL1       -0.2680
     16  H         16.8850  -21.8720   -8.2850 H       1  UNL1        0.1620
     17  C         16.1510  -23.2360   -6.2520 C.2     1  UNL1        0.0430
     18  C         15.0340  -23.6480   -5.5090 C.2     1  UNL1        0.0180
     19  C         14.9240  -23.2990   -4.1690 C.2     1  UNL1        0.0020
     20  C         15.9240  -22.5350   -3.5690 C.2     1  UNL1        0.0120
     21  C         17.0390  -22.0920   -4.3020 C.2     1  UNL1       -0.0250
     22  C         18.0250  -21.3080   -3.6800 C.2     1  UNL1        0.0120
     23  C         17.1650  -22.4280   -5.6730 C.2     1  UNL1       -0.0100
     24  C         19.1270  -20.8370   -4.3930 C.2     1  UNL1        0.0010
     25  C         19.2510  -21.1350   -5.7440 C.2     1  UNL1        0.0010
     26  C         18.2800  -21.9140   -6.3770 C.2     1  UNL1        0.0130
     27  C         24.3490  -21.8610  -11.8770 C.3     1  UNL1        0.1720
     28  C         24.6730  -22.5530  -13.1900 C.2     1  UNL1       -0.0340
     29  C         24.9970  -23.9230  -13.1580 C.2     1  UNL1        0.0090
     30  C         25.2920  -24.6220  -14.3280 C.2     1  UNL1        0.0010
     31  C         25.2730  -23.9630  -15.5500 C.2     1  UNL1        0.0010
     32  C         24.9710  -22.6030  -15.6010 C.2     1  UNL1        0.0070
     33  C         24.6740  -21.8810  -14.4320 C.2     1  UNL1       -0.0540
     34  C         24.3830  -20.4090  -14.5540 C.3     1  UNL1        0.0490
@<TRIPOS>BOND
     1    32    31    2
     2    32    33    1
     3    31    30    1
     4    34    33    1
     5    33    28    2
     6    30    29    2
     7    28    29    1
     8    28    27    1
     9     2     3    2
    10     2     1    1
    11    27     1    1
    12     3     4    1
    13     1     9   am
    14     4     8    1
    15     4     5    2
    16    11     8    1
    17    11    12    1
    18     9     5    1
    19     9    10    2
    20     8     7    1
    21     5     6    1
    22    12    13    1
    23     7     6    2
    24    13    16    1
    25    13    14   am
    26    15    14    2
    27    14    17    1
    28    26    25    2
    29    26    23    1
    30    17    23    2
    31    17    18    1
    32    25    24    1
    33    23    21    1
    34    18    19    2
    35    24    22    2
    36    21    22    1
    37    21    20    2
    38    19    20    1
