@<TRIPOS>MOLECULE
tr1320_out_ligand_01.pdbqt
 30 34 0 0 0
SMALL
GASTEIGER

@<TRIPOS>ATOM
      1  N         24.6740  -21.1880  -17.6070 N.1     1  UNL1       -0.1910
      2  C         25.0860  -20.7950  -16.5960 C.1     1  UNL1        0.1050
      3  C         25.6220  -20.2820  -15.3830 C.2     1  UNL1        0.1110
      4  C         26.5860  -19.2730  -15.2320 C.2     1  UNL1        0.1660
      5  N         26.8770  -19.0240  -13.9530 N.2     1  UNL1       -0.1750
      6  N         26.0820  -19.8900  -13.2620 N.pl3   1  UNL1       -0.1920
      7  C         26.0090  -20.0320  -11.8720 C.2     1  UNL1        0.1670
      8  C         25.1740  -20.9320  -11.3380 C.2     1  UNL1        0.0860
      9  C         24.3650  -21.7410  -12.3100 C.2     1  UNL1        0.0510
     10  N         24.4350  -21.6180  -13.6110 N.2     1  UNL1       -0.2310
     11  C         25.2990  -20.6780  -14.1040 C.2     1  UNL1        0.1760
     12  C         23.4260  -22.7860  -11.7280 C.3     1  UNL1        0.1420
     13  S         21.7170  -22.1730  -11.7160 S.3     1  UNL1       -0.0840
     14  C         21.3310  -22.2720  -10.0360 C.ar    1  UNL1        0.1920
     15  N         22.1710  -22.1230   -9.0370 N.ar    1  UNL1       -0.1220
     16  N         21.4700  -22.3270   -7.8720 N.ar    1  UNL1       -0.1280
     17  C         20.2180  -22.6420   -8.1760 C.ar    1  UNL1        0.1680
     18  N         20.0840  -22.5400   -9.5440 N.ar    1  UNL1       -0.3020
     19  C         19.1810  -22.9850   -7.2100 C.2     1  UNL1        0.0500
     20  C         18.5350  -24.2270   -7.3060 C.2     1  UNL1        0.0180
     21  C         17.5310  -24.5800   -6.4000 C.2     1  UNL1        0.0010
     22  C         17.1510  -23.6920   -5.3940 C.2     1  UNL1        0.0030
     23  C         17.7660  -22.4450   -5.3040 C.2     1  UNL1        0.0430
     24  C         18.7660  -22.0980   -6.2110 C.2     1  UNL1        0.1300
     25  F         19.3100  -20.8750   -6.1150 F       1  UNL1       -0.2050
     26  C         18.8380  -22.6820  -10.3340 C.3     1  UNL1        0.0940
     27  C         17.5140  -22.0910   -9.8960 C.3     1  UNL1        0.0280
     28  C         18.2180  -21.5240  -11.0870 C.3     1  UNL1        0.0280
     29  O         26.8070  -19.2320  -11.0680 O.2     1  UNL1       -0.3450
     30  H         26.8010  -19.6560  -10.1830 H       1  UNL1        0.2190
@<TRIPOS>BOND
     1     1     2    3
     2     2     3    1
     3     3     4    1
     4     3    11    2
     5     4     5    2
     6    11    10    1
     7    11     6    1
     8     5     6    1
     9    10     9    2
    10     6     7    1
    11     9    12    1
    12     9     8    1
    13     7     8    2
    14     7    29    1
    15    12    13    1
    16    13    14    1
    17    28    26    1
    18    28    27    1
    19    29    30    1
    20    26    27    1
    21    26    18    1
    22    14    18   ar
    23    14    15   ar
    24    18    17   ar
    25    15    16   ar
    26    17    16   ar
    27    17    19    1
    28    20    19    2
    29    20    21    1
    30    19    24    1
    31    21    22    2
    32    24    25    1
    33    24    23    2
    34    22    23    1
