@<TRIPOS>MOLECULE
tr13730_out_ligand_01.pdbqt
 34 37 0 0 0
SMALL
GASTEIGER

@<TRIPOS>ATOM
      1  C         17.2090  -21.5490  -11.0840 C.3     1  UNL1        0.0480
      2  C         18.7070  -21.5560  -11.1790 C.2     1  UNL1       -0.0600
      3  C         19.3600  -20.7810  -12.1390 C.2     1  UNL1        0.0070
      4  C         20.7480  -20.8360  -12.2560 C.2     1  UNL1        0.0140
      5  C         21.4990  -21.6680  -11.4140 C.2     1  UNL1       -0.0080
      6  C         22.9480  -21.7340  -11.5700 C.2     1  UNL1        0.0280
      7  C         23.6980  -22.5400  -10.8020 C.2     1  UNL1        0.0290
      8  C         23.0420  -23.3680   -9.7430 C.2     1  UNL1        0.2560
      9  O         23.7350  -24.1070   -9.0400 O.2     1  UNL1       -0.2670
     10  N         21.6660  -23.2570   -9.5790 N.am    1  UNL1       -0.3040
     11  C         20.8630  -22.4460  -10.4350 C.2     1  UNL1        0.0480
     12  C         19.4630  -22.3960  -10.3450 C.2     1  UNL1        0.0370
     13  C         21.0790  -24.0520   -8.5060 C.3     1  UNL1        0.2350
     14  C         20.0740  -23.2470   -7.6680 C.2     1  UNL1        0.2400
     15  O         20.4030  -22.2240   -7.0710 O.2     1  UNL1       -0.2710
     16  N         18.8200  -23.8410   -7.6320 N.am    1  UNL1       -0.3260
     17  H         18.6760  -24.6410   -8.2370 H       1  UNL1        0.1690
     18  C         17.6800  -23.4140   -6.9180 C.2     1  UNL1        0.0350
     19  C         16.6250  -22.7010   -7.4800 C.2     1  UNL1        0.0300
     20  C         15.5340  -22.3130   -6.6940 C.2     1  UNL1        0.0090
     21  C         15.4780  -22.6260   -5.3280 C.2     1  UNL1       -0.0560
     22  C         14.2860  -22.1910   -4.5210 C.3     1  UNL1        0.0490
     23  C         16.5370  -23.3490   -4.7480 C.2     1  UNL1       -0.0540
     24  C         16.5450  -23.6970   -3.2860 C.3     1  UNL1        0.0490
     25  C         17.6260  -23.7320   -5.5520 C.2     1  UNL1        0.0370
     26  C         25.1920  -22.7280  -10.8720 C.3     1  UNL1        0.1640
     27  N         25.6080  -23.7750  -11.8030 N.pl3   1  UNL1       -0.3850
     28  H         25.4080  -24.7160  -11.4820 H       1  UNL1        0.1600
     29  C         25.6460  -23.6190  -13.1820 C.2     1  UNL1        0.0280
     30  C         25.2500  -24.6060  -14.0910 C.2     1  UNL1        0.0290
     31  C         25.2500  -24.3670  -15.4700 C.2     1  UNL1        0.0020
     32  C         25.6300  -23.1240  -15.9640 C.2     1  UNL1        0.0000
     33  C         26.0000  -22.1180  -15.0780 C.2     1  UNL1        0.0020
     34  C         25.9970  -22.3650  -13.7020 C.2     1  UNL1        0.0290
@<TRIPOS>BOND
     1    32    31    2
     2    32    33    1
     3    31    30    1
     4    33    34    2
     5    30    29    2
     6    34    29    1
     7    29    27    1
     8     4     3    1
     9     4     5    2
    10     3     2    2
    11    27    28    1
    12    27    26    1
    13     6     5    1
    14     6     7    2
    15     5    11    1
    16     2     1    1
    17     2    12    1
    18    26     7    1
    19     7     8    1
    20    11    12    2
    21    11    10    1
    22     8    10   am
    23     8     9    2
    24    10    13    1
    25    13    14    1
    26    17    16    1
    27    14    16   am
    28    14    15    2
    29    16    18    1
    30    19    18    2
    31    19    20    1
    32    18    25    1
    33    20    21    2
    34    25    23    2
    35    21    23    1
    36    21    22    1
    37    23    24    1
