@<TRIPOS>MOLECULE
tr13541_out_ligand_01.pdbqt
 31 34 0 0 0
SMALL
GASTEIGER

@<TRIPOS>ATOM
      1  C         24.5050  -22.0670  -11.3960 C.2     1  UNL1        0.2560
      2  O         25.2320  -21.3530  -10.7080 O.2     1  UNL1       -0.2680
      3  N         23.5020  -22.8560  -10.8690 N.am    1  UNL1       -0.3520
      4  H         22.8180  -23.2830  -11.4780 H       1  UNL1        0.1630
      5  C         23.2440  -22.8980   -9.4270 C.3     1  UNL1        0.0870
      6  C         22.7600  -21.5270   -8.9330 C.3     1  UNL1        0.0450
      7  C         21.9100  -21.6550   -7.6770 C.3     1  UNL1        0.1280
      8  N         20.7250  -22.4730   -7.9220 N.am    1  UNL1       -0.3480
      9  C         19.6130  -22.2660   -7.1070 C.2     1  UNL1        0.2560
     10  C         20.8380  -23.5390   -8.9210 C.3     1  UNL1        0.1280
     11  O         19.6250  -21.5140   -6.1330 O.2     1  UNL1       -0.2670
     12  C         22.2730  -24.0350   -9.0590 C.3     1  UNL1        0.0450
     13  C         18.3610  -22.9940   -7.3830 C.2     1  UNL1        0.0700
     14  C         17.9200  -23.9500   -6.4610 C.2     1  UNL1        0.0200
     15  C         16.7230  -24.6320   -6.6870 C.2     1  UNL1        0.0010
     16  C         15.9600  -24.3480   -7.8230 C.2     1  UNL1        0.0030
     17  C         16.3890  -23.3760   -8.7290 C.2     1  UNL1        0.0430
     18  C         17.5840  -22.6980   -8.5000 C.2     1  UNL1        0.1320
     19  F         17.9620  -21.7550   -9.3760 F       1  UNL1       -0.2050
     20  C         24.6780  -22.0470  -12.8670 C.2     1  UNL1        0.0830
     21  C         24.9070  -23.2440  -13.5630 C.2     1  UNL1        0.0980
     22  C         25.0860  -23.1700  -14.9520 C.2     1  UNL1        0.0650
     23  C         25.3420  -24.0580  -16.0160 C.2     1  UNL1        0.1570
     24  C         24.9980  -21.9230  -15.5550 C.2     1  UNL1        0.1600
     25  N         25.4200  -23.4410  -17.2020 N.2     1  UNL1       -0.1820
     26  N         25.2060  -22.1420  -16.8910 N.pl3   1  UNL1       -0.2560
     27  C         25.2110  -21.1530  -17.9390 C.3     1  UNL1        0.1820
     28  N         24.7520  -20.7440  -14.9460 N.2     1  UNL1       -0.2400
     29  C         24.5910  -20.8670  -13.6030 C.2     1  UNL1        0.1390
     30  O         24.9670  -24.4690  -12.9470 O.2     1  UNL1       -0.3590
     31  H         24.8370  -25.1640  -13.6320 H       1  UNL1        0.2170
@<TRIPOS>BOND
     1    27    26    1
     2    25    26    1
     3    25    23    2
     4    26    24    1
     5    23    22    1
     6    24    22    1
     7    24    28    2
     8    22    21    2
     9    28    29    1
    10    31    30    1
    11    29    20    2
    12    21    30    1
    13    21    20    1
    14    20     1    1
    15     4     3    1
    16     1     3   am
    17     1     2    2
    18     3     5    1
    19     5    12    1
    20     5     6    1
    21    19    18    1
    22    12    10    1
    23     6     7    1
    24    10     8    1
    25    17    18    1
    26    17    16    2
    27    18    13    2
    28     8     7    1
    29     8     9   am
    30    16    15    1
    31    13     9    1
    32    13    14    1
    33     9    11    2
    34    15    14    2
