@<TRIPOS>MOLECULE
tr1395_out_ligand_01.pdbqt
 37 39 0 0 0
SMALL
GASTEIGER

@<TRIPOS>ATOM
      1  C         21.2840  -22.6530  -10.5010 C.2     1  UNL1        0.0190
      2  C         21.4410  -21.8580  -11.6450 C.2     1  UNL1        0.0160
      3  C         20.3310  -21.2590  -12.2430 C.2     1  UNL1        0.0030
      4  C         19.0600  -21.4510  -11.6980 C.2     1  UNL1        0.0390
      5  C         18.9030  -22.2350  -10.5430 C.2     1  UNL1        0.1370
      6  C         20.0180  -22.8180   -9.9240 C.2     1  UNL1        0.1240
      7  C         22.4690  -23.2670   -9.8670 C.2     1  UNL1        0.1530
      8  N         23.7300  -23.1070  -10.1520 N.2     1  UNL1       -0.1830
      9  N         24.0910  -22.4540  -11.3020 N.am    1  UNL1       -0.2430
     10  C         25.3360  -21.8350  -11.4280 C.2     1  UNL1        0.2710
     11  O         26.2750  -21.9490  -10.6460 O.2     1  UNL1       -0.2660
     12  H         23.3130  -21.9470  -11.7170 H       1  UNL1        0.1920
     13  C         25.4860  -20.9480  -12.6170 C.2     1  UNL1        0.0330
     14  C         26.4610  -19.9450  -12.5840 C.2     1  UNL1        0.0190
     15  C         26.6360  -19.0980  -13.6820 C.2     1  UNL1        0.0300
     16  C         25.8500  -19.2440  -14.8330 C.2     1  UNL1        0.0340
     17  C         24.8880  -20.2560  -14.8660 C.2     1  UNL1        0.0300
     18  C         24.7070  -21.1070  -13.7680 C.2     1  UNL1        0.0190
     19  N         26.0950  -18.3500  -15.8940 N.am    1  UNL1       -0.3270
     20  C         26.5240  -18.6570  -17.1770 C.2     1  UNL1        0.2210
     21  O         26.7630  -19.7740  -17.6170 O.2     1  UNL1       -0.2730
     22  H         25.9420  -17.3690  -15.6920 H       1  UNL1        0.1690
     23  C         26.6730  -17.4010  -18.0230 C.3     1  UNL1        0.0980
     24  C         25.9820  -16.1970  -17.4070 C.3     1  UNL1        0.0140
     25  O         19.9010  -23.6140   -8.7800 O.3     1  UNL1       -0.2710
     26  C         19.9280  -22.8750   -7.6110 C.2     1  UNL1        0.2980
     27  O         20.8390  -22.1490   -7.2430 O.2     1  UNL1       -0.2590
     28  C         18.6930  -23.1250   -6.8230 C.2     1  UNL1        0.0400
     29  C         18.3290  -22.1860   -5.8510 C.2     1  UNL1        0.0180
     30  C         17.1790  -22.3780   -5.0820 C.2     1  UNL1        0.0070
     31  C         16.3800  -23.5130   -5.2710 C.2     1  UNL1       -0.0620
     32  C         15.1290  -23.6990   -4.4660 C.3     1  UNL1        0.0480
     33  C         16.7330  -24.4390   -6.2610 C.2     1  UNL1        0.0070
     34  C         17.8850  -24.2510   -7.0310 C.2     1  UNL1        0.0180
     35  N         17.5520  -22.4280  -10.0200 N.pl3   1  UNL1       -0.1130
     36  O         16.9590  -23.4800  -10.2950 O.2     1  UNL1       -0.5320
     37  O         17.0680  -21.5060   -9.3460 O.2     1  UNL1       -0.5320
@<TRIPOS>BOND
     1    23    24    1
     2    23    20    1
     3    21    20    2
     4    20    19   am
     5    19    22    1
     6    19    16    1
     7    17    16    2
     8    17    18    1
     9    16    15    1
    10    18    13    2
    11    15    14    2
    12    13    14    1
    13    13    10    1
    14     3     4    2
    15     3     2    1
    16    12     9    1
    17     4     5    1
    18     2     1    2
    19    10     9   am
    20    10    11    2
    21     9     8    1
    22     5    35    1
    23     5     6    2
    24     1     6    1
    25     1     7    1
    26    36    35    2
    27     8     7    2
    28    35    37    2
    29     6    25    1
    30    25    26    1
    31    26    27    2
    32    26    28    1
    33    34    28    2
    34    34    33    1
    35    28    29    1
    36    33    31    2
    37    29    30    2
    38    31    30    1
    39    31    32    1
