@<TRIPOS>MOLECULE
tr13107_out_ligand_01.pdbqt
 36 39 0 0 0
SMALL
GASTEIGER

@<TRIPOS>ATOM
      1  C         20.6270  -22.3150   -9.9720 C.2     1  UNL1        0.1240
      2  C         19.4720  -23.1080   -9.9080 C.2     1  UNL1        0.0190
      3  C         19.5250  -24.3900   -9.3430 C.2     1  UNL1        0.0160
      4  C         20.7350  -24.9030   -8.8790 C.2     1  UNL1        0.0030
      5  C         21.8970  -24.1360   -8.9710 C.2     1  UNL1        0.0390
      6  C         21.8460  -22.8440   -9.5230 C.2     1  UNL1        0.1370
      7  C         18.1780  -22.5700  -10.3780 C.2     1  UNL1        0.1530
      8  N         17.1650  -22.1360   -9.6850 N.2     1  UNL1       -0.1830
      9  N         17.1190  -22.3590   -8.3350 N.am    1  UNL1       -0.2430
     10  C         16.3460  -23.3820   -7.7870 C.2     1  UNL1        0.2720
     11  O         15.8880  -24.3570   -8.3720 O.2     1  UNL1       -0.2660
     12  H         17.1900  -21.5070   -7.7860 H       1  UNL1        0.1920
     13  C         16.1280  -23.2470   -6.3290 C.2     1  UNL1        0.0440
     14  C         15.0020  -23.9000   -5.8100 C.2     1  UNL1        0.0180
     15  C         14.7590  -23.8710   -4.4420 C.2     1  UNL1        0.0020
     16  C         15.6380  -23.1930   -3.5980 C.2     1  UNL1        0.0120
     17  C         16.7600  -22.5140   -4.1050 C.2     1  UNL1       -0.0250
     18  C         17.6230  -21.8240   -3.2390 C.2     1  UNL1        0.0120
     19  C         17.0170  -22.5180   -5.4980 C.2     1  UNL1       -0.0100
     20  C         18.7260  -21.1240   -3.7290 C.2     1  UNL1        0.0010
     21  C         18.9750  -21.0960   -5.0940 C.2     1  UNL1        0.0010
     22  C         18.1300  -21.7810   -5.9710 C.2     1  UNL1        0.0130
     23  O         20.5330  -21.0410  -10.5450 O.3     1  UNL1       -0.2720
     24  C         20.3000  -21.0910  -11.9070 C.2     1  UNL1        0.2880
     25  O         19.3110  -20.6770  -12.4930 O.2     1  UNL1       -0.2600
     26  C         21.4600  -21.7540  -12.5360 C.2     1  UNL1        0.0830
     27  C         22.3720  -21.0240  -13.1950 C.2     1  UNL1        0.0170
     28  C         23.5500  -21.6020  -13.8570 C.2     1  UNL1       -0.0360
     29  C         24.2070  -22.7340  -13.3600 C.2     1  UNL1        0.0110
     30  C         25.3390  -23.2390  -14.0060 C.2     1  UNL1        0.0010
     31  C         25.8300  -22.6100  -15.1470 C.2     1  UNL1        0.0000
     32  C         25.1970  -21.4730  -15.6400 C.2     1  UNL1        0.0010
     33  C         24.0660  -20.9670  -14.9940 C.2     1  UNL1        0.0110
     34  N         23.0940  -22.0810   -9.6080 N.pl3   1  UNL1       -0.1130
     35  O         23.0960  -20.9400   -9.1230 O.2     1  UNL1       -0.5320
     36  O         24.0780  -22.6120  -10.1390 O.2     1  UNL1       -0.5320
@<TRIPOS>BOND
     1    32    31    2
     2    32    33    1
     3    31    30    1
     4    33    28    2
     5    30    29    2
     6    28    29    1
     7    28    27    1
     8    27    26    2
     9    26    24    1
    10    25    24    2
    11    24    23    1
    12    23     1    1
    13     7     2    1
    14     7     8    2
    15    36    34    2
    16     1     2    2
    17     1     6    1
    18     2     3    1
    19     8     9    1
    20    34     6    1
    21    34    35    2
    22     6     5    2
    23     3     4    2
    24     5     4    1
    25    11    10    2
    26     9    10   am
    27     9    12    1
    28    10    13    1
    29    13    14    2
    30    13    19    1
    31    22    19    1
    32    22    21    2
    33    14    15    1
    34    19    17    2
    35    21    20    1
    36    15    16    2
    37    17    16    1
    38    17    18    1
    39    20    18    2
