@<TRIPOS>MOLECULE
tr13208_out_ligand_01.pdbqt
 31 34 0 0 0
SMALL
GASTEIGER

@<TRIPOS>ATOM
      1  C         25.4330  -24.7770  -14.5610 C.1     1  UNL1        0.0130
      2  C         25.5820  -23.8020  -15.2460 C.1     1  UNL1       -0.1070
      3  C         25.7760  -22.6200  -16.0960 C.3     1  UNL1        0.1720
      4  S         24.8800  -21.1490  -15.4990 S.3     1  UNL1       -0.1180
      5  C         25.3180  -21.1290  -13.7680 C.2     1  UNL1        0.0020
      6  C         26.5970  -20.7770  -13.3200 C.2     1  UNL1        0.0180
      7  C         26.8890  -20.7430  -11.9530 C.2     1  UNL1        0.0020
      8  C         25.9020  -21.0590  -11.0200 C.2     1  UNL1        0.0170
      9  C         24.6190  -21.4100  -11.4600 C.2     1  UNL1        0.0330
     10  C         24.3260  -21.4270  -12.8290 C.2     1  UNL1        0.0350
     11  C         23.5330  -21.7350  -10.4960 C.2     1  UNL1        0.2570
     12  O         23.4320  -21.0450   -9.4910 O.2     1  UNL1       -0.2670
     13  N         22.7300  -22.7860  -10.8890 N.am    1  UNL1       -0.3060
     14  H         22.8620  -23.1660  -11.8080 H       1  UNL1        0.1700
     15  C         21.6640  -23.3130  -10.1470 C.2     1  UNL1        0.1460
     16  N         21.8720  -24.3040   -9.2580 N.2     1  UNL1       -0.2230
     17  C         20.8300  -24.7830   -8.5650 C.2     1  UNL1        0.2370
     18  N         19.5500  -24.4020   -8.6450 N.2     1  UNL1       -0.2230
     19  C         19.3730  -23.4160   -9.5420 C.ar    1  UNL1        0.1460
     20  C         20.3530  -22.8250  -10.3280 C.ar    1  UNL1        0.0640
     21  N         18.1630  -22.8330   -9.8370 N.ar    1  UNL1       -0.3320
     22  C         19.6900  -21.8350  -11.1360 C.ar    1  UNL1       -0.0220
     23  C         20.3190  -20.9430  -12.1510 C.3     1  UNL1        0.0510
     24  C         18.3380  -21.8550  -10.7950 C.ar    1  UNL1        0.0160
     25  C         17.2220  -21.0270  -11.3410 C.3     1  UNL1        0.0690
     26  C         16.9230  -23.1970   -9.1630 C.3     1  UNL1        0.1620
     27  C         16.9220  -23.0030   -7.6460 C.3     1  UNL1        0.1390
     28  C         16.7170  -24.2450   -6.7920 C.3     1  UNL1        0.0350
     29  C         16.2300  -23.6390   -5.4970 C.3     1  UNL1        0.0290
     30  C         15.3360  -22.5290   -6.0040 C.3     1  UNL1        0.1680
     31  O         15.9220  -22.0510   -7.2240 O.3     1  UNL1       -0.3840
@<TRIPOS>BOND
     1     3     4    1
     2     3     2    1
     3     4     5    1
     4     2     1    3
     5     5     6    2
     6     5    10    1
     7     6     7    1
     8    10     9    2
     9    23    22    1
    10     7     8    2
    11    14    13    1
    12     9     8    1
    13     9    11    1
    14    25    24    1
    15    22    24   ar
    16    22    20   ar
    17    13    11   am
    18    13    15    1
    19    24    21   ar
    20    11    12    2
    21    20    15    2
    22    20    19   ar
    23    15    16    1
    24    21    19   ar
    25    21    26    1
    26    19    18    2
    27    16    17    2
    28    26    27    1
    29    18    17    1
    30    27    31    1
    31    27    28    1
    32    31    30    1
    33    28    29    1
    34    30    29    1
