@<TRIPOS>MOLECULE
tr1333_out_ligand_01.pdbqt
 26 29 0 0 0
SMALL
GASTEIGER

@<TRIPOS>ATOM
      1  C         19.7400  -22.2940   -7.8400 C.2     1  UNL1       -0.0190
      2  C         19.0100  -22.1930   -9.0340 C.2     1  UNL1        0.0130
      3  C         19.6570  -22.2060  -10.2740 C.2     1  UNL1        0.0130
      4  C         21.0540  -22.3120  -10.3560 C.2     1  UNL1        0.0060
      5  C         21.7790  -22.4390   -9.1720 C.2     1  UNL1        0.0780
      6  C         21.1340  -22.4140   -7.9310 C.2     1  UNL1        0.0490
      7  O         23.1400  -22.5570   -9.1310 O.2     1  UNL1       -0.3480
      8  C         23.7380  -22.9540  -10.3690 C.3     1  UNL1        0.2140
      9  C         23.2840  -22.0790  -11.5580 C.3     1  UNL1        0.2800
     10  C         21.7510  -22.3270  -11.6940 C.3     1  UNL1        0.1890
     11  C         19.0620  -22.2520   -6.5350 C.2     1  UNL1        0.0270
     12  C         19.2450  -21.1540   -5.6800 C.2     1  UNL1        0.0180
     13  C         18.6110  -21.1070   -4.4430 C.2     1  UNL1        0.0200
     14  C         17.8000  -22.1690   -4.0860 C.2     1  UNL1        0.1190
     15  N         17.5880  -23.2470   -4.8680 N.2     1  UNL1       -0.2360
     16  C         18.2180  -23.2720   -6.0690 C.2     1  UNL1        0.1750
     17  O         18.0000  -24.3500   -6.9080 O.2     1  UNL1       -0.3340
     18  C         16.6340  -24.7160   -7.0960 C.3     1  UNL1        0.1730
     19  C         15.9900  -23.8670   -8.1800 C.3     1  UNL1        0.0340
     20  O         21.1400  -21.3320  -12.5220 O.3     1  UNL1       -0.3890
     21  H         21.8070  -21.0900  -13.1830 H       1  UNL1        0.2100
     22  N         24.0430  -22.3730  -12.8130 N.3     1  UNL1        0.0980
     23  C         24.9220  -23.5450  -12.6970 C.3     1  UNL1        0.2730
     24  C         25.8140  -23.4230  -13.9160 C.3     1  UNL1        0.0320
     25  C         26.0330  -21.9290  -14.0610 C.3     1  UNL1        0.0320
     26  C         24.9410  -21.2790  -13.2160 C.3     1  UNL1        0.2730
@<TRIPOS>BOND
     1    25    24    1
     2    25    26    1
     3    24    23    1
     4    26    22    1
     5    21    20    1
     6    22    23    1
     7    22     9    1
     8    20    10    1
     9    10     9    1
    10    10     4    1
    11     9     8    1
    12     8     7    1
    13     4     3    2
    14     4     5    1
    15     3     2    1
    16     5     7    1
    17     5     6    2
    18     2     1    2
    19    19    18    1
    20     6     1    1
    21     1    11    1
    22    18    17    1
    23    17    16    1
    24    11    16    1
    25    11    12    2
    26    16    15    2
    27    12    13    1
    28    15    14    1
    29    13    14    2
