@<TRIPOS>MOLECULE
tr13570_out_ligand_01.pdbqt
 28 31 0 0 0
SMALL
GASTEIGER

@<TRIPOS>ATOM
      1  C         18.2050  -22.3920   -7.6180 C.ar    1  UNL1        0.0980
      2  S         18.8370  -22.1610   -6.0540 S.2     1  UNL1       -0.0750
      3  C         17.4160  -22.7180   -5.3130 C.ar    1  UNL1       -0.0070
      4  C         16.4550  -23.0990   -6.2280 C.ar    1  UNL1       -0.0210
      5  C         16.9180  -22.9030   -7.5710 C.ar    1  UNL1        0.0850
      6  C         16.1490  -23.1950   -8.7430 C.1     1  UNL1        0.1030
      7  N         15.5600  -23.4170   -9.7180 N.1     1  UNL1       -0.1910
      8  C         15.1110  -23.6140   -5.7950 C.3     1  UNL1        0.0410
      9  C         15.1080  -24.0320   -4.3160 C.3     1  UNL1        0.0050
     10  C         15.8060  -22.9890   -3.4300 C.3     1  UNL1        0.0050
     11  C         17.2790  -22.8040   -3.8240 C.3     1  UNL1        0.0470
     12  N         18.9490  -22.0970   -8.7580 N.am    1  UNL1       -0.3140
     13  C         19.7360  -22.9750   -9.4880 C.2     1  UNL1        0.2790
     14  O         19.9870  -24.1460   -9.2200 O.2     1  UNL1       -0.2650
     15  H         18.9240  -21.1290   -9.0640 H       1  UNL1        0.1700
     16  C         20.3790  -22.3550  -10.6680 C.3     1  UNL1        0.1720
     17  N         21.6900  -22.5220  -10.9960 N.3     1  UNL1       -0.1410
     18  N         22.7670  -23.1910  -10.4790 N.pl3   1  UNL1       -0.1500
     19  N         21.9560  -21.7580  -12.1880 N.pl3   1  UNL1       -0.1240
     20  C         23.8230  -22.7990  -11.5300 C.2     1  UNL1        0.1060
     21  C         25.2110  -23.2840  -11.4500 C.3     1  UNL1        0.0770
     22  C         23.2800  -21.9190  -12.5560 C.2     1  UNL1        0.2420
     23  N         20.7520  -21.1090  -12.6640 N.2     1  UNL1       -0.1500
     24  C         19.8960  -21.5550  -11.6710 C.2     1  UNL1        0.0890
     25  C         18.4670  -21.1440  -11.8620 C.3     1  UNL1        0.0750
     26  N         23.9100  -21.3540  -13.6850 N.pl3   1  UNL1       -0.0920
     27  O         23.4070  -21.6490  -14.7790 O.2     1  UNL1       -0.5300
     28  O         24.9160  -20.6570  -13.5100 O.2     1  UNL1       -0.5300
@<TRIPOS>BOND
     1    27    26    2
     2    26    28    2
     3    26    22    1
     4    23    19    1
     5    23    24    2
     6    22    19    1
     7    22    20    2
     8    19    17    1
     9    25    24    1
    10    24    16    1
    11    20    21    1
    12    20    18    1
    13    17    16    1
    14    17    18    1
    15    16    13    1
    16     7     6    3
    17    13    14    2
    18    13    12   am
    19    15    12    1
    20    12     1    1
    21     6     5    1
    22     1     5   ar
    23     1     2   ar
    24     5     4   ar
    25     4     8    1
    26     4     3   ar
    27     2     3   ar
    28     8     9    1
    29     3    11    1
    30     9    10    1
    31    11    10    1
