@<TRIPOS>MOLECULE
tr1344_out_ligand_01.pdbqt
 33 36 0 0 0
SMALL
GASTEIGER

@<TRIPOS>ATOM
      1  O         22.4560  -22.2460  -11.7270 O.2     1  UNL1       -0.2710
      2  C         23.2570  -22.9110  -11.0730 C.2     1  UNL1        0.2400
      3  N         23.0450  -23.3840   -9.7880 N.am    1  UNL1       -0.3260
      4  H         23.8760  -23.6790   -9.2720 H       1  UNL1        0.1690
      5  C         24.6770  -23.1610  -11.5970 C.3     1  UNL1        0.2400
      6  N         25.1560  -22.0940  -12.4730 N.am    1  UNL1       -0.2550
      7  C         25.6490  -20.9400  -11.8830 C.2     1  UNL1        0.2920
      8  O         25.8120  -20.8280  -10.6650 O.2     1  UNL1       -0.2640
      9  C         26.0510  -19.8690  -12.8070 C.2     1  UNL1        0.2000
     10  F         26.5040  -18.7180  -12.2710 F       1  UNL1       -0.1990
     11  C         26.0100  -20.0750  -14.1180 C.2     1  UNL1        0.1460
     12  N         25.5790  -21.2730  -14.6490 N.am    1  UNL1       -0.2790
     13  C         25.1720  -22.3410  -13.8460 C.2     1  UNL1        0.3340
     14  O         24.8580  -23.4340  -14.3210 O.2     1  UNL1       -0.2460
     15  C         25.6180  -21.5060  -16.0910 C.3     1  UNL1        0.2320
     16  C         26.8090  -20.8310  -16.7680 C.3     1  UNL1        0.0560
     17  C         26.2720  -20.5600  -18.1530 C.3     1  UNL1        0.0310
     18  C         24.8280  -20.2090  -17.8620 C.3     1  UNL1        0.1700
     19  O         24.4320  -20.9950  -16.7280 O.3     1  UNL1       -0.3660
     20  C         21.8320  -23.4140   -9.0740 C.2     1  UNL1        0.0340
     21  C         21.5750  -22.3430   -8.2040 C.2     1  UNL1        0.0310
     22  C         20.4100  -22.3110   -7.4300 C.2     1  UNL1        0.0270
     23  C         19.4810  -23.3480   -7.5440 C.2     1  UNL1        0.0790
     24  C         19.7350  -24.4330   -8.3900 C.2     1  UNL1        0.0270
     25  C         20.9070  -24.4590   -9.1540 C.2     1  UNL1        0.0310
     26  S         18.0230  -23.3460   -6.5200 S.O2    1  UNL1        0.2600
     27  O         18.0860  -22.1640   -5.6840 O.2     1  UNL1       -0.2000
     28  O         17.8990  -24.6670   -5.9400 O.2     1  UNL1       -0.2000
     29  N         16.7650  -23.1500   -7.6110 N.3     1  UNL1       -0.3070
     30  C         15.9210  -24.3030   -7.9790 C.3     1  UNL1        0.1350
     31  C         15.6130  -24.1020   -9.4600 C.3     1  UNL1        0.0220
     32  C         15.7180  -22.6000   -9.6410 C.3     1  UNL1        0.0220
     33  C         16.9110  -22.2460   -8.7630 C.3     1  UNL1        0.1350
@<TRIPOS>BOND
     1    17    18    1
     2    17    16    1
     3    18    19    1
     4    16    15    1
     5    19    15    1
     6    15    12    1
     7    12    11    1
     8    12    13   am
     9    14    13    2
    10    11     9    2
    11    13     6   am
    12     9    10    1
    13     9     7    1
    14     6     7   am
    15     6     5    1
    16     7     8    2
    17     1     2    2
    18     5     2    1
    19     2     3   am
    20     3     4    1
    21     3    20    1
    22    32    31    1
    23    32    33    1
    24    31    30    1
    25    25    20    2
    26    25    24    1
    27    20    21    1
    28    33    29    1
    29    24    23    2
    30    21    22    2
    31    30    29    1
    32    29    26    1
    33    23    22    1
    34    23    26    1
    35    26    28    2
    36    26    27    2
