@<TRIPOS>MOLECULE
tr1336_out_ligand_01.pdbqt
 34 36 0 0 0
SMALL
GASTEIGER

@<TRIPOS>ATOM
      1  C         18.6220  -23.1430   -6.7490 C.ar    1  UNL1        0.1590
      2  N         18.7070  -24.2320   -7.4640 N.ar    1  UNL1       -0.1410
      3  N         19.8250  -24.4490   -8.2800 N.ar    1  UNL1       -0.1240
      4  C         20.7720  -23.5720   -8.2930 C.ar    1  UNL1        0.1910
      5  N         20.7920  -22.4390   -7.5630 N.ar    1  UNL1       -0.2990
      6  C         19.7390  -22.1080   -6.7720 C.ar    1  UNL1        0.2790
      7  O         19.6930  -21.0760   -6.1210 O.2     1  UNL1       -0.2650
      8  H         21.5230  -21.7580   -7.7140 H       1  UNL1        0.1710
      9  S         22.1810  -23.7850   -9.2850 S.3     1  UNL1       -0.0810
     10  C         22.5850  -22.0310   -9.5330 C.3     1  UNL1        0.1850
     11  C         23.7300  -21.8310  -10.5300 C.2     1  UNL1        0.2310
     12  O         24.6350  -21.0220  -10.3400 O.2     1  UNL1       -0.2720
     13  N         23.5960  -22.6670  -11.6350 N.am    1  UNL1       -0.3260
     14  H         22.7710  -23.2540  -11.6530 H       1  UNL1        0.1690
     15  C         24.4630  -22.7880  -12.7550 C.2     1  UNL1        0.0410
     16  C         25.5670  -23.6500  -12.7410 C.2     1  UNL1        0.0300
     17  C         26.4090  -23.7530  -13.8460 C.2     1  UNL1        0.0030
     18  C         26.1610  -22.9940  -14.9880 C.2     1  UNL1        0.0070
     19  C         25.0650  -22.1200  -15.0430 C.2     1  UNL1       -0.0540
     20  C         24.8550  -21.3240  -16.3090 C.3     1  UNL1        0.0490
     21  C         24.1970  -22.0160  -13.9230 C.2     1  UNL1       -0.0290
     22  C         23.0100  -21.0770  -13.9680 C.3     1  UNL1        0.0510
     23  C         17.4300  -22.9520   -5.8690 C.2     1  UNL1        0.0270
     24  C         17.5450  -23.1970   -4.4920 C.2     1  UNL1        0.0160
     25  C         16.4380  -23.0550   -3.6560 C.2     1  UNL1        0.0010
     26  C         15.2120  -22.6690   -4.1890 C.2     1  UNL1        0.0020
     27  C         15.0900  -22.4040   -5.5550 C.2     1  UNL1        0.0300
     28  C         16.1920  -22.5230   -6.4120 C.2     1  UNL1        0.0470
     29  N         16.1060  -22.2130   -7.7930 N.am    1  UNL1       -0.3260
     30  C         15.7850  -23.0510   -8.8510 C.2     1  UNL1        0.2210
     31  O         15.5790  -24.2610   -8.7940 O.2     1  UNL1       -0.2730
     32  H         16.2380  -21.2250   -8.0220 H       1  UNL1        0.1690
     33  C         15.7240  -22.2810  -10.1620 C.3     1  UNL1        0.0980
     34  C         17.0630  -21.6740  -10.5450 C.3     1  UNL1        0.0140
@<TRIPOS>BOND
     1    20    19    1
     2    19    18    2
     3    19    21    1
     4    18    17    1
     5    22    21    1
     6    21    15    2
     7    17    16    2
     8    15    16    1
     9    15    13    1
    10    14    13    1
    11    13    11   am
    12    34    33    1
    13    11    12    2
    14    11    10    1
    15    33    30    1
    16    10     9    1
    17     9     4    1
    18    30    31    2
    19    30    29   am
    20     4     3   ar
    21     4     5   ar
    22     3     2   ar
    23    32    29    1
    24    29    28    1
    25     8     5    1
    26     5     6   ar
    27     2     1   ar
    28     6     1   ar
    29     6     7    2
    30     1    23    1
    31    28    23    2
    32    28    27    1
    33    23    24    1
    34    27    26    2
    35    24    25    2
    36    26    25    1
