@<TRIPOS>MOLECULE
tr13710_out_ligand_01.pdbqt
 35 37 0 0 0
SMALL
GASTEIGER

@<TRIPOS>ATOM
      1  C         18.9080  -23.2170   -7.2590 C.ar    1  UNL1        0.1590
      2  N         19.1360  -24.2860   -7.9750 N.ar    1  UNL1       -0.1410
      3  N         20.3890  -24.4790   -8.5640 N.ar    1  UNL1       -0.1240
      4  C         21.2950  -23.5710   -8.4360 C.ar    1  UNL1        0.1910
      5  N         21.1510  -22.4290   -7.7300 N.ar    1  UNL1       -0.2990
      6  C         20.0030  -22.1830   -7.0450 C.ar    1  UNL1        0.2790
      7  O         19.8750  -21.2380   -6.2830 O.2     1  UNL1       -0.2650
      8  H         21.9050  -21.7650   -7.6390 H       1  UNL1        0.1710
      9  S         22.8590  -23.7900   -9.1630 S.3     1  UNL1       -0.0760
     10  C         22.6090  -22.9540  -10.7750 C.3     1  UNL1        0.1430
     11  C         21.1650  -22.5380  -11.0340 C.3     1  UNL1        0.0310
     12  C         23.5750  -21.7660  -10.8460 C.2     1  UNL1        0.2360
     13  O         23.7310  -21.0170   -9.8870 O.2     1  UNL1       -0.2720
     14  N         24.2720  -21.7190  -12.0500 N.am    1  UNL1       -0.3260
     15  H         24.1130  -22.4940  -12.6800 H       1  UNL1        0.1690
     16  C         25.2280  -20.7640  -12.4740 C.2     1  UNL1        0.0410
     17  C         26.1800  -20.2360  -11.5970 C.2     1  UNL1        0.0300
     18  C         27.1130  -19.3000  -12.0360 C.2     1  UNL1        0.0030
     19  C         27.1030  -18.8690  -13.3560 C.2     1  UNL1        0.0070
     20  C         26.1570  -19.3680  -14.2630 C.2     1  UNL1       -0.0540
     21  C         26.2000  -18.8580  -15.6800 C.3     1  UNL1        0.0490
     22  C         25.2060  -20.3250  -13.8260 C.2     1  UNL1       -0.0290
     23  C         24.1840  -20.8800  -14.7910 C.3     1  UNL1        0.0510
     24  C         17.5720  -23.0470   -6.6180 C.2     1  UNL1        0.0270
     25  C         17.3530  -23.5790   -5.3350 C.2     1  UNL1        0.0230
     26  C         16.0980  -23.4810   -4.7230 C.2     1  UNL1       -0.0610
     27  C         15.0680  -22.8210   -5.3970 C.2     1  UNL1        0.0090
     28  C         15.8680  -24.0350   -3.3460 C.3     1  UNL1        0.0480
     29  C         15.2800  -22.2730   -6.6680 C.2     1  UNL1        0.0310
     30  C         16.5280  -22.3640   -7.2920 C.2     1  UNL1        0.0470
     31  N         16.7770  -21.7890   -8.5640 N.am    1  UNL1       -0.3270
     32  C         16.6800  -22.3790   -9.8100 C.2     1  UNL1        0.2180
     33  C         16.9380  -21.3900  -10.9210 C.3     1  UNL1        0.1170
     34  O         16.4240  -23.5520  -10.0570 O.2     1  UNL1       -0.2740
     35  H         16.9900  -20.7890   -8.5530 H       1  UNL1        0.1690
@<TRIPOS>BOND
     1    21    20    1
     2    23    22    1
     3    20    22    1
     4    20    19    2
     5    22    16    2
     6    19    18    1
     7    15    14    1
     8    16    14    1
     9    16    17    1
    10    14    12   am
    11    18    17    2
    12    11    10    1
    13    33    32    1
    14    12    10    1
    15    12    13    2
    16    10     9    1
    17    34    32    2
    18    32    31   am
    19     9     4    1
    20    31    35    1
    21    31    30    1
    22     3     4   ar
    23     3     2   ar
    24     4     5   ar
    25     2     1   ar
    26     5     8    1
    27     5     6   ar
    28    30    29    1
    29    30    24    2
    30     1     6   ar
    31     1    24    1
    32     6     7    2
    33    29    27    2
    34    24    25    1
    35    27    26    1
    36    25    26    2
    37    26    28    1
