@<TRIPOS>MOLECULE
tr13773_out_ligand_01.pdbqt
 27 30 0 0 0
SMALL
GASTEIGER

@<TRIPOS>ATOM
      1  N         15.1250  -24.4180   -3.2540 N.1     1  UNL1       -0.1910
      2  C         15.9720  -23.6890   -3.5710 C.1     1  UNL1        0.1050
      3  C         17.0010  -22.7700   -3.9130 C.2     1  UNL1        0.1110
      4  C         17.4670  -21.6860   -3.1530 C.2     1  UNL1        0.1660
      5  N         18.4480  -21.0130   -3.7600 N.2     1  UNL1       -0.1750
      6  N         18.6210  -21.6780   -4.9360 N.pl3   1  UNL1       -0.1920
      7  C         19.5410  -21.3700   -5.9450 C.2     1  UNL1        0.1670
      8  C         19.5910  -22.1210   -7.0500 C.2     1  UNL1        0.0860
      9  C         18.6190  -23.2650   -7.1190 C.2     1  UNL1        0.0580
     10  N         17.7610  -23.5610   -6.1770 N.2     1  UNL1       -0.2310
     11  C         17.7520  -22.7610   -5.0670 C.2     1  UNL1        0.1760
     12  C         18.6650  -24.1270   -8.3850 C.3     1  UNL1        0.1760
     13  N         18.9230  -23.3470   -9.6050 N.3     1  UNL1       -0.4030
     14  C         17.7160  -22.8930  -10.2900 C.3     1  UNL1        0.1170
     15  C         17.9350  -21.8220  -11.3690 C.3     1  UNL1        0.0190
     16  C         18.8240  -20.6550  -10.9190 C.3     1  UNL1        0.0020
     17  C         19.9600  -20.3420  -11.8960 C.3     1  UNL1        0.0050
     18  C         20.9140  -21.5030  -12.2050 C.3     1  UNL1        0.0390
     19  C         21.6920  -22.0220  -11.0190 C.2     1  UNL1       -0.0500
     20  C         22.8920  -21.3560  -10.6910 C.2     1  UNL1        0.0070
     21  C         21.2920  -23.1350  -10.2440 C.2     1  UNL1       -0.0340
     22  C         23.6960  -21.7870   -9.6380 C.2     1  UNL1        0.0010
     23  C         23.3170  -22.8920   -8.8900 C.2     1  UNL1        0.0010
     24  C         22.1280  -23.5570   -9.1890 C.2     1  UNL1        0.0090
     25  C         19.9860  -23.8910  -10.4550 C.3     1  UNL1        0.1560
     26  O         20.3890  -20.2870   -5.7800 O.2     1  UNL1       -0.3450
     27  H         21.2250  -20.6540   -5.4200 H       1  UNL1        0.2190
@<TRIPOS>BOND
     1    18    17    1
     2    18    19    1
     3    17    16    1
     4    15    16    1
     5    15    14    1
     6    19    20    2
     7    19    21    1
     8    20    22    1
     9    25    21    1
    10    25    13    1
    11    14    13    1
    12    21    24    2
    13    22    23    2
    14    13    12    1
    15    24    23    1
    16    12     9    1
    17     9     8    1
    18     9    10    2
    19     8     7    2
    20    10    11    1
    21     7    26    1
    22     7     6    1
    23    26    27    1
    24    11     6    1
    25    11     3    2
    26     6     5    1
    27     3     2    1
    28     3     4    1
    29     5     4    2
    30     2     1    3
