@<TRIPOS>MOLECULE
tr13329_out_ligand_01.pdbqt
 33 37 0 0 0
SMALL
GASTEIGER

@<TRIPOS>ATOM
      1  C         20.9080  -21.1360  -12.3090 C.3     1  UNL1        0.0510
      2  C         20.0960  -21.8820  -11.3060 C.ar    1  UNL1       -0.0220
      3  C         18.7280  -21.7260  -11.0870 C.ar    1  UNL1        0.0160
      4  C         17.7670  -20.8100  -11.7700 C.3     1  UNL1        0.0690
      5  N         18.3570  -22.6260  -10.1070 N.ar    1  UNL1       -0.3320
      6  C         19.4620  -23.3180   -9.6720 C.ar    1  UNL1        0.1460
      7  N         19.4430  -24.2620   -8.7140 N.2     1  UNL1       -0.2230
      8  C         20.6600  -24.7770   -8.4970 C.2     1  UNL1        0.2370
      9  N         21.8070  -24.4590   -9.1110 N.2     1  UNL1       -0.2230
     10  C         21.7910  -23.5190  -10.0770 C.2     1  UNL1        0.1470
     11  C         20.5680  -22.8910  -10.3950 C.ar    1  UNL1        0.0640
     12  N         22.9680  -23.1490  -10.7400 N.am    1  UNL1       -0.2920
     13  C         23.7500  -22.0590  -10.4490 C.2     1  UNL1        0.3240
     14  O         23.5920  -21.2950   -9.5030 O.2     1  UNL1       -0.2470
     15  N         24.8020  -21.8770  -11.3350 N.am    1  UNL1       -0.3340
     16  C         25.7190  -20.7670  -11.1500 C.3     1  UNL1        0.1280
     17  C         25.0670  -22.5840  -12.5770 C.3     1  UNL1        0.1320
     18  C         26.8100  -20.9820  -12.1880 C.3     1  UNL1        0.0260
     19  C         26.1240  -21.7590  -13.3160 C.3     1  UNL1        0.0090
     20  H         23.3300  -23.8000  -11.4050 H       1  UNL1        0.1720
     21  C         25.5720  -20.9010  -14.4710 C.3     1  UNL1        0.0450
     22  C         25.1750  -21.6030  -15.7460 C.2     1  UNL1       -0.0580
     23  C         24.7810  -22.9480  -15.7380 C.2     1  UNL1        0.0070
     24  C         24.3990  -23.5820  -16.9210 C.2     1  UNL1        0.0010
     25  C         24.4170  -22.8850  -18.1270 C.2     1  UNL1        0.0000
     26  C         24.8200  -21.5520  -18.1510 C.2     1  UNL1        0.0010
     27  C         25.1980  -20.9150  -16.9680 C.2     1  UNL1        0.0070
     28  C         17.0270  -22.8280   -9.5520 C.3     1  UNL1        0.1620
     29  C         16.9870  -23.1230   -8.0510 C.3     1  UNL1        0.1390
     30  C         16.1030  -24.2730   -7.5950 C.3     1  UNL1        0.0350
     31  C         15.9020  -23.9330   -6.1390 C.3     1  UNL1        0.0290
     32  C         15.7690  -22.4250   -6.1900 C.3     1  UNL1        0.1680
     33  O         16.5770  -21.9700   -7.2870 O.3     1  UNL1       -0.3840
@<TRIPOS>BOND
     1    26    25    2
     2    26    27    1
     3    25    24    1
     4    27    22    2
     5    24    23    2
     6    22    23    1
     7    22    21    1
     8    21    19    1
     9    19    17    1
    10    19    18    1
    11    17    15    1
    12     1     2    1
    13    18    16    1
    14     4     3    1
    15    20    12    1
    16    15    16    1
    17    15    13   am
    18     2     3   ar
    19     2    11   ar
    20     3     5   ar
    21    12    13   am
    22    12    10    1
    23    13    14    2
    24    11    10    1
    25    11     6   ar
    26     5     6   ar
    27     5    28    1
    28    10     9    2
    29     6     7    1
    30    28    29    1
    31     9     8    1
    32     7     8    2
    33    29    30    1
    34    29    33    1
    35    30    31    1
    36    33    32    1
    37    32    31    1
