@<TRIPOS>MOLECULE
tr13498_out_ligand_01.pdbqt
 29 33 0 0 0
SMALL
GASTEIGER

@<TRIPOS>ATOM
      1  C         21.5660  -23.4390  -10.0590 C.2     1  UNL1        0.0510
      2  C         22.5860  -23.9860   -9.1020 C.2     1  UNL1        0.0860
      3  C         23.8650  -23.7410   -9.4060 C.2     1  UNL1        0.1670
      4  N         24.1790  -23.0120  -10.5600 N.pl3   1  UNL1       -0.1920
      5  N         25.4250  -22.6820  -11.0010 N.2     1  UNL1       -0.1750
      6  C         25.1960  -21.9970  -12.1240 C.2     1  UNL1        0.1660
      7  C         23.8300  -21.8770  -12.4180 C.2     1  UNL1        0.1110
      8  C         23.2380  -21.2150  -13.5290 C.1     1  UNL1        0.1050
      9  N         22.8000  -20.6630  -14.4520 N.1     1  UNL1       -0.1910
     10  C         23.1740  -22.5350  -11.4020 C.2     1  UNL1        0.1760
     11  N         21.8500  -22.7570  -11.1380 N.2     1  UNL1       -0.2310
     12  C         20.1090  -23.7180   -9.7370 C.3     1  UNL1        0.1420
     13  S         19.1660  -22.1770   -9.9370 S.3     1  UNL1       -0.0840
     14  C         17.6430  -22.6480   -9.2630 C.ar    1  UNL1        0.1970
     15  N         16.6840  -23.1700   -9.9980 N.ar    1  UNL1       -0.1220
     16  N         15.6020  -23.3900   -9.1980 N.ar    1  UNL1       -0.1290
     17  C         15.9160  -22.9970   -7.9820 C.ar    1  UNL1        0.1590
     18  C         15.1340  -23.0060   -6.8080 C.2     1  UNL1        0.0600
     19  N         17.2220  -22.5210   -7.9480 N.ar    1  UNL1       -0.2710
     20  C         15.6240  -22.5650   -5.6380 C.2     1  UNL1       -0.0460
     21  C         14.7720  -22.5810   -4.4000 C.3     1  UNL1        0.0490
     22  C         17.0220  -22.0640   -5.5780 C.2     1  UNL1       -0.0030
     23  C         17.5770  -21.6020   -4.3720 C.2     1  UNL1        0.0140
     24  C         17.8260  -22.0470   -6.7460 C.2     1  UNL1        0.0540
     25  C         18.8910  -21.1400   -4.3150 C.2     1  UNL1        0.0010
     26  C         19.6730  -21.1340   -5.4620 C.2     1  UNL1        0.0020
     27  C         19.1460  -21.5860   -6.6740 C.2     1  UNL1        0.0310
     28  O         24.8910  -24.1990   -8.5950 O.2     1  UNL1       -0.3450
     29  H         25.1510  -23.4340   -8.0370 H       1  UNL1        0.2190
@<TRIPOS>BOND
     1     9     8    3
     2     8     7    1
     3     7     6    1
     4     7    10    2
     5     6     5    2
     6    10    11    1
     7    10     4    1
     8    11     1    2
     9     5     4    1
    10     4     3    1
    11     1    12    1
    12     1     2    1
    13    15    14   ar
    14    15    16   ar
    15    13    12    1
    16    13    14    1
    17     3     2    2
    18     3    28    1
    19    14    19   ar
    20    16    17   ar
    21    28    29    1
    22    17    19   ar
    23    17    18    1
    24    19    24    1
    25    18    20    2
    26    24    27    1
    27    24    22    2
    28    27    26    2
    29    20    22    1
    30    20    21    1
    31    22    23    1
    32    26    25    1
    33    23    25    2
