@<TRIPOS>MOLECULE
tr13580_out_ligand_01.pdbqt
 36 40 0 0 0
SMALL
GASTEIGER

@<TRIPOS>ATOM
      1  C         20.2330  -23.0410  -10.1470 C.2     1  UNL1        0.2200
      2  O         19.4250  -22.3940  -10.8150 O.2     1  UNL1       -0.2730
      3  N         21.6050  -22.9720  -10.3790 N.am    1  UNL1       -0.3500
      4  C         22.6280  -23.5840   -9.5250 C.3     1  UNL1        0.1290
      5  C         23.9180  -22.7660   -9.5300 C.3     1  UNL1        0.0590
      6  C         24.5230  -22.6330  -10.9470 C.3     1  UNL1        0.0780
      7  C         25.3470  -21.3400  -11.0110 C.3     1  UNL1        0.0480
      8  C         23.4270  -22.7560  -12.0490 C.3     1  UNL1        0.1440
      9  C         22.0790  -22.2170  -11.5500 C.3     1  UNL1        0.1540
     10  C         19.7810  -23.9330   -9.0070 C.3     1  UNL1        0.1100
     11  C         19.9570  -23.2440   -7.6560 C.3     1  UNL1        0.0870
     12  C         18.6330  -22.9180   -7.0570 C.ar    1  UNL1        0.1050
     13  N         18.3760  -23.0470   -5.7120 N.ar    1  UNL1       -0.3430
     14  C         17.0690  -22.6980   -5.4900 C.ar    1  UNL1        0.0620
     15  H         19.0380  -23.3490   -5.0070 H       1  UNL1        0.1670
     16  C         16.2930  -22.6480   -4.3310 C.2     1  UNL1        0.0320
     17  C         16.5860  -22.3590   -6.7500 C.ar    1  UNL1        0.0860
     18  C         14.9660  -22.2280   -4.4850 C.2     1  UNL1        0.0090
     19  C         14.4410  -21.8710   -5.7420 C.2     1  UNL1       -0.0600
     20  C         13.0080  -21.4430   -5.8590 C.3     1  UNL1        0.0480
     21  C         15.2530  -21.9420   -6.8870 C.2     1  UNL1        0.0400
     22  N         17.5610  -22.5100   -7.7060 N.ar    1  UNL1       -0.2330
     23  N         23.8330  -22.2580  -13.3540 N.pl3   1  UNL1       -0.3150
     24  C         23.3540  -21.1080  -13.9260 C.2     1  UNL1        0.2120
     25  N         23.8960  -20.8770  -15.1030 N.2     1  UNL1       -0.2360
     26  C         24.7500  -21.9390  -15.3100 C.2     1  UNL1        0.1440
     27  C         25.6060  -22.2720  -16.3730 C.2     1  UNL1        0.1350
     28  C         24.7280  -22.8080  -14.2300 C.2     1  UNL1        0.1650
     29  N         26.3560  -23.3920  -16.2740 N.2     1  UNL1       -0.2280
     30  C         26.2240  -24.1530  -15.1650 C.2     1  UNL1        0.2370
     31  N         25.4330  -23.9430  -14.0930 N.2     1  UNL1       -0.2220
     32  N         25.7330  -21.4920  -17.5180 N.pl3   1  UNL1       -0.2850
     33  H         24.8510  -21.3790  -18.0000 H       1  UNL1        0.1250
     34  H         26.5510  -21.7230  -18.0700 H       1  UNL1        0.1250
     35  O         25.4380  -23.7330  -11.1350 O.3     1  UNL1       -0.3880
     36  H         24.9280  -24.5230  -11.3960 H       1  UNL1        0.2100
@<TRIPOS>BOND
     1    34    32    1
     2    33    32    1
     3    32    27    1
     4    27    29    1
     5    27    26    2
     6    29    30    2
     7    26    25    1
     8    26    28    1
     9    30    31    1
    10    25    24    2
    11    28    31    2
    12    28    23    1
    13    24    23    1
    14    23     8    1
    15     8     9    1
    16     8     6    1
    17     9     3    1
    18    36    35    1
    19    35     6    1
    20     7     6    1
    21     6     5    1
    22     2     1    2
    23     3     1   am
    24     3     4    1
    25     1    10    1
    26     5     4    1
    27    10    11    1
    28    22    12   ar
    29    22    17   ar
    30    11    12    1
    31    12    13   ar
    32    21    17    1
    33    21    19    2
    34    17    14   ar
    35    20    19    1
    36    19    18    1
    37    13    14   ar
    38    13    15    1
    39    14    16    1
    40    18    16    2
