@<TRIPOS>MOLECULE
tr13488_out_ligand_01.pdbqt
 37 40 0 0 0
SMALL
GASTEIGER

@<TRIPOS>ATOM
      1  C         23.1720  -22.4170   -9.6590 C.2     1  UNL1        0.2310
      2  O         22.9630  -21.3080   -9.1670 O.2     1  UNL1       -0.2720
      3  N         22.2230  -23.3900   -9.9200 N.am    1  UNL1       -0.3270
      4  H         22.5110  -24.1610  -10.5090 H       1  UNL1        0.1690
      5  C         24.5730  -22.8070  -10.1020 C.3     1  UNL1        0.1850
      6  S         25.2840  -21.4730  -11.0990 S.3     1  UNL1       -0.0830
      7  C         25.1790  -22.1240  -12.6960 C.ar    1  UNL1        0.1690
      8  N         25.6040  -23.3160  -13.0530 N.ar    1  UNL1       -0.2160
      9  C         25.2360  -23.4150  -14.3750 C.ar    1  UNL1        0.1580
     10  C         25.3810  -24.4150  -15.3280 C.2     1  UNL1        0.1980
     11  C         24.5970  -22.2710  -14.8110 C.ar    1  UNL1        0.1660
     12  N         24.9030  -24.2400  -16.5750 N.2     1  UNL1       -0.1920
     13  C         24.2810  -23.0820  -16.8610 C.cat   1  UNL1        0.2030
     14  N         24.1090  -22.0310  -16.0350 N.pl3   1  UNL1       -0.1980
     15  N         24.5730  -21.4480  -13.7230 N.ar    1  UNL1       -0.3180
     16  H         24.1980  -20.5060  -13.6940 H       1  UNL1        0.1690
     17  O         26.0120  -25.6060  -15.0580 O.2     1  UNL1       -0.3430
     18  H         26.9190  -25.4860  -15.3900 H       1  UNL1        0.2190
     19  N         23.8130  -22.9470  -18.1530 N.pl3   1  UNL1       -0.2700
     20  H         23.0470  -23.5900  -18.2990 H       1  UNL1        0.1270
     21  H         24.5760  -22.9670  -18.8120 H       1  UNL1        0.1270
     22  C         20.8560  -23.3670   -9.5700 C.2     1  UNL1        0.0340
     23  C         20.4710  -24.1030   -8.4400 C.2     1  UNL1        0.0310
     24  C         19.1370  -24.1310   -8.0260 C.2     1  UNL1        0.0270
     25  C         18.1820  -23.3940   -8.7270 C.2     1  UNL1        0.0790
     26  C         18.5480  -22.6640   -9.8590 C.2     1  UNL1        0.0270
     27  C         19.8850  -22.6490  -10.2740 C.2     1  UNL1        0.0310
     28  S         16.4720  -23.4490   -8.2270 S.O2    1  UNL1        0.2600
     29  O         16.0100  -24.8060   -8.4250 O.2     1  UNL1       -0.2000
     30  O         15.7980  -22.3370   -8.8620 O.2     1  UNL1       -0.2000
     31  N         16.5580  -23.1400   -6.5460 N.3     1  UNL1       -0.3070
     32  C         17.2660  -21.9000   -6.1380 C.3     1  UNL1        0.1350
     33  C         18.1350  -22.1940   -4.9220 C.3     1  UNL1        0.0210
     34  C         17.4280  -22.0240   -3.5820 C.3     1  UNL1        0.0020
     35  C         15.9710  -22.4800   -3.5040 C.3     1  UNL1        0.0020
     36  C         15.6390  -23.7360   -4.3040 C.3     1  UNL1        0.0210
     37  C         15.3290  -23.4410   -5.7710 C.3     1  UNL1        0.1350
@<TRIPOS>BOND
     1    21    19    1
     2    20    19    1
     3    19    13    1
     4    13    12    2
     5    13    14    1
     6    12    10    2
     7    14    11    1
     8    18    17    1
     9    10    17    1
    10    10     9    1
    11    11     9   ar
    12    11    15   ar
    13     9     8   ar
    14    15    16    1
    15    15     7   ar
    16     8     7   ar
    17     7     6    1
    18     6     5    1
    19     4     3    1
    20    27    26    1
    21    27    22    2
    22     5     1    1
    23     3     1   am
    24     3    22    1
    25    26    25    2
    26     1     2    2
    27    22    23    1
    28    30    28    2
    29    25    28    1
    30    25    24    1
    31    23    24    2
    32    29    28    2
    33    28    31    1
    34    31    32    1
    35    31    37    1
    36    32    33    1
    37    37    36    1
    38    33    34    1
    39    36    35    1
    40    34    35    1
