@<TRIPOS>MOLECULE
tr1351_out_ligand_01.pdbqt
 27 30 0 0 0
SMALL
GASTEIGER

@<TRIPOS>ATOM
      1  N         26.1970  -21.0910  -16.0920 N.1     1  UNL1       -0.1910
      2  C         25.7760  -21.5320  -15.1040 C.1     1  UNL1        0.1050
      3  C         25.3130  -22.0950  -13.8840 C.2     1  UNL1        0.1110
      4  C         26.0340  -22.8920  -12.9850 C.2     1  UNL1        0.1660
      5  N         25.3120  -23.2580  -11.9240 N.2     1  UNL1       -0.1750
      6  N         24.0830  -22.6970  -12.1450 N.pl3   1  UNL1       -0.1980
      7  C         22.9420  -22.7870  -11.3010 C.2     1  UNL1        0.1290
      8  C         21.8280  -22.1400  -11.6870 C.2     1  UNL1        0.0690
      9  C         21.9020  -21.3920  -12.9690 C.2     1  UNL1        0.1230
     10  N         22.9330  -21.2990  -13.7520 N.2     1  UNL1       -0.2400
     11  C         24.0560  -21.9640  -13.3370 C.2     1  UNL1        0.1750
     12  N         23.0780  -23.5530  -10.1420 N.pl3   1  UNL1       -0.3700
     13  H         24.0710  -23.6610   -9.8980 H       1  UNL1        0.1610
     14  C         22.1530  -23.6220   -9.0220 C.3     1  UNL1        0.0830
     15  C         21.8550  -22.1970   -8.5420 C.3     1  UNL1        0.0280
     16  C         20.8220  -22.1820   -7.4140 C.3     1  UNL1        0.0450
     17  C         19.5210  -22.9340   -7.7720 C.3     1  UNL1        0.0860
     18  C         19.8250  -24.3430   -8.3260 C.3     1  UNL1        0.0450
     19  C         20.8670  -24.3380   -9.4470 C.3     1  UNL1        0.0280
     20  O         18.8500  -22.1900   -8.7990 O.3     1  UNL1       -0.3850
     21  H         19.4290  -22.0990   -9.5710 H       1  UNL1        0.2110
     22  C         18.5970  -23.0200   -6.5620 C.2     1  UNL1       -0.0060
     23  C         18.4610  -21.9740   -5.6390 C.2     1  UNL1        0.0130
     24  C         17.6020  -22.1000   -4.5490 C.2     1  UNL1        0.0200
     25  C         16.8930  -23.2780   -4.4060 C.2     1  UNL1        0.1160
     26  N         16.9860  -24.3150   -5.2620 N.2     1  UNL1       -0.2720
     27  C         17.8300  -24.1600   -6.3110 C.2     1  UNL1        0.1260
@<TRIPOS>BOND
     1     1     2    3
     2     2     3    1
     3     3    11    2
     4     3     4    1
     5    10    11    1
     6    10     9    2
     7    11     6    1
     8     4     5    2
     9     9     8    1
    10     6     5    1
    11     6     7    1
    12     8     7    2
    13     7    12    1
    14    12    13    1
    15    12    14    1
    16    21    20    1
    17    19    14    1
    18    19    18    1
    19    14    15    1
    20    20    17    1
    21    15    16    1
    22    18    17    1
    23    17    16    1
    24    17    22    1
    25    22    27    2
    26    22    23    1
    27    27    26    1
    28    23    24    2
    29    26    25    2
    30    24    25    1
