@<TRIPOS>MOLECULE
tr13744_out_ligand_01.pdbqt
 29 32 0 0 0
SMALL
GASTEIGER

@<TRIPOS>ATOM
      1  C         20.4280  -20.9030  -12.1050 C.3     1  UNL1        0.0510
      2  C         19.7910  -21.7910  -11.0920 C.ar    1  UNL1       -0.0220
      3  C         18.4450  -21.7690  -10.7290 C.ar    1  UNL1        0.0160
      4  C         17.3590  -20.8760  -11.2320 C.3     1  UNL1        0.0690
      5  N         18.2470  -22.7740   -9.8040 N.ar    1  UNL1       -0.3320
      6  C         19.4440  -23.3900   -9.5270 C.ar    1  UNL1        0.1460
      7  N         19.6010  -24.3910   -8.6420 N.2     1  UNL1       -0.2230
      8  C         20.8680  -24.8130   -8.5830 C.2     1  UNL1        0.2370
      9  N         21.9170  -24.3570   -9.2800 N.2     1  UNL1       -0.2230
     10  C         21.7330  -23.3490  -10.1600 C.2     1  UNL1        0.1460
     11  C         20.4350  -22.8160  -10.3140 C.ar    1  UNL1        0.0640
     12  N         22.8170  -22.8460  -10.8930 N.am    1  UNL1       -0.3060
     13  C         23.5940  -21.7680  -10.5340 C.2     1  UNL1        0.2620
     14  O         23.4680  -21.0930   -9.5140 O.2     1  UNL1       -0.2670
     15  H         23.0360  -23.3170  -11.7640 H       1  UNL1        0.1700
     16  C         24.6850  -21.4260  -11.5110 C.2     1  UNL1        0.1000
     17  C         25.8810  -21.0630  -11.0090 C.2     1  UNL1        0.0240
     18  C         26.9880  -20.7150  -11.8620 C.2     1  UNL1        0.0180
     19  C         26.8410  -20.7490  -13.1900 C.2     1  UNL1        0.0930
     20  N         25.6390  -21.1120  -13.7650 N.am    1  UNL1       -0.3280
     21  C         25.5490  -21.1290  -15.2180 C.3     1  UNL1        0.1590
     22  C         24.5230  -21.4640  -13.0000 C.2     1  UNL1        0.2620
     23  O         23.4430  -21.7960  -13.4920 O.2     1  UNL1       -0.2670
     24  C         16.9980  -23.1280   -9.1430 C.3     1  UNL1        0.1620
     25  C         16.6330  -22.2940   -7.9060 C.3     1  UNL1        0.1390
     26  C         17.7330  -22.0930   -6.8730 C.3     1  UNL1        0.0350
     27  C         17.3680  -23.0640   -5.7780 C.3     1  UNL1        0.0290
     28  C         15.8580  -23.0510   -5.8370 C.3     1  UNL1        0.1680
     29  O         15.5050  -22.8700   -7.2150 O.3     1  UNL1       -0.3840
@<TRIPOS>BOND
     1    21    20    1
     2    20    19    1
     3    20    22   am
     4    23    22    2
     5    19    18    2
     6    22    16    1
     7     1     2    1
     8    18    17    1
     9    15    12    1
    10    16    17    2
    11    16    13    1
    12     4     3    1
    13     2     3   ar
    14     2    11   ar
    15    12    13   am
    16    12    10    1
    17     3     5   ar
    18    13    14    2
    19    11    10    1
    20    11     6   ar
    21    10     9    2
    22     5     6   ar
    23     5    24    1
    24     6     7    1
    25     9     8    1
    26    24    25    1
    27     7     8    2
    28    25    29    1
    29    25    26    1
    30    29    28    1
    31    26    27    1
    32    28    27    1
