@<TRIPOS>MOLECULE
tr13389_out_ligand_01.pdbqt
 34 36 0 0 0
SMALL
GASTEIGER

@<TRIPOS>ATOM
      1  C         20.8830  -22.1100  -11.1140 C.ar    1  UNL1        0.0850
      2  C         21.2290  -22.8800  -10.0070 C.ar    1  UNL1        0.0600
      3  S         22.8790  -23.3450  -10.0230 S.2     1  UNL1       -0.0770
      4  C         23.1740  -22.5700  -11.5120 C.ar    1  UNL1        0.0690
      5  C         24.3630  -22.5020  -12.2560 C.2     1  UNL1        0.0890
      6  C         24.3630  -21.8110  -13.4530 C.2     1  UNL1        0.0950
      7  C         23.1820  -21.2280  -13.8360 C.2     1  UNL1        0.1650
      8  N         22.0230  -21.2610  -13.1720 N.2     1  UNL1       -0.2230
      9  C         22.0250  -21.9400  -11.9880 C.ar    1  UNL1        0.0970
     10  S         20.2110  -23.3230   -8.6250 S.3     1  UNL1       -0.1120
     11  C         20.7990  -22.1620   -7.3540 C.3     1  UNL1        0.1830
     12  C         19.6310  -21.7440   -6.4760 C.2     1  UNL1        0.2310
     13  O         19.6830  -20.7090   -5.8210 O.2     1  UNL1       -0.2720
     14  N         18.5700  -22.6430   -6.5280 N.am    1  UNL1       -0.3260
     15  H         18.7540  -23.4950   -7.0530 H       1  UNL1        0.1690
     16  C         17.3180  -22.5630   -5.8710 C.2     1  UNL1        0.0490
     17  C         17.2200  -22.4350   -4.4790 C.2     1  UNL1        0.0300
     18  C         15.9780  -22.3580   -3.8410 C.2     1  UNL1        0.0020
     19  C         14.8070  -22.4060   -4.5850 C.2     1  UNL1        0.0010
     20  C         14.8800  -22.5270   -5.9700 C.2     1  UNL1        0.0180
     21  C         16.1270  -22.6050   -6.6290 C.2     1  UNL1        0.0740
     22  C         16.0940  -22.7350   -8.1310 C.3     1  UNL1        0.4190
     23  F         14.8370  -22.5990   -8.6410 F       1  UNL1       -0.1660
     24  F         16.5430  -23.9470   -8.5610 F       1  UNL1       -0.1660
     25  F         16.8570  -21.8090   -8.7880 F       1  UNL1       -0.1660
     26  C         19.5760  -21.5170  -11.4050 C.2     1  UNL1        0.2530
     27  N         19.5440  -20.1910  -11.7290 N.am    1  UNL1       -0.3660
     28  H         18.6460  -19.8010  -11.9790 H       1  UNL1        0.1590
     29  H         20.3790  -19.6440  -11.8900 H       1  UNL1        0.1590
     30  O         18.5170  -22.1360  -11.3590 O.2     1  UNL1       -0.2680
     31  O         25.5370  -23.0880  -11.8460 O.2     1  UNL1       -0.3590
     32  H         25.3860  -23.4690  -10.9650 H       1  UNL1        0.2170
     33  O         23.1210  -20.5250  -14.9970 O.2     1  UNL1       -0.3450
     34  H         23.2650  -21.2450  -15.6410 H       1  UNL1        0.2190
@<TRIPOS>BOND
     1    34    33    1
     2    33     7    1
     3     7     6    1
     4     7     8    2
     5     6     5    2
     6     8     9    1
     7     5    31    1
     8     5     4    1
     9     9     4   ar
    10     9     1   ar
    11    28    27    1
    12    29    27    1
    13    31    32    1
    14    27    26   am
    15     4     3   ar
    16    26    30    2
    17    26     1    1
    18     1     2   ar
    19     3     2   ar
    20     2    10    1
    21    25    22    1
    22    23    22    1
    23    10    11    1
    24    24    22    1
    25    22    21    1
    26    11    12    1
    27    15    14    1
    28    21    20    1
    29    21    16    2
    30    14    12   am
    31    14    16    1
    32    12    13    2
    33    20    19    2
    34    16    17    1
    35    19    18    1
    36    17    18    2
