@<TRIPOS>MOLECULE
tr1327_out_ligand_01.pdbqt
 34 37 0 0 0
SMALL
GASTEIGER

@<TRIPOS>ATOM
      1  C         23.6880  -22.2010  -11.2700 C.2     1  UNL1        0.2700
      2  O         24.1240  -21.4210  -10.4330 O.2     1  UNL1       -0.2660
      3  N         22.5420  -22.9540  -11.1190 N.am    1  UNL1       -0.3510
      4  H         22.2460  -23.4640  -11.9510 H       1  UNL1        0.1630
      5  C         24.3820  -22.4020  -12.5830 C.2     1  UNL1        0.1270
      6  C         25.3860  -23.3590  -12.7000 C.2     1  UNL1        0.0450
      7  C         26.0230  -23.5280  -13.9360 C.2     1  UNL1       -0.0400
      8  C         27.1040  -24.5600  -14.0670 C.3     1  UNL1        0.0490
      9  C         25.6100  -22.7090  -15.0010 C.3     1  UNL1        0.0860
     10  C         26.1790  -22.7620  -16.3680 C.2     1  UNL1        0.2630
     11  C         24.5940  -21.7710  -14.7880 C.2     1  UNL1        0.1700
     12  N         25.6430  -21.8820  -17.2690 N.am    1  UNL1       -0.2870
     13  O         27.0710  -23.5350  -16.6910 O.2     1  UNL1       -0.2670
     14  C         24.6610  -21.0210  -16.9350 C.2     1  UNL1        0.2480
     15  H         25.9980  -21.8820  -18.2120 H       1  UNL1        0.1720
     16  N         24.1140  -20.9080  -15.7830 N.2     1  UNL1       -0.1880
     17  N         23.9740  -21.6010  -13.6020 N.2     1  UNL1       -0.2230
     18  O         24.2650  -20.2390  -17.9410 O.2     1  UNL1       -0.3310
     19  H         24.6110  -20.6270  -18.7650 H       1  UNL1        0.2210
     20  C         21.6340  -22.7960   -9.9950 C.3     1  UNL1        0.0850
     21  C         21.6600  -24.0520   -9.1100 C.3     1  UNL1        0.0280
     22  C         20.3290  -24.3340   -8.3990 C.3     1  UNL1        0.0450
     23  C         19.5610  -23.0490   -8.0390 C.3     1  UNL1        0.0850
     24  C         19.2400  -22.2450   -9.3210 C.3     1  UNL1        0.0450
     25  C         20.2160  -22.4920  -10.4790 C.3     1  UNL1        0.0280
     26  O         20.4620  -22.2630   -7.2420 O.3     1  UNL1       -0.3850
     27  H         20.6080  -21.4230   -7.7090 H       1  UNL1        0.2110
     28  C         18.2900  -23.2560   -7.2150 C.2     1  UNL1       -0.0210
     29  C         17.3440  -24.2170   -7.6330 C.2     1  UNL1        0.0100
     30  C         16.1690  -24.4470   -6.9110 C.2     1  UNL1        0.0040
     31  C         15.9160  -23.7200   -5.7530 C.2     1  UNL1        0.0420
     32  C         16.8390  -22.7740   -5.3300 C.2     1  UNL1        0.1170
     33  F         16.5980  -22.0730   -4.2140 F       1  UNL1       -0.2060
     34  C         18.0140  -22.5370   -6.0430 C.2     1  UNL1        0.0520
@<TRIPOS>BOND
     1    19    18    1
     2    15    12    1
     3    18    14    1
     4    12    14    1
     5    12    10   am
     6    14    16    2
     7    13    10    2
     8    10     9    1
     9    16    11    2
    10     9    11    1
    11     9     7    1
    12    11    17    1
    13     8     7    1
    14     7     6    2
    15    17     5    2
    16     6     5    1
    17     5     1    1
    18     4     3    1
    19     1     3   am
    20     1     2    2
    21     3    20    1
    22    25    20    1
    23    25    24    1
    24    20    21    1
    25    24    23    1
    26    21    22    1
    27    22    23    1
    28    23    26    1
    29    23    28    1
    30    27    26    1
    31    29    28    2
    32    29    30    1
    33    28    34    1
    34    30    31    2
    35    34    32    2
    36    31    32    1
    37    32    33    1
