@<TRIPOS>MOLECULE
tr13200_out_ligand_01.pdbqt
 27 30 0 0 0
SMALL
GASTEIGER

@<TRIPOS>ATOM
      1  C         21.7430  -23.3820  -10.1170 C.2     1  UNL1        0.1460
      2  N         21.9110  -24.3920   -9.2390 N.2     1  UNL1       -0.2230
      3  C         20.8510  -24.8360   -8.5510 C.2     1  UNL1        0.2370
      4  N         19.5860  -24.4040   -8.6310 N.2     1  UNL1       -0.2230
      5  C         19.4490  -23.4030   -9.5180 C.ar    1  UNL1        0.1460
      6  C         20.4540  -22.8360  -10.2900 C.ar    1  UNL1        0.0640
      7  C         19.8370  -21.7980  -11.0690 C.ar    1  UNL1       -0.0220
      8  C         20.5040  -20.8960  -12.0490 C.3     1  UNL1        0.0510
      9  C         18.4840  -21.7710  -10.7330 C.ar    1  UNL1        0.0160
     10  C         17.4130  -20.8690  -11.2520 C.3     1  UNL1        0.0690
     11  N         18.2600  -22.7770   -9.8140 N.ar    1  UNL1       -0.3320
     12  N         22.8270  -22.9060  -10.8620 N.am    1  UNL1       -0.3060
     13  C         23.6230  -21.8360  -10.5130 C.2     1  UNL1        0.2590
     14  O         23.4530  -21.0690   -9.5750 O.2     1  UNL1       -0.2670
     15  H         22.9790  -23.3310  -11.7590 H       1  UNL1        0.1700
     16  C         24.7200  -21.6130  -11.4520 C.2     1  UNL1        0.0650
     17  C         26.0440  -21.6230  -11.0460 C.2     1  UNL1        0.0890
     18  S         27.0470  -21.2970  -12.3830 S.3     1  UNL1        0.0000
     19  N         25.8240  -21.1810  -13.4890 N.2     1  UNL1       -0.2160
     20  C         24.6590  -21.4120  -12.8820 C.2     1  UNL1        0.0550
     21  C         23.4410  -21.4600  -13.7390 C.3     1  UNL1        0.0720
     22  C         16.9980  -23.1220   -9.1740 C.3     1  UNL1        0.1620
     23  C         16.6310  -22.2980   -7.9300 C.3     1  UNL1        0.1390
     24  C         17.7350  -22.0960   -6.9000 C.3     1  UNL1        0.0350
     25  C         17.3740  -23.0660   -5.8040 C.3     1  UNL1        0.0290
     26  C         15.8650  -23.0550   -5.8600 C.3     1  UNL1        0.1680
     27  O         15.5110  -22.8880   -7.2390 O.3     1  UNL1       -0.3840
@<TRIPOS>BOND
     1    21    20    1
     2    19    20    2
     3    19    18    1
     4    20    16    1
     5    18    17    1
     6     8     7    1
     7    15    12    1
     8    16    17    2
     9    16    13    1
    10    10     9    1
    11     7     9   ar
    12     7     6   ar
    13    12    13   am
    14    12     1    1
    15     9    11   ar
    16    13    14    2
    17     6     1    2
    18     6     5   ar
    19     1     2    1
    20    11     5   ar
    21    11    22    1
    22     5     4    2
    23     2     3    2
    24    22    23    1
    25     4     3    1
    26    23    27    1
    27    23    24    1
    28    27    26    1
    29    24    25    1
    30    26    25    1
