@<TRIPOS>MOLECULE
tr13578_out_ligand_01.pdbqt
 37 41 0 0 0
SMALL
GASTEIGER

@<TRIPOS>ATOM
      1  C         25.5450  -21.0410  -11.3240 C.3     1  UNL1        0.0480
      2  C         24.4900  -22.1150  -11.0250 C.3     1  UNL1        0.0780
      3  C         23.7600  -21.7380   -9.7150 C.3     1  UNL1        0.0590
      4  C         22.3680  -22.3550   -9.6250 C.3     1  UNL1        0.1290
      5  N         21.5170  -21.9370  -10.7430 N.am    1  UNL1       -0.3500
      6  C         20.1260  -21.9550  -10.7160 C.2     1  UNL1        0.2190
      7  O         19.4490  -21.6030  -11.6810 O.2     1  UNL1       -0.2730
      8  C         22.1950  -21.5630  -11.9940 C.3     1  UNL1        0.1540
      9  C         23.4820  -22.3800  -12.1860 C.3     1  UNL1        0.1440
     10  C         19.4780  -22.4270   -9.4230 C.3     1  UNL1        0.1030
     11  C         19.4480  -23.9550   -9.3190 C.3     1  UNL1        0.0170
     12  C         19.2840  -24.4490   -7.8810 C.3     1  UNL1        0.0790
     13  C         18.1000  -23.8440   -7.2070 C.ar    1  UNL1        0.1050
     14  N         17.0950  -23.2270   -7.7930 N.ar    1  UNL1       -0.2330
     15  C         16.2590  -22.8300   -6.7770 C.ar    1  UNL1        0.0870
     16  C         15.0450  -22.1350   -6.8400 C.2     1  UNL1        0.0570
     17  C         16.7690  -23.2110   -5.5410 C.ar    1  UNL1        0.0620
     18  C         14.3900  -21.8490   -5.6390 C.2     1  UNL1        0.0360
     19 CL         12.8940  -20.9930   -5.6800 Cl      1  UNL1       -0.0840
     20  C         14.9190  -22.2400   -4.4060 C.2     1  UNL1        0.0260
     21  C         16.1320  -22.9370   -4.3300 C.2     1  UNL1        0.0340
     22  N         17.9400  -23.8570   -5.8420 N.ar    1  UNL1       -0.3430
     23  H         18.5810  -24.2670   -5.1770 H       1  UNL1        0.1670
     24  N         24.0620  -22.2860  -13.5160 N.pl3   1  UNL1       -0.3150
     25  C         23.7680  -21.3030  -14.4280 C.2     1  UNL1        0.2120
     26  N         24.4390  -21.4520  -15.5510 N.2     1  UNL1       -0.2360
     27  C         25.2040  -22.5810  -15.3550 C.2     1  UNL1        0.1440
     28  C         26.1180  -23.2590  -16.1780 C.2     1  UNL1        0.1350
     29  C         24.9730  -23.1230  -14.1000 C.2     1  UNL1        0.1650
     30  N         26.6900  -24.3930  -15.7130 N.2     1  UNL1       -0.2280
     31  C         26.3760  -24.8020  -14.4650 C.2     1  UNL1        0.2370
     32  N         25.5220  -24.2360  -13.5880 N.2     1  UNL1       -0.2220
     33  N         26.4460  -22.8380  -17.4610 N.pl3   1  UNL1       -0.2850
     34  H         27.2210  -23.3510  -17.8660 H       1  UNL1        0.1250
     35  H         26.4480  -21.8300  -17.5440 H       1  UNL1        0.1250
     36  O         25.1970  -23.3490  -10.7910 O.3     1  UNL1       -0.3880
     37  H         25.6510  -23.2870   -9.9310 H       1  UNL1        0.2100
@<TRIPOS>BOND
     1    34    33    1
     2    35    33    1
     3    33    28    1
     4    28    30    1
     5    28    27    2
     6    30    31    2
     7    26    27    1
     8    26    25    2
     9    27    29    1
    10    31    32    1
    11    25    24    1
    12    29    32    2
    13    29    24    1
    14    24     9    1
    15     9     8    1
    16     9     2    1
    17     8     5    1
    18     7     6    2
    19     1     2    1
    20     2    36    1
    21     2     3    1
    22    36    37    1
    23     5     6   am
    24     5     4    1
    25     6    10    1
    26     3     4    1
    27    10    11    1
    28    11    12    1
    29    12    13    1
    30    14    13   ar
    31    14    15   ar
    32    13    22   ar
    33    16    15    2
    34    16    18    1
    35    15    17   ar
    36    22    17   ar
    37    22    23    1
    38    19    18    1
    39    18    20    2
    40    17    21    2
    41    20    21    1
