@<TRIPOS>MOLECULE
tr1394_out_ligand_01.pdbqt
 35 38 0 0 0
SMALL
GASTEIGER

@<TRIPOS>ATOM
      1  C         20.2040  -22.6420   -9.8580 C.2     1  UNL1        0.1240
      2  C         21.4930  -22.2930  -10.2800 C.2     1  UNL1        0.0190
      3  C         21.6790  -21.5260  -11.4370 C.2     1  UNL1        0.0160
      4  C         20.5780  -21.1140  -12.1890 C.2     1  UNL1        0.0030
      5  C         19.2870  -21.4320  -11.7650 C.2     1  UNL1        0.0390
      6  C         19.1010  -22.1810  -10.5900 C.2     1  UNL1        0.1370
      7  C         22.6600  -22.6190   -9.4350 C.2     1  UNL1        0.1530
      8  N         23.8600  -22.9750   -9.7950 N.2     1  UNL1       -0.1830
      9  N         24.0760  -23.3740  -11.0900 N.am    1  UNL1       -0.2430
     10  C         25.3430  -23.2240  -11.6570 C.2     1  UNL1        0.2720
     11  O         26.3830  -23.0270  -11.0380 O.2     1  UNL1       -0.2660
     12  H         23.3050  -23.1310  -11.7100 H       1  UNL1        0.1920
     13  C         25.3630  -23.1970  -13.1420 C.2     1  UNL1        0.0440
     14  C         25.2690  -24.4490  -13.7690 C.2     1  UNL1        0.0180
     15  C         25.3440  -24.5430  -15.1530 C.2     1  UNL1        0.0020
     16  C         25.5100  -23.3890  -15.9150 C.2     1  UNL1        0.0120
     17  C         25.5810  -22.1230  -15.3100 C.2     1  UNL1       -0.0250
     18  C         25.7270  -20.9740  -16.1050 C.2     1  UNL1        0.0120
     19  C         25.4940  -22.0020  -13.9000 C.2     1  UNL1       -0.0100
     20  C         25.7720  -19.7040  -15.5330 C.2     1  UNL1        0.0010
     21  C         25.6610  -19.5640  -14.1580 C.2     1  UNL1        0.0010
     22  C         25.5190  -20.6970  -13.3520 C.2     1  UNL1        0.0130
     23  O         20.1000  -23.4380   -8.7090 O.3     1  UNL1       -0.2710
     24  C         19.9530  -22.7060   -7.5400 C.2     1  UNL1        0.2980
     25  O         20.7520  -21.8950   -7.0930 O.2     1  UNL1       -0.2590
     26  C         18.6780  -23.0650   -6.8640 C.2     1  UNL1        0.0400
     27  C         18.0250  -24.2860   -7.0780 C.2     1  UNL1        0.0180
     28  C         16.8280  -24.5670   -6.4130 C.2     1  UNL1        0.0070
     29  C         16.2740  -23.6430   -5.5190 C.2     1  UNL1       -0.0620
     30  C         14.9720  -23.9330   -4.8320 C.3     1  UNL1        0.0480
     31  C         16.9230  -22.4190   -5.3160 C.2     1  UNL1        0.0070
     32  C         18.1190  -22.1350   -5.9790 C.2     1  UNL1        0.0180
     33  N         17.7340  -22.3990  -10.1280 N.pl3   1  UNL1       -0.1130
     34  O         17.2140  -23.4980  -10.3740 O.2     1  UNL1       -0.5320
     35  O         17.1530  -21.4510   -9.5790 O.2     1  UNL1       -0.5320
@<TRIPOS>BOND
     1    18    20    2
     2    18    17    1
     3    16    17    2
     4    16    15    1
     5    20    21    1
     6    17    19    1
     7    15    14    2
     8    21    22    2
     9    19    22    1
    10    19    13    2
    11    14    13    1
    12    13    10    1
    13     4     5    2
    14     4     3    1
    15     5     6    1
    16    12     9    1
    17    10     9   am
    18    10    11    2
    19     3     2    2
    20     9     8    1
    21     6    33    1
    22     6     1    2
    23    34    33    2
    24     2     1    1
    25     2     7    1
    26    33    35    2
    27     1    23    1
    28     8     7    2
    29    23    24    1
    30    24    25    2
    31    24    26    1
    32    27    26    2
    33    27    28    1
    34    26    32    1
    35    28    29    2
    36    32    31    2
    37    29    31    1
    38    29    30    1
