@<TRIPOS>MOLECULE
tr13756_out_ligand_01.pdbqt
 36 39 0 0 0
SMALL
GASTEIGER

@<TRIPOS>ATOM
      1  C         18.8430  -23.1420   -7.2070 C.ar    1  UNL1        0.1590
      2  N         19.0510  -24.1590   -7.9990 N.ar    1  UNL1       -0.1410
      3  N         20.2890  -24.3150   -8.6310 N.ar    1  UNL1       -0.1240
      4  C         21.2360  -23.4800   -8.3720 C.ar    1  UNL1        0.1910
      5  N         21.1370  -22.4330   -7.5240 N.ar    1  UNL1       -0.2990
      6  C         19.9450  -22.1190   -6.9550 C.ar    1  UNL1        0.2790
      7  O         19.7660  -21.1040   -6.3040 O.2     1  UNL1       -0.2650
      8  H         21.8750  -21.7410   -7.5090 H       1  UNL1        0.1710
      9  S         22.7940  -23.6380   -9.1190 S.3     1  UNL1       -0.0810
     10  C         23.0870  -21.8830   -9.4760 C.3     1  UNL1        0.1850
     11  C         24.0310  -21.6830  -10.6610 C.2     1  UNL1        0.2310
     12  O         24.9920  -20.9190  -10.6200 O.2     1  UNL1       -0.2720
     13  N         23.6520  -22.4520  -11.7520 N.am    1  UNL1       -0.3260
     14  H         22.8350  -23.0410  -11.6390 H       1  UNL1        0.1690
     15  C         24.2910  -22.5390  -13.0090 C.2     1  UNL1        0.0370
     16  C         25.2760  -23.4940  -13.3270 C.2     1  UNL1        0.0320
     17  C         25.8630  -23.5340  -14.6000 C.2     1  UNL1        0.0420
     18  C         25.4450  -22.6110  -15.5310 C.2     1  UNL1        0.1050
     19  C         24.4900  -21.6730  -15.2300 C.2     1  UNL1        0.1070
     20  O         25.8950  -22.5060  -16.8100 O.2     1  UNL1       -0.3230
     21  C         23.8980  -21.6080  -13.9830 C.2     1  UNL1        0.0690
     22  O         24.2150  -20.8560  -16.2820 O.2     1  UNL1       -0.3230
     23  C         25.1020  -21.3980  -17.2860 C.3     1  UNL1        0.3520
     24  C         17.5230  -23.0290   -6.5140 C.2     1  UNL1        0.0270
     25  C         17.3810  -23.5380   -5.2120 C.2     1  UNL1        0.0230
     26  C         16.1480  -23.4850   -4.5510 C.2     1  UNL1       -0.0610
     27  C         15.0630  -22.8880   -5.1950 C.2     1  UNL1        0.0090
     28  C         16.0030  -24.0100   -3.1540 C.3     1  UNL1        0.0480
     29  C         15.1990  -22.3550   -6.4810 C.2     1  UNL1        0.0310
     30  C         16.4240  -22.4020   -7.1540 C.2     1  UNL1        0.0470
     31  N         16.5970  -21.8330   -8.4420 N.am    1  UNL1       -0.3260
     32  C         16.3640  -22.4030   -9.6800 C.2     1  UNL1        0.2210
     33  O         16.0180  -23.5590   -9.8990 O.2     1  UNL1       -0.2730
     34  H         16.8550  -20.8430   -8.4440 H       1  UNL1        0.1690
     35  C         16.6110  -21.4030  -10.8010 C.3     1  UNL1        0.0980
     36  C         18.0520  -21.4040  -11.2770 C.3     1  UNL1        0.0140
@<TRIPOS>BOND
     1    23    20    1
     2    23    22    1
     3    20    18    1
     4    22    19    1
     5    18    19    2
     6    18    17    1
     7    19    21    1
     8    17    16    2
     9    21    15    2
    10    16    15    1
    11    15    13    1
    12    13    14    1
    13    13    11   am
    14    36    35    1
    15    35    32    1
    16    11    12    2
    17    11    10    1
    18    33    32    2
    19    32    31   am
    20    10     9    1
    21     9     4    1
    22     3     4   ar
    23     3     2   ar
    24    34    31    1
    25    31    30    1
    26     4     5   ar
    27     2     1   ar
    28     5     8    1
    29     5     6   ar
    30     1     6   ar
    31     1    24    1
    32    30    24    2
    33    30    29    1
    34     6     7    2
    35    24    25    1
    36    29    27    2
    37    25    26    2
    38    27    26    1
    39    26    28    1
