@<TRIPOS>MOLECULE
tr1393_out_ligand_01.pdbqt
 35 38 0 0 0
SMALL
GASTEIGER

@<TRIPOS>ATOM
      1  C         20.3960  -22.6600   -9.9710 C.2     1  UNL1        0.1240
      2  C         21.6870  -22.3350  -10.4050 C.2     1  UNL1        0.0190
      3  C         21.8770  -21.5700  -11.5630 C.2     1  UNL1        0.0160
      4  C         20.7770  -21.1300  -12.2990 C.2     1  UNL1        0.0030
      5  C         19.4840  -21.4180  -11.8590 C.2     1  UNL1        0.0390
      6  C         19.2960  -22.1700  -10.6860 C.2     1  UNL1        0.1370
      7  C         22.8580  -22.6800   -9.5730 C.2     1  UNL1        0.1530
      8  N         24.0480  -23.0490   -9.9500 N.2     1  UNL1       -0.1830
      9  N         24.2320  -23.4460  -11.2520 N.am    1  UNL1       -0.2430
     10  C         25.4630  -23.2160  -11.8680 C.2     1  UNL1        0.2720
     11  O         26.5090  -22.9390  -11.2890 O.2     1  UNL1       -0.2660
     12  H         23.4240  -23.2540  -11.8410 H       1  UNL1        0.1920
     13  C         25.4260  -23.2070  -13.3530 C.2     1  UNL1        0.0440
     14  C         25.3360  -24.4690  -13.9610 C.2     1  UNL1        0.0180
     15  C         25.3600  -24.5780  -15.3450 C.2     1  UNL1        0.0020
     16  C         25.4700  -23.4300  -16.1270 C.2     1  UNL1        0.0120
     17  C         25.5380  -22.1560  -15.5390 C.2     1  UNL1       -0.0250
     18  C         25.6290  -21.0140  -16.3530 C.2     1  UNL1        0.0120
     19  C         25.5020  -22.0190  -14.1290 C.2     1  UNL1       -0.0100
     20  C         25.6680  -19.7360  -15.7990 C.2     1  UNL1        0.0010
     21  C         25.6070  -19.5810  -14.4210 C.2     1  UNL1        0.0010
     22  C         25.5200  -20.7070  -13.5970 C.2     1  UNL1        0.0130
     23  O         20.2910  -23.4700   -8.8330 O.3     1  UNL1       -0.2710
     24  C         20.1760  -22.7450   -7.6570 C.2     1  UNL1        0.2980
     25  O         21.0000  -21.9610   -7.2080 O.2     1  UNL1       -0.2590
     26  C         18.8940  -23.0700   -6.9760 C.2     1  UNL1        0.0400
     27  C         18.3760  -22.1320   -6.0700 C.2     1  UNL1        0.0190
     28  C         17.1740  -22.3830   -5.4020 C.2     1  UNL1        0.0200
     29  C         16.4890  -23.5740   -5.6390 C.2     1  UNL1        0.0110
     30 BR         14.8630  -23.9160   -4.7390 Br      1  UNL1       -0.0510
     31  C         16.9950  -24.5160   -6.5350 C.2     1  UNL1        0.0200
     32  C         18.1980  -24.2660   -7.2030 C.2     1  UNL1        0.0190
     33  N         17.9290  -22.3650  -10.2090 N.pl3   1  UNL1       -0.1130
     34  O         17.3760  -23.4420  -10.4790 O.2     1  UNL1       -0.5320
     35  O         17.3830  -21.4200   -9.6210 O.2     1  UNL1       -0.5320
@<TRIPOS>BOND
     1    18    20    2
     2    18    17    1
     3    16    17    2
     4    16    15    1
     5    20    21    1
     6    17    19    1
     7    15    14    2
     8    21    22    2
     9    19    22    1
    10    19    13    2
    11    14    13    1
    12    13    10    1
    13     4     5    2
    14     4     3    1
    15    10    11    2
    16    10     9   am
    17     5     6    1
    18    12     9    1
    19     3     2    2
    20     9     8    1
    21     6    33    1
    22     6     1    2
    23    34    33    2
    24     2     1    1
    25     2     7    1
    26    33    35    2
    27     1    23    1
    28     8     7    2
    29    23    24    1
    30    24    25    2
    31    24    26    1
    32    32    26    2
    33    32    31    1
    34    26    27    1
    35    31    29    2
    36    27    28    2
    37    29    28    1
    38    29    30    1
