@<TRIPOS>MOLECULE
tr13568_out_ligand_01.pdbqt
 37 40 0 0 0
SMALL
GASTEIGER

@<TRIPOS>ATOM
      1  C         22.3420  -22.0640  -10.9030 C.2     1  UNL1        0.0240
      2  C         21.3710  -21.4550  -11.6000 C.2     1  UNL1        0.0270
      3  C         19.9680  -21.5980  -11.2340 C.2     1  UNL1       -0.0080
      4  C         18.9830  -20.9710  -12.0080 C.2     1  UNL1        0.0140
      5  C         17.6360  -21.1130  -11.6830 C.2     1  UNL1        0.0070
      6  C         17.2580  -21.8800  -10.5790 C.2     1  UNL1       -0.0600
      7  C         15.8070  -22.0880  -10.2580 C.3     1  UNL1        0.0480
      8  C         18.2490  -22.5150   -9.8120 C.2     1  UNL1        0.0370
      9  C         19.6120  -22.3700  -10.1170 C.2     1  UNL1        0.0480
     10  N         20.6490  -22.9780   -9.3460 N.am    1  UNL1       -0.3040
     11  C         21.9870  -22.9060   -9.7200 C.2     1  UNL1        0.2560
     12  O         22.8780  -23.4920   -9.1030 O.2     1  UNL1       -0.2670
     13  C         23.8180  -21.9960  -11.2070 C.3     1  UNL1        0.1360
     14  N         24.2870  -23.2580  -11.7890 N.pl3   1  UNL1       -0.2880
     15  H         23.6690  -24.0310  -11.5470 H       1  UNL1        0.1280
     16  C         24.6270  -23.3120  -13.1460 C.2     1  UNL1        0.0110
     17  C         25.0720  -24.4680  -13.7950 C.2     1  UNL1        0.0260
     18  C         25.3270  -24.4840  -15.1760 C.2     1  UNL1        0.0410
     19  C         25.1120  -23.3450  -15.9510 C.2     1  UNL1        0.1010
     20  C         24.6060  -22.2000  -15.3220 C.2     1  UNL1        0.1030
     21  C         24.3750  -22.1840  -13.9400 C.2     1  UNL1        0.0630
     22  O         25.3190  -23.2570  -17.3010 O.2     1  UNL1       -0.3530
     23  C         24.1810  -23.3910  -18.1430 C.3     1  UNL1        0.2100
     24  O         24.3930  -21.0680  -16.0690 O.2     1  UNL1       -0.3530
     25  C         25.4340  -20.1130  -15.8580 C.3     1  UNL1        0.2100
     26  C         20.3530  -23.7630   -8.1520 C.3     1  UNL1        0.2350
     27  C         19.4590  -23.0070   -7.1550 C.2     1  UNL1        0.2400
     28  O         19.7800  -21.9160   -6.6970 O.2     1  UNL1       -0.2710
     29  N         18.3290  -23.7330   -6.7990 N.am    1  UNL1       -0.3260
     30  H         18.1830  -24.6140   -7.2780 H       1  UNL1        0.1690
     31  C         17.3200  -23.3640   -5.8850 C.2     1  UNL1        0.0370
     32  C         17.4030  -23.5590   -4.5020 C.2     1  UNL1        0.0290
     33  C         16.3550  -23.1650   -3.6610 C.2     1  UNL1        0.0050
     34  C         15.2140  -22.5710   -4.1960 C.2     1  UNL1        0.0420
     35  C         15.1330  -22.3770   -5.5680 C.2     1  UNL1        0.1180
     36  F         14.0370  -21.8090   -6.0910 F       1  UNL1       -0.2060
     37  C         16.1700  -22.7640   -6.4140 C.2     1  UNL1        0.0710
@<TRIPOS>BOND
     1    23    22    1
     2    22    19    1
     3    24    25    1
     4    24    20    1
     5    19    20    2
     6    19    18    1
     7    20    21    1
     8    18    17    2
     9    21    16    2
    10    17    16    1
    11    16    14    1
    12     4     5    1
    13     4     3    2
    14    14    15    1
    15    14    13    1
    16     5     6    2
    17     2     3    1
    18     2     1    2
    19     3     9    1
    20    13     1    1
    21     1    11    1
    22     6     7    1
    23     6     8    1
    24     9     8    2
    25     9    10    1
    26    11    10   am
    27    11    12    2
    28    10    26    1
    29    26    27    1
    30    30    29    1
    31    27    29   am
    32    27    28    2
    33    29    31    1
    34    37    31    2
    35    37    35    1
    36    36    35    1
    37    31    32    1
    38    35    34    2
    39    32    33    2
    40    34    33    1
