@<TRIPOS>MOLECULE
tr13553_out_ligand_01.pdbqt
 34 36 0 0 0
SMALL
GASTEIGER

@<TRIPOS>ATOM
      1  C         20.9210  -22.0370  -11.1980 C.ar    1  UNL1        0.0850
      2  C         21.2480  -22.7790  -10.0710 C.ar    1  UNL1        0.0600
      3  S         22.8850  -23.2840  -10.0590 S.2     1  UNL1       -0.0770
      4  C         23.2090  -22.5400  -11.5600 C.ar    1  UNL1        0.0690
      5  C         24.4020  -22.5020  -12.2940 C.2     1  UNL1        0.0890
      6  C         24.4240  -21.8310  -13.5040 C.2     1  UNL1        0.0950
      7  C         23.2590  -21.2220  -13.9150 C.2     1  UNL1        0.1650
      8  N         22.0960  -21.2240  -13.2480 N.2     1  UNL1       -0.2230
      9  C         22.0750  -21.9020  -12.0610 C.ar    1  UNL1        0.0970
     10  S         20.2180  -23.2930   -8.7320 S.3     1  UNL1       -0.1120
     11  C         20.8340  -22.2040   -7.4090 C.3     1  UNL1        0.1830
     12  C         19.6590  -21.7610   -6.5520 C.2     1  UNL1        0.2310
     13  O         19.7470  -20.7590   -5.8480 O.2     1  UNL1       -0.2720
     14  N         18.5520  -22.5920   -6.6850 N.am    1  UNL1       -0.3260
     15  H         18.6410  -23.3160   -7.3960 H       1  UNL1        0.1690
     16  C         17.3200  -22.5180   -5.9890 C.2     1  UNL1        0.0490
     17  C         17.2720  -22.4170   -4.5920 C.2     1  UNL1        0.0300
     18  C         16.0540  -22.3520   -3.9080 C.2     1  UNL1        0.0020
     19  C         14.8570  -22.3860   -4.6060 C.2     1  UNL1        0.0010
     20  C         14.8800  -22.4980   -5.9930 C.2     1  UNL1        0.0180
     21  C         16.1020  -22.5680   -6.7000 C.2     1  UNL1        0.0740
     22  C         16.0260  -22.7380   -8.1960 C.3     1  UNL1        0.4190
     23  F         16.7420  -21.8110   -8.8930 F       1  UNL1       -0.1660
     24  F         16.5000  -23.9490   -8.6020 F       1  UNL1       -0.1660
     25  F         14.7530  -22.6580   -8.6790 F       1  UNL1       -0.1660
     26  C         19.5990  -21.4680  -11.4680 C.2     1  UNL1        0.2530
     27  N         19.5660  -20.1310  -11.7470 N.am    1  UNL1       -0.3660
     28  H         18.6630  -19.6820  -11.7760 H       1  UNL1        0.1590
     29  H         20.3910  -19.5530  -11.5870 H       1  UNL1        0.1590
     30  O         18.5450  -22.1010  -11.4290 O.2     1  UNL1       -0.2680
     31  O         25.5590  -23.1150  -11.8770 O.2     1  UNL1       -0.3590
     32  H         25.7340  -23.8560  -12.4880 H       1  UNL1        0.2170
     33  O         23.2080  -20.5620  -15.1100 O.2     1  UNL1       -0.3450
     34  H         23.7160  -19.7400  -15.0260 H       1  UNL1        0.2190
@<TRIPOS>BOND
     1    33    34    1
     2    33     7    1
     3     7     6    1
     4     7     8    2
     5     6     5    2
     6     8     9    1
     7    32    31    1
     8     5    31    1
     9     5     4    1
    10     9     4   ar
    11     9     1   ar
    12    28    27    1
    13    27    29    1
    14    27    26   am
    15     4     3   ar
    16    26    30    2
    17    26     1    1
    18     1     2   ar
    19     2     3   ar
    20     2    10    1
    21    23    22    1
    22    10    11    1
    23    25    22    1
    24    24    22    1
    25    22    21    1
    26    11    12    1
    27    15    14    1
    28    21    20    1
    29    21    16    2
    30    14    12   am
    31    14    16    1
    32    12    13    2
    33    20    19    2
    34    16    17    1
    35    19    18    1
    36    17    18    2
