@<TRIPOS>MOLECULE
tr13264_out_ligand_01.pdbqt
 33 36 0 0 0
SMALL
GASTEIGER

@<TRIPOS>ATOM
      1  C         21.0410  -23.0380  -10.1890 C.2     1  UNL1        0.0440
      2  C         20.8590  -24.2240   -9.4270 C.2     1  UNL1        0.1550
      3  N         19.5900  -24.4260   -9.0630 N.2     1  UNL1       -0.1810
      4  N         18.9660  -23.3650   -9.5980 N.pl3   1  UNL1       -0.2370
      5  C         19.7690  -22.5010  -10.3050 C.2     1  UNL1        0.1620
      6  N         19.2630  -21.4060  -10.9420 N.2     1  UNL1       -0.2090
      7  C         17.9850  -21.3910  -11.1120 C.2     1  UNL1        0.1420
      8  C         17.0050  -22.4550  -10.7180 C.3     1  UNL1        0.1230
      9  C         17.5320  -23.2040   -9.4950 C.3     1  UNL1        0.2120
     10  C         17.1950  -22.4800   -8.1980 C.2     1  UNL1        0.2470
     11  O         16.2500  -21.7000   -8.1290 O.2     1  UNL1       -0.2710
     12  N         18.0170  -22.8440   -7.1440 N.am    1  UNL1       -0.3250
     13  H         18.7400  -23.5390   -7.3570 H       1  UNL1        0.1690
     14  C         17.9760  -22.3640   -5.8130 C.2     1  UNL1        0.0490
     15  C         18.8930  -21.4090   -5.3480 C.2     1  UNL1        0.0300
     16  C         18.8480  -20.9440   -4.0300 C.2     1  UNL1        0.0020
     17  C         17.8810  -21.4250   -3.1540 C.2     1  UNL1        0.0010
     18  C         16.9660  -22.3810   -3.5920 C.2     1  UNL1        0.0180
     19  C         17.0070  -22.8680   -4.9170 C.2     1  UNL1        0.0740
     20  C         15.9290  -23.8320   -5.3370 C.3     1  UNL1        0.4190
     21  F         14.8950  -23.2410   -6.0070 F       1  UNL1       -0.1660
     22  F         15.3540  -24.4580   -4.2730 F       1  UNL1       -0.1660
     23  F         16.3890  -24.8240   -6.1600 F       1  UNL1       -0.1660
     24  O         17.4460  -20.3570  -11.7710 O.2     1  UNL1       -0.3480
     25  H         16.7500  -19.9780  -11.1920 H       1  UNL1        0.2190
     26  C         22.2410  -22.4820  -10.8060 C.2     1  UNL1        0.0130
     27  C         22.2750  -22.2810  -12.2020 C.2     1  UNL1        0.0150
     28  C         23.4150  -21.7640  -12.8330 C.2     1  UNL1        0.0010
     29  C         24.5320  -21.4440  -12.0760 C.2     1  UNL1        0.0030
     30  C         24.5150  -21.6190  -10.6850 C.2     1  UNL1        0.0370
     31  C         23.3730  -22.1330  -10.0370 C.2     1  UNL1        0.0790
     32  O         23.3040  -22.3570   -8.6800 O.2     1  UNL1       -0.3550
     33  C         22.6060  -21.3910   -7.9030 C.3     1  UNL1        0.2100
@<TRIPOS>BOND
     1    28    27    1
     2    28    29    2
     3    27    26    2
     4    29    30    1
     5    24    25    1
     6    24     7    1
     7     7     6    2
     8     7     8    1
     9     6     5    1
    10    26     1    1
    11    26    31    1
    12     8     9    1
    13    30    31    2
    14     5     1    2
    15     5     4    1
    16     1     2    1
    17    31    32    1
    18     4     9    1
    19     4     3    1
    20     9    10    1
    21     2     3    2
    22    32    33    1
    23    10    11    2
    24    10    12   am
    25    13    12    1
    26    12    14    1
    27    23    20    1
    28    21    20    1
    29    14    15    2
    30    14    19    1
    31    15    16    1
    32    20    19    1
    33    20    22    1
    34    19    18    2
    35    16    17    2
    36    18    17    1
