@<TRIPOS>MOLECULE
tr13757_out_ligand_01.pdbqt
 35 37 0 0 0
SMALL
GASTEIGER

@<TRIPOS>ATOM
      1  C         18.7730  -23.1900   -7.1840 C.ar    1  UNL1        0.1590
      2  N         18.9780  -24.2240   -7.9540 N.ar    1  UNL1       -0.1410
      3  N         20.2090  -24.3820   -8.6000 N.ar    1  UNL1       -0.1240
      4  C         21.1430  -23.5170   -8.3920 C.ar    1  UNL1        0.1910
      5  N         21.0480  -22.4550   -7.5690 N.ar    1  UNL1       -0.2990
      6  C         19.8790  -22.1710   -6.9410 C.ar    1  UNL1        0.2790
      7  O         19.7300  -21.1930   -6.2260 O.2     1  UNL1       -0.2650
      8  H         21.8050  -21.7910   -7.5150 H       1  UNL1        0.1710
      9  S         22.6760  -23.6240   -9.1980 S.3     1  UNL1       -0.0760
     10  C         22.5750  -22.0460  -10.1240 C.3     1  UNL1        0.1430
     11  C         21.3730  -22.0720  -11.0590 C.3     1  UNL1        0.0310
     12  C         23.8570  -21.7970  -10.9390 C.2     1  UNL1        0.2360
     13  O         24.7470  -21.0520  -10.5350 O.2     1  UNL1       -0.2720
     14  N         23.8720  -22.5150  -12.1280 N.am    1  UNL1       -0.3260
     15  H         23.0370  -23.0420  -12.3450 H       1  UNL1        0.1690
     16  C         24.8890  -22.5530  -13.1130 C.2     1  UNL1        0.0400
     17  C         25.9890  -23.4160  -13.0250 C.2     1  UNL1        0.0300
     18  C         26.9730  -23.4330  -14.0160 C.2     1  UNL1        0.0020
     19  C         26.8730  -22.5880  -15.1130 C.2     1  UNL1        0.0010
     20  C         25.7880  -21.7230  -15.2190 C.2     1  UNL1        0.0090
     21  C         24.7880  -21.6930  -14.2300 C.2     1  UNL1       -0.0350
     22  C         23.6450  -20.7280  -14.4090 C.3     1  UNL1        0.0500
     23  C         17.4540  -23.0470   -6.5000 C.2     1  UNL1        0.0270
     24  C         17.2960  -23.5580   -5.2010 C.2     1  UNL1        0.0230
     25  C         16.0600  -23.4880   -4.5480 C.2     1  UNL1       -0.0610
     26  C         14.9910  -22.8700   -5.1970 C.2     1  UNL1        0.0090
     27  C         15.9010  -24.0170   -3.1530 C.3     1  UNL1        0.0480
     28  C         15.1450  -22.3350   -6.4810 C.2     1  UNL1        0.0310
     29  C         16.3740  -22.4000   -7.1470 C.2     1  UNL1        0.0470
     30  N         16.5660  -21.8310   -8.4320 N.am    1  UNL1       -0.3260
     31  C         16.3360  -22.3960   -9.6730 C.2     1  UNL1        0.2210
     32  O         15.9660  -23.5430   -9.8950 O.2     1  UNL1       -0.2730
     33  H         16.8580  -20.8510   -8.4300 H       1  UNL1        0.1690
     34  C         16.6120  -21.4010  -10.7900 C.3     1  UNL1        0.0980
     35  C         17.8970  -21.7110  -11.5420 C.3     1  UNL1        0.0140
@<TRIPOS>BOND
     1    20    19    2
     2    20    21    1
     3    19    18    1
     4    22    21    1
     5    21    16    2
     6    18    17    2
     7    16    17    1
     8    16    14    1
     9    15    14    1
    10    14    12   am
    11    35    34    1
    12    11    10    1
    13    12    13    2
    14    12    10    1
    15    34    31    1
    16    10     9    1
    17    32    31    2
    18    31    30   am
    19     9     4    1
    20     3     4   ar
    21     3     2   ar
    22    30    33    1
    23    30    29    1
    24     4     5   ar
    25     2     1   ar
    26     5     8    1
    27     5     6   ar
    28     1     6   ar
    29     1    23    1
    30    29    23    2
    31    29    28    1
    32     6     7    2
    33    23    24    1
    34    28    26    2
    35    24    25    2
    36    26    25    1
    37    25    27    1
