@<TRIPOS>MOLECULE
tr13679_out_ligand_01.pdbqt
 37 40 0 0 0
SMALL
GASTEIGER

@<TRIPOS>ATOM
      1  C         22.6890  -22.2610  -10.3880 C.2     1  UNL1        0.0980
      2  C         21.8380  -21.4050  -10.9780 C.2     1  UNL1        0.1110
      3  N         20.4670  -21.3690  -10.7530 N.pl3   1  UNL1       -0.3620
      4  C         19.9430  -22.2520   -9.8150 C.2     1  UNL1        0.1110
      5  C         20.6590  -23.1540   -9.1190 C.2     1  UNL1        0.0980
      6  C         22.1300  -23.2080   -9.3830 C.2     1  UNL1        0.2060
      7  O         22.8360  -24.0340   -8.8080 O.2     1  UNL1       -0.2860
      8  C         24.1390  -22.1940  -10.6950 C.2     1  UNL1        0.2570
      9  O         24.7970  -21.1720  -10.5310 O.2     1  UNL1       -0.2670
     10  N         24.6700  -23.3730  -11.1780 N.am    1  UNL1       -0.3520
     11  H         24.0730  -24.1780  -11.3160 H       1  UNL1        0.1630
     12  C         26.0180  -23.4430  -11.6910 C.3     1  UNL1        0.1610
     13  C         26.0270  -23.1330  -13.1670 C.2     1  UNL1       -0.0380
     14  C         26.7830  -22.0650  -13.6780 C.2     1  UNL1        0.0090
     15  C         26.8150  -21.8120  -15.0530 C.2     1  UNL1        0.0040
     16  C         26.0950  -22.6240  -15.9290 C.2     1  UNL1        0.0420
     17  C         25.3510  -23.6840  -15.4240 C.2     1  UNL1        0.1170
     18  F         24.6580  -24.4640  -16.2660 F       1  UNL1       -0.2060
     19  C         25.3150  -23.9490  -14.0600 C.2     1  UNL1        0.0510
     20  C         19.6050  -20.3880  -11.4520 C.3     1  UNL1        0.1590
     21  C         18.3480  -21.0570  -12.0470 C.3     1  UNL1        0.1390
     22  C         17.0610  -20.5370  -11.4160 C.3     1  UNL1        0.0350
     23  C         16.7990  -21.5250  -10.3050 C.3     1  UNL1        0.0290
     24  C         17.2730  -22.8170  -10.9250 C.3     1  UNL1        0.1680
     25  O         18.3790  -22.4770  -11.7700 O.3     1  UNL1       -0.3840
     26  C         19.9380  -24.0470   -8.1670 C.2     1  UNL1        0.2570
     27  O         20.1520  -25.2570   -8.1330 O.2     1  UNL1       -0.2670
     28  N         19.0490  -23.4230   -7.3330 N.am    1  UNL1       -0.3520
     29  H         18.9030  -22.4190   -7.4540 H       1  UNL1        0.1630
     30  C         18.1960  -24.1310   -6.3800 C.3     1  UNL1        0.0840
     31  C         17.9700  -23.2400   -5.1440 C.3     1  UNL1        0.0250
     32  C         16.8940  -23.6640   -4.1460 C.3     1  UNL1        0.0020
     33  C         15.4320  -23.6820   -4.6050 C.3     1  UNL1        0.0000
     34  C         14.9630  -22.5640   -5.5340 C.3     1  UNL1        0.0000
     35  C         15.5990  -22.4380   -6.9230 C.3     1  UNL1        0.0000
     36  C         15.9320  -23.7230   -7.6770 C.3     1  UNL1        0.0020
     37  C         16.9510  -24.6990   -7.0760 C.3     1  UNL1        0.0250
@<TRIPOS>BOND
     1    18    17    1
     2    16    17    2
     3    16    15    1
     4    17    19    1
     5    15    14    2
     6    19    13    2
     7    14    13    1
     8    13    12    1
     9    21    25    1
    10    21    20    1
    11    21    22    1
    12    25    24    1
    13    12    10    1
    14    20     3    1
    15    22    23    1
    16    11    10    1
    17    10     8   am
    18     2     3    1
    19     2     1    2
    20    24    23    1
    21     3     4    1
    22     8     9    2
    23     8     1    1
    24     1     6    1
    25     4     5    2
    26     6     5    1
    27     6     7    2
    28     5    26    1
    29    26    27    2
    30    26    28   am
    31    36    37    1
    32    36    35    1
    33    29    28    1
    34    28    30    1
    35    37    30    1
    36    35    34    1
    37    30    31    1
    38    34    33    1
    39    31    32    1
    40    33    32    1
