@<TRIPOS>MOLECULE
tr13739_out_ligand_01.pdbqt
 34 37 0 0 0
SMALL
GASTEIGER

@<TRIPOS>ATOM
      1  N         20.5470  -23.3900   -9.4990 N.ar    1  UNL1       -0.2900
      2  C         21.8820  -23.5050   -9.8720 C.ar    1  UNL1        0.3330
      3  O         22.6660  -24.1930   -9.2140 O.2     1  UNL1       -0.2460
      4  N         22.2810  -22.8130  -11.0020 N.ar    1  UNL1       -0.2570
      5  C         21.5000  -21.8680  -11.6440 C.ar    1  UNL1        0.2640
      6  O         21.9630  -21.0320  -12.4160 O.2     1  UNL1       -0.2670
      7  C         20.0680  -21.8570  -11.3170 C.ar    1  UNL1        0.0590
      8  C         19.1930  -21.0610  -12.0690 C.2     1  UNL1        0.0190
      9  C         17.8330  -21.0630  -11.7820 C.2     1  UNL1        0.0010
     10  C         17.3510  -21.8640  -10.7530 C.2     1  UNL1        0.0020
     11  C         18.2320  -22.6510   -9.9990 C.2     1  UNL1        0.0310
     12  C         19.6090  -22.6450  -10.2620 C.ar    1  UNL1        0.0550
     13  C         20.1500  -24.1270   -8.3030 C.3     1  UNL1        0.2370
     14  C         19.2930  -23.2500   -7.3790 C.2     1  UNL1        0.2400
     15  O         19.7160  -22.1730   -6.9620 O.2     1  UNL1       -0.2710
     16  N         18.0500  -23.8110   -7.0930 N.am    1  UNL1       -0.3260
     17  H         17.8060  -24.6540   -7.6000 H       1  UNL1        0.1690
     18  C         17.0560  -23.3080   -6.2300 C.2     1  UNL1        0.0350
     19  C         15.9490  -22.6800   -6.8320 C.2     1  UNL1        0.0320
     20  C         14.9030  -22.1760   -6.0530 C.2     1  UNL1        0.0440
     21  C         14.9670  -22.2880   -4.6700 C.2     1  UNL1        0.1160
     22  F         13.9610  -21.8080   -3.9230 F       1  UNL1       -0.2060
     23  C         16.0590  -22.8960   -4.0550 C.2     1  UNL1        0.0440
     24  C         17.1020  -23.4100   -4.8360 C.2     1  UNL1        0.0320
     25  C         23.6600  -22.9870  -11.4510 C.3     1  UNL1        0.2390
     26  C         24.4340  -21.6770  -11.6220 C.2     1  UNL1        0.2360
     27  O         24.8240  -21.0280  -10.6510 O.2     1  UNL1       -0.2720
     28  N         24.8010  -21.3690  -12.9220 N.am    1  UNL1       -0.3550
     29  H         24.8290  -22.1610  -13.5610 H       1  UNL1        0.1620
     30  C         25.7300  -20.2840  -13.1950 C.3     1  UNL1        0.0840
     31  C         27.1210  -20.8110  -13.5540 C.3     1  UNL1        0.0250
     32  C         27.0160  -21.1910  -15.0310 C.3     1  UNL1        0.0020
     33  C         25.9040  -20.3180  -15.6160 C.3     1  UNL1        0.0020
     34  C         25.3310  -19.5110  -14.4500 C.3     1  UNL1        0.0250
@<TRIPOS>BOND
     1    33    32    1
     2    33    34    1
     3    32    31    1
     4    34    30    1
     5    29    28    1
     6    31    30    1
     7    30    28    1
     8    28    26   am
     9     6     5    2
    10     8     9    1
    11     8     7    2
    12     9    10    2
    13     5     7   ar
    14     5     4   ar
    15    26    25    1
    16    26    27    2
    17    25     4    1
    18     7    12   ar
    19     4     2   ar
    20    10    11    1
    21    12    11    2
    22    12     1   ar
    23     2     1   ar
    24     2     3    2
    25     1    13    1
    26    13    14    1
    27    17    16    1
    28    14    16   am
    29    14    15    2
    30    16    18    1
    31    19    18    2
    32    19    20    1
    33    18    24    1
    34    20    21    2
    35    24    23    2
    36    21    23    1
    37    21    22    1
