@<TRIPOS>MOLECULE
tr13330_out_ligand_01.pdbqt
 32 36 0 0 0
SMALL
GASTEIGER

@<TRIPOS>ATOM
      1  N         24.4620  -21.6170  -17.2430 N.1     1  UNL1       -0.1910
      2  C         24.8760  -21.1600  -16.2600 C.1     1  UNL1        0.1050
      3  C         25.4110  -20.5640  -15.0850 C.2     1  UNL1        0.1110
      4  C         26.2680  -19.4550  -15.0030 C.2     1  UNL1        0.1660
      5  N         26.5890  -19.1420  -13.7450 N.2     1  UNL1       -0.1750
      6  N         25.9280  -20.0710  -12.9980 N.pl3   1  UNL1       -0.1920
      7  C         25.9360  -20.1830  -11.6030 C.2     1  UNL1        0.1670
      8  C         25.2320  -21.1550  -11.0100 C.2     1  UNL1        0.0860
      9  C         24.4680  -22.0660  -11.9260 C.2     1  UNL1        0.0500
     10  N         24.4520  -21.9670  -13.2290 N.2     1  UNL1       -0.2310
     11  C         25.1910  -20.9580  -13.7840 C.2     1  UNL1        0.1760
     12  C         23.6680  -23.1770  -11.2700 C.3     1  UNL1        0.1400
     13  S         23.3910  -22.7380   -9.5250 S.3     1  UNL1       -0.1040
     14  C         21.6140  -22.6030   -9.5160 C.2     1  UNL1        0.0950
     15  C         20.9160  -23.0840   -8.4290 C.2     1  UNL1        0.0570
     16  C         19.5270  -22.9600   -8.4380 C.2     1  UNL1        0.0470
     17  C         18.8580  -22.3440   -9.5180 C.2     1  UNL1        0.0080
     18  C         17.4530  -22.1700   -9.6150 C.2     1  UNL1        0.0150
     19  C         19.6730  -21.8910  -10.5730 C.2     1  UNL1        0.0690
     20  C         16.8780  -21.5600  -10.7280 C.2     1  UNL1        0.0010
     21  C         17.6900  -21.1180  -11.7610 C.2     1  UNL1        0.0020
     22  C         19.0730  -21.2870  -11.6720 C.2     1  UNL1        0.0320
     23  N         21.0110  -22.0210  -10.5710 N.2     1  UNL1       -0.2410
     24  C         18.7840  -23.4850   -7.2690 C.2     1  UNL1        0.2530
     25  O         18.3950  -24.6450   -7.2520 O.2     1  UNL1       -0.2680
     26  N         18.5900  -22.5710   -6.2500 N.am    1  UNL1       -0.3520
     27  H         19.0220  -21.6580   -6.3140 H       1  UNL1        0.1630
     28  C         17.9340  -22.9250   -5.0310 C.3     1  UNL1        0.0840
     29  C         17.8610  -21.9440   -3.8950 C.3     1  UNL1        0.0270
     30  C         16.6190  -22.2980   -4.6580 C.3     1  UNL1        0.0270
     31  O         26.6780  -19.2820  -10.8550 O.2     1  UNL1       -0.3450
     32  H         26.0270  -18.7780  -10.3200 H       1  UNL1        0.2190
@<TRIPOS>BOND
     1     1     2    3
     2     2     3    1
     3     3     4    1
     4     3    11    2
     5     4     5    2
     6    11    10    1
     7    11     6    1
     8     5     6    1
     9    10     9    2
    10     6     7    1
    11     9    12    1
    12     9     8    1
    13    21    22    2
    14    21    20    1
    15    22    19    1
    16     7     8    2
    17     7    31    1
    18    12    13    1
    19    31    32    1
    20    20    18    2
    21    19    23    1
    22    19    17    2
    23    23    14    2
    24    18    17    1
    25    13    14    1
    26    17    16    1
    27    14    15    1
    28    16    15    2
    29    16    24    1
    30    24    25    2
    31    24    26   am
    32    27    26    1
    33    26    28    1
    34    28    30    1
    35    28    29    1
    36    30    29    1
