@<TRIPOS>MOLECULE
tr13223_out_ligand_01.pdbqt
 35 39 0 0 0
SMALL
GASTEIGER

@<TRIPOS>ATOM
      1  N         18.7970  -21.6140  -11.3690 N.pl3   1  UNL1       -0.2500
      2  N         17.6860  -20.9270  -11.7500 N.2     1  UNL1       -0.1820
      3  C         16.7750  -21.2620  -10.8260 C.2     1  UNL1        0.1600
      4  C         17.2860  -22.1680   -9.8910 C.2     1  UNL1        0.0990
      5  C         16.7570  -22.8350   -8.7350 C.2     1  UNL1        0.2640
      6  O         15.6260  -22.6210   -8.3150 O.2     1  UNL1       -0.2670
      7  N         17.6840  -23.7060   -8.1490 N.am    1  UNL1       -0.3030
      8  C         18.9890  -23.8210   -8.6280 C.2     1  UNL1        0.2150
      9  N         19.4870  -23.2010   -9.6580 N.2     1  UNL1       -0.2230
     10  C         18.5880  -22.3890  -10.2600 C.2     1  UNL1        0.1640
     11  C         20.0230  -21.5100  -12.1420 C.3     1  UNL1        0.1720
     12  C         21.1910  -21.0480  -11.2740 C.3     1  UNL1        0.1440
     13  N         22.1580  -22.1040  -11.0230 N.am    1  UNL1       -0.3560
     14  C         23.1230  -21.9430  -10.0590 C.2     1  UNL1        0.2410
     15  O         23.1410  -21.0390   -9.2360 O.2     1  UNL1       -0.2690
     16  H         22.3870  -22.7040  -11.8080 H       1  UNL1        0.1620
     17  C         24.1640  -22.9930  -10.1300 C.2     1  UNL1        0.0750
     18  C         25.3140  -22.8610  -10.8070 C.2     1  UNL1        0.0170
     19  C         25.6960  -21.7120  -11.6340 C.2     1  UNL1       -0.0330
     20  C         26.3080  -20.5790  -11.0520 C.2     1  UNL1        0.0140
     21  C         26.6560  -19.4710  -11.8340 C.2     1  UNL1        0.0400
     22  C         26.3740  -19.5270  -13.1810 C.2     1  UNL1        0.1050
     23  C         25.7700  -20.6230  -13.7510 C.2     1  UNL1        0.1050
     24  O         26.6370  -18.5480  -14.0880 O.2     1  UNL1       -0.3230
     25  C         25.4150  -21.7290  -13.0050 C.2     1  UNL1        0.0510
     26  O         25.5750  -20.4720  -15.0880 O.2     1  UNL1       -0.3230
     27  C         26.1490  -19.1650  -15.2990 C.3     1  UNL1        0.3520
     28  C         17.2880  -24.4560   -6.9680 C.3     1  UNL1        0.1740
     29  C         17.1560  -23.5900   -5.7400 C.2     1  UNL1       -0.0010
     30  C         18.2030  -22.7490   -5.3310 C.2     1  UNL1        0.0120
     31  C         18.0670  -21.9500   -4.1930 C.2     1  UNL1        0.0010
     32  C         16.8840  -21.9790   -3.4520 C.2     1  UNL1        0.0030
     33  C         15.8370  -22.8090   -3.8490 C.2     1  UNL1        0.0430
     34  C         15.9790  -23.6020   -4.9840 C.2     1  UNL1        0.1240
     35  F         14.9600  -24.3920   -5.3470 F       1  UNL1       -0.2050
@<TRIPOS>BOND
     1    27    26    1
     2    27    24    1
     3    26    23    1
     4    24    22    1
     5    23    22    2
     6    23    25    1
     7    22    21    1
     8    25    19    2
     9    11     1    1
    10    11    12    1
    11    21    20    2
    12    16    13    1
    13     2     1    1
    14     2     3    2
    15    19    20    1
    16    19    18    1
    17     1    10    1
    18    12    13    1
    19    13    14   am
    20     3     4    1
    21    18    17    2
    22    10     4    2
    23    10     9    1
    24    17    14    1
    25    14    15    2
    26     4     5    1
    27     9     8    2
    28     5     6    2
    29     5     7   am
    30     8     7    1
    31     7    28    1
    32    28    29    1
    33    29    30    2
    34    29    34    1
    35    35    34    1
    36    30    31    1
    37    34    33    2
    38    31    32    2
    39    33    32    1
