@<TRIPOS>MOLECULE
tr13567_out_ligand_01.pdbqt
 37 41 0 0 0
SMALL
GASTEIGER

@<TRIPOS>ATOM
      1  C         19.0790  -21.3250  -11.4220 C.2     1  UNL1        0.0290
      2  C         19.8810  -21.0420  -12.4630 C.2     1  UNL1        0.0280
      3  C         21.2880  -21.4320  -12.4690 C.2     1  UNL1       -0.0060
      4  C         22.0940  -21.0880  -13.5650 C.2     1  UNL1        0.0530
      5  C         23.4410  -21.4350  -13.5770 C.2     1  UNL1        0.1030
      6  C         23.9940  -22.0980  -12.4800 C.2     1  UNL1        0.1040
      7  C         23.1910  -22.4590  -11.3950 C.2     1  UNL1        0.0700
      8  C         21.8260  -22.1370  -11.3770 C.2     1  UNL1        0.0510
      9  N         20.9600  -22.4860  -10.2970 N.am    1  UNL1       -0.3040
     10  C         19.6290  -22.0800  -10.2520 C.2     1  UNL1        0.2560
     11  O         18.8960  -22.3260   -9.2910 O.2     1  UNL1       -0.2670
     12  O         25.3220  -22.4380  -12.4010 O.2     1  UNL1       -0.3460
     13  C         26.1000  -21.7240  -13.3700 C.3     1  UNL1        0.2020
     14  C         25.4230  -21.7570  -14.7300 C.3     1  UNL1        0.2020
     15  O         24.1620  -21.0770  -14.6870 O.2     1  UNL1       -0.3460
     16  C         21.4500  -23.2100   -9.1280 C.3     1  UNL1        0.2350
     17  C         21.0950  -22.4740   -7.8270 C.2     1  UNL1        0.2400
     18  O         21.8820  -21.6900   -7.2960 O.2     1  UNL1       -0.2710
     19  N         19.8440  -22.8250   -7.3340 N.am    1  UNL1       -0.3260
     20  H         19.2750  -23.4290   -7.9170 H       1  UNL1        0.1690
     21  C         19.2280  -22.3710   -6.1460 C.2     1  UNL1        0.0360
     22  C         19.4400  -21.0270   -5.7890 C.2     1  UNL1        0.0290
     23  C         18.8590  -20.4860   -4.6360 C.2     1  UNL1        0.0040
     24  C         18.0640  -21.2880   -3.8220 C.2     1  UNL1        0.0240
     25  C         17.8570  -22.6250   -4.1680 C.2     1  UNL1        0.0360
     26 CL         16.8810  -23.6150   -3.1540 Cl      1  UNL1       -0.0840
     27  C         18.4300  -23.1680   -5.3230 C.2     1  UNL1        0.0530
     28  C         17.6250  -20.9560  -11.2730 C.3     1  UNL1        0.1640
     29  N         16.7370  -22.1120  -11.1540 N.pl3   1  UNL1       -0.3850
     30  H         16.9310  -22.8430  -11.8320 H       1  UNL1        0.1600
     31  C         16.2600  -22.5820   -9.9360 C.2     1  UNL1        0.0280
     32  C         16.2560  -21.7090   -8.8390 C.2     1  UNL1        0.0290
     33  C         15.8380  -22.1260   -7.5700 C.2     1  UNL1        0.0090
     34  C         15.4190  -23.4410   -7.3630 C.2     1  UNL1       -0.0620
     35  C         15.0000  -23.9050   -6.0010 C.3     1  UNL1        0.0480
     36  C         15.4650  -24.3340   -8.4360 C.2     1  UNL1        0.0090
     37  C         15.8870  -23.9100   -9.7030 C.2     1  UNL1        0.0290
@<TRIPOS>BOND
     1    14    15    1
     2    14    13    1
     3    15     5    1
     4     5     4    1
     5     5     6    2
     6     4     3    2
     7    13    12    1
     8     6    12    1
     9     6     7    1
    10     3     2    1
    11     3     8    1
    12     2     1    2
    13    30    29    1
    14     1    28    1
    15     1    10    1
    16     7     8    2
    17     8     9    1
    18    28    29    1
    19    29    31    1
    20     9    10   am
    21     9    16    1
    22    10    11    2
    23    31    37    2
    24    31    32    1
    25    37    36    1
    26    16    17    1
    27    32    33    2
    28    36    34    2
    29    20    19    1
    30    17    19   am
    31    17    18    2
    32    33    34    1
    33    34    35    1
    34    19    21    1
    35    21    22    2
    36    21    27    1
    37    22    23    1
    38    27    25    2
    39    23    24    2
    40    25    24    1
    41    25    26    1
