@<TRIPOS>MOLECULE
tr13291_out_ligand_01.pdbqt
 35 39 0 0 0
SMALL
GASTEIGER

@<TRIPOS>ATOM
      1  C         23.4590  -22.4640  -10.3750 C.ar    1  UNL1        0.2110
      2  N         23.9270  -23.3780   -9.5410 N.ar    1  UNL1       -0.1070
      3  N         22.8420  -24.0640   -8.9840 N.ar    1  UNL1        0.0450
      4  C         21.7700  -23.5540   -9.5300 C.ar    1  UNL1        0.7350
      5  N         20.4200  -23.7010   -9.5200 N.ar    1  UNL1       -0.1680
      6  C         19.9000  -22.6880  -10.3410 C.ar    1  UNL1        0.0800
      7  C         18.6030  -22.3330  -10.6290 C.2     1  UNL1        0.0320
      8  C         18.4030  -21.2670  -11.5210 C.2     1  UNL1        0.0020
      9  C         19.4890  -20.5730  -12.1040 C.2     1  UNL1        0.0020
     10  C         20.8100  -20.9220  -11.8130 C.2     1  UNL1        0.0330
     11  C         20.9700  -21.9690  -10.9370 C.ar    1  UNL1        0.0870
     12  N         22.1090  -22.5450  -10.3940 N.ar    1  UNL1       -0.1170
     13  S         24.4100  -21.3400  -11.2680 S.3     1  UNL1       -0.0800
     14  C         24.1360  -21.8700  -12.9840 C.3     1  UNL1        0.1850
     15  C         24.8030  -20.9790  -14.0200 C.2     1  UNL1        0.2290
     16  N         25.2430  -21.5400  -15.2200 N.am    1  UNL1       -0.3510
     17  C         26.0400  -20.6760  -16.0950 C.3     1  UNL1        0.1300
     18  C         25.4650  -22.9750  -15.4000 C.3     1  UNL1        0.1300
     19  C         25.8830  -21.0210  -17.5790 C.3     1  UNL1       -0.0000
     20  C         26.0420  -22.5280  -17.8250 C.3     1  UNL1        0.0110
     21  C         24.5820  -20.4490  -18.1440 C.3     1  UNL1        0.0110
     22  C         25.2710  -23.4290  -16.8520 C.3     1  UNL1       -0.0000
     23  C         23.7870  -23.5690  -17.1960 C.3     1  UNL1        0.0110
     24  O         24.9080  -19.7710  -13.7750 O.2     1  UNL1       -0.2730
     25  C         19.6960  -24.2990   -8.4070 C.3     1  UNL1        0.2500
     26  C         19.2530  -23.2380   -7.3940 C.2     1  UNL1        0.2360
     27  O         20.0320  -22.3790   -6.9900 O.2     1  UNL1       -0.2720
     28  N         17.9520  -23.3770   -6.9670 N.am    1  UNL1       -0.3550
     29  H         17.4180  -24.0820   -7.4670 H       1  UNL1        0.1620
     30  C         17.2090  -22.5400   -6.0300 C.3     1  UNL1        0.0840
     31  C         17.7050  -22.6330   -4.5810 C.3     1  UNL1        0.0250
     32  C         17.0000  -23.6780   -3.7210 C.3     1  UNL1        0.0020
     33  C         15.4850  -23.6020   -3.8460 C.3     1  UNL1        0.0000
     34  C         15.0240  -23.6980   -5.2940 C.3     1  UNL1        0.0020
     35  C         15.6850  -22.6450   -6.1780 C.3     1  UNL1        0.0250
@<TRIPOS>BOND
     1    21    19    1
     2    20    19    1
     3    20    22    1
     4    19    17    1
     5    23    22    1
     6    22    18    1
     7    17    16    1
     8    18    16    1
     9    16    15   am
    10    15    24    2
    11    15    14    1
    12    14    13    1
    13     9    10    2
    14     9     8    1
    15    10    11    1
    16     8     7    2
    17    13     1    1
    18    11    12   ar
    19    11     6   ar
    20     7     6    1
    21    12     1   ar
    22    12     4   ar
    23     1     2   ar
    24     6     5   ar
    25     2     3   ar
    26     4     5   ar
    27     4     3   ar
    28     5    25    1
    29    25    26    1
    30    29    28    1
    31    26    27    2
    32    26    28   am
    33    28    30    1
    34    35    30    1
    35    35    34    1
    36    30    31    1
    37    34    33    1
    38    31    32    1
    39    33    32    1
