@<TRIPOS>MOLECULE
tr13581_out_ligand_01.pdbqt
 36 40 0 0 0
SMALL
GASTEIGER

@<TRIPOS>ATOM
      1  C         20.8120  -22.6400  -10.3420 C.2     1  UNL1        0.2200
      2  O         19.9570  -22.1310  -11.0680 O.2     1  UNL1       -0.2730
      3  N         22.1710  -22.5030  -10.6110 N.am    1  UNL1       -0.3500
      4  C         23.2390  -23.0120   -9.7480 C.3     1  UNL1        0.1290
      5  C         24.5530  -22.2700   -9.9760 C.3     1  UNL1        0.0590
      6  C         25.0400  -22.3710  -11.4400 C.3     1  UNL1        0.0780
      7  C         25.9700  -21.1830  -11.7300 C.3     1  UNL1        0.0480
      8  C         23.8460  -22.5230  -12.4320 C.3     1  UNL1        0.1440
      9  C         22.5790  -21.8620  -11.8710 C.3     1  UNL1        0.1540
     10  C         20.4360  -23.4050   -9.0800 C.3     1  UNL1        0.1070
     11  C         20.6170  -22.5830   -7.8030 C.3     1  UNL1        0.0480
     12  C         19.3670  -22.5630   -6.9530 C.2     1  UNL1       -0.0550
     13  C         18.3490  -23.5100   -7.1790 C.2     1  UNL1        0.0410
     14  C         17.1840  -23.4610   -6.3990 C.ar    1  UNL1        0.0860
     15  N         16.0680  -24.2610   -6.4350 N.ar    1  UNL1       -0.2340
     16  C         17.0610  -22.4820   -5.4220 C.ar    1  UNL1        0.0620
     17  C         15.2680  -23.7960   -5.4990 C.ar    1  UNL1        0.1010
     18  C         13.9320  -24.3180   -5.1330 C.3     1  UNL1        0.0910
     19  N         15.8330  -22.7180   -4.8620 N.ar    1  UNL1       -0.3430
     20  H         15.4160  -22.1910   -4.1090 H       1  UNL1        0.1670
     21  C         18.0440  -21.5260   -5.1670 C.2     1  UNL1        0.0320
     22  C         19.2000  -21.5870   -5.9570 C.2     1  UNL1        0.0090
     23  N         24.1570  -22.1580  -13.8060 N.pl3   1  UNL1       -0.3150
     24  C         23.5840  -21.1090  -14.4830 C.2     1  UNL1        0.2120
     25  N         24.0550  -20.9940  -15.7060 N.2     1  UNL1       -0.2360
     26  C         24.9610  -22.0260  -15.8330 C.2     1  UNL1        0.1440
     27  C         25.7840  -22.4400  -16.8940 C.2     1  UNL1        0.1350
     28  C         25.0430  -22.7580  -14.6580 C.2     1  UNL1        0.1650
     29  N         26.6060  -23.4960  -16.7010 N.2     1  UNL1       -0.2280
     30  C         26.5760  -24.1200  -15.5040 C.2     1  UNL1        0.2370
     31  N         25.8220  -23.8270  -14.4240 N.2     1  UNL1       -0.2220
     32  N         25.8090  -21.8050  -18.1300 N.pl3   1  UNL1       -0.2850
     33  H         26.7480  -21.5950  -18.4510 H       1  UNL1        0.1250
     34  H         25.1710  -22.2310  -18.7870 H       1  UNL1        0.1250
     35  O         25.8350  -23.5680  -11.5510 O.3     1  UNL1       -0.3880
     36  H         26.3470  -23.6780  -10.7290 H       1  UNL1        0.2100
@<TRIPOS>BOND
     1    34    32    1
     2    33    32    1
     3    32    27    1
     4    27    29    1
     5    27    26    2
     6    29    30    2
     7    26    25    1
     8    26    28    1
     9    25    24    2
    10    30    31    1
    11    28    31    2
    12    28    23    1
    13    24    23    1
    14    23     8    1
    15     8     9    1
    16     8     6    1
    17     9     3    1
    18     7     6    1
    19    35     6    1
    20    35    36    1
    21     6     5    1
    22     2     1    2
    23     3     1   am
    24     3     4    1
    25     1    10    1
    26     5     4    1
    27    10    11    1
    28    11    12    1
    29    13    12    2
    30    13    14    1
    31    12    22    1
    32    15    14   ar
    33    15    17   ar
    34    14    16   ar
    35    22    21    2
    36    17    18    1
    37    17    19   ar
    38    16    21    1
    39    16    19   ar
    40    19    20    1
