@<TRIPOS>MOLECULE
tr13622_out_ligand_01.pdbqt
 37 39 0 0 0
SMALL
GASTEIGER

@<TRIPOS>ATOM
      1  N         23.7270  -23.2250  -10.8910 N.am    1  UNL1       -0.3260
      2  C         24.6360  -22.1790  -10.8840 C.2     1  UNL1        0.2400
      3  O         24.5080  -21.1130  -10.2870 O.2     1  UNL1       -0.2710
      4  H         23.9990  -24.0550  -11.4200 H       1  UNL1        0.1690
      5  C         22.4530  -23.2720  -10.2920 C.2     1  UNL1        0.0340
      6  C         22.1470  -24.0270   -9.1590 C.2     1  UNL1        0.0300
      7  C         20.8550  -24.0050   -8.6140 C.2     1  UNL1        0.0190
      8  C         19.8600  -23.2090   -9.1920 C.2     1  UNL1        0.0320
      9  C         20.1580  -22.4700  -10.3420 C.2     1  UNL1        0.0190
     10  C         21.4470  -22.5010  -10.8860 C.2     1  UNL1        0.0300
     11  C         18.4710  -23.1360   -8.6470 C.2     1  UNL1        0.2560
     12  N         18.3650  -23.3150   -7.2830 N.am    1  UNL1       -0.3210
     13  H         19.2120  -23.4200   -6.7330 H       1  UNL1        0.1690
     14  O         17.5560  -22.9040   -9.4270 O.2     1  UNL1       -0.2670
     15  C         17.1960  -23.2930   -6.4870 C.2     1  UNL1        0.0680
     16  C         16.0490  -24.0350   -6.7730 C.2     1  UNL1        0.0320
     17  C         14.9300  -23.9520   -5.9420 C.2     1  UNL1        0.0020
     18  C         14.9520  -23.1290   -4.8200 C.2     1  UNL1        0.0030
     19  C         16.0950  -22.3840   -4.5190 C.2     1  UNL1        0.0390
     20  C         17.2210  -22.4630   -5.3440 C.2     1  UNL1        0.0950
     21  O         18.3980  -21.7760   -5.1390 O.2     1  UNL1       -0.3540
     22  C         18.5260  -21.0750   -3.9070 C.3     1  UNL1        0.2100
     23  C         25.8900  -22.4740  -11.7160 C.3     1  UNL1        0.2400
     24  N         25.7510  -21.9140  -13.0590 N.am    1  UNL1       -0.2560
     25  C         25.3150  -22.7580  -14.0720 C.2     1  UNL1        0.2690
     26  O         25.0110  -23.9380  -13.8860 O.2     1  UNL1       -0.2670
     27  C         25.2140  -22.1710  -15.4290 C.2     1  UNL1        0.1150
     28  C         25.5270  -20.8770  -15.5750 C.2     1  UNL1        0.1180
     29  N         25.9500  -20.0870  -14.5270 N.am    1  UNL1       -0.3130
     30  C         26.3220  -18.7070  -14.8150 C.3     1  UNL1        0.1600
     31  C         26.1120  -20.5840  -13.2420 C.2     1  UNL1        0.3310
     32  O         26.5780  -19.9130  -12.3190 O.2     1  UNL1       -0.2460
     33  C         24.7790  -22.9140  -16.6430 C.2     1  UNL1        0.2560
     34  N         23.4630  -23.2420  -16.7180 N.am    1  UNL1       -0.3660
     35  H         22.8050  -23.0090  -15.9750 H       1  UNL1        0.1590
     36  H         23.1280  -23.7590  -17.5210 H       1  UNL1        0.1590
     37  O         25.5520  -23.2230  -17.5430 O.2     1  UNL1       -0.2680
@<TRIPOS>BOND
     1    37    33    2
     2    36    34    1
     3    34    33   am
     4    34    35    1
     5    33    27    1
     6    28    27    2
     7    28    29    1
     8    27    25    1
     9    30    29    1
    10    29    31   am
    11    25    26    2
    12    25    24   am
    13    31    24   am
    14    31    32    2
    15    24    23    1
    16    23     2    1
    17     4     1    1
    18     1     2   am
    19     1     5    1
    20    10     9    1
    21    10     5    2
    22     2     3    2
    23     9     8    2
    24     5     6    1
    25    14    11    2
    26     8    11    1
    27     8     7    1
    28     6     7    2
    29    11    12   am
    30    12    13    1
    31    12    15    1
    32    16    15    2
    33    16    17    1
    34    15    20    1
    35    17    18    2
    36    20    21    1
    37    20    19    2
    38    21    22    1
    39    18    19    1
