@<TRIPOS>MOLECULE
tr1357_out_ligand_01.pdbqt
 26 29 0 0 0
SMALL
GASTEIGER

@<TRIPOS>ATOM
      1  C         23.4180  -20.6900  -14.3400 C.3     1  UNL1        0.1820
      2  N         23.1860  -21.5060  -13.1760 N.pl3   1  UNL1       -0.2580
      3  N         24.2060  -22.2530  -12.6870 N.2     1  UNL1       -0.1830
      4  C         23.6630  -22.8860  -11.6350 C.2     1  UNL1        0.1560
      5  C         22.3150  -22.5450  -11.4430 C.2     1  UNL1        0.0580
      6  C         21.2990  -22.9410  -10.4950 C.2     1  UNL1        0.0800
      7  C         19.9720  -22.2400  -10.6830 C.2     1  UNL1        0.0760
      8  C         19.8250  -21.4060  -11.7400 C.3     1  UNL1        0.1090
      9  N         20.8300  -21.0850  -12.6390 N.pl3   1  UNL1       -0.3490
     10  C         22.0390  -21.6560  -12.4530 C.2     1  UNL1        0.1370
     11  H         20.5960  -20.4680  -13.4130 H       1  UNL1        0.1670
     12  C         18.8430  -22.5260   -9.7540 C.2     1  UNL1        0.2560
     13  O         17.7910  -22.9860  -10.1870 O.2     1  UNL1       -0.2680
     14  N         19.1000  -22.3150   -8.4170 N.am    1  UNL1       -0.3480
     15  H         20.0660  -22.1810   -8.1460 H       1  UNL1        0.1630
     16  C         18.1610  -22.6370   -7.3390 C.3     1  UNL1        0.0330
     17  C         18.6170  -21.9050   -6.0450 C.3     1  UNL1        0.0340
     18  C         17.6750  -22.2140   -4.8780 C.3     1  UNL1        0.0460
     19  C         16.5570  -23.1480   -5.3440 C.3     1  UNL1        0.1030
     20  F         15.7260  -23.4150   -4.3110 F       1  UNL1       -0.2430
     21  C         15.7800  -22.4690   -6.4740 C.3     1  UNL1        0.0460
     22  C         17.1750  -24.4500   -5.8620 C.3     1  UNL1        0.0460
     23  C         16.7180  -22.1600   -7.6500 C.3     1  UNL1        0.0340
     24  C         18.1280  -24.1550   -7.0280 C.3     1  UNL1        0.0340
     25  N         21.6050  -23.8260   -9.6070 N.pl3   1  UNL1       -0.2980
     26  H         20.7360  -24.1820   -9.1710 H       1  UNL1        0.1870
@<TRIPOS>BOND
     1     1     2    1
     2    11     9    1
     3     2     3    1
     4     2    10    1
     5     3     4    2
     6     9    10    1
     7     9     8    1
     8    10     5    2
     9     8     7    1
    10     4     5    1
    11     5     6    1
    12     7     6    2
    13     7    12    1
    14     6    25    1
    15    13    12    2
    16    12    14   am
    17    25    26    1
    18    14    15    1
    19    14    16    1
    20    23    16    1
    21    23    21    1
    22    16    24    1
    23    16    17    1
    24    24    22    1
    25    21    19    1
    26    17    18    1
    27    22    19    1
    28    19    18    1
    29    19    20    1
