@<TRIPOS>MOLECULE
tr13696_out_ligand_01.pdbqt
 24 27 0 0 0
SMALL
GASTEIGER

@<TRIPOS>ATOM
      1  N         17.3850  -20.6550  -12.0000 N.1     1  UNL1       -0.1910
      2  C         18.4510  -21.0650  -11.7910 C.1     1  UNL1        0.1050
      3  C         19.7720  -21.5400  -11.5700 C.2     1  UNL1        0.1110
      4  C         20.9310  -21.1950  -12.2730 C.2     1  UNL1        0.1660
      5  N         22.0150  -21.8220  -11.8150 N.2     1  UNL1       -0.1750
      6  N         21.5590  -22.5970  -10.7890 N.pl3   1  UNL1       -0.1920
      7  C         22.2910  -23.4690   -9.9580 C.2     1  UNL1        0.1670
      8  C         21.6520  -24.1490   -8.9940 C.2     1  UNL1        0.0860
      9  C         20.1730  -23.9230   -8.8820 C.2     1  UNL1        0.0690
     10  N         19.4840  -23.1190   -9.6440 N.2     1  UNL1       -0.2300
     11  C         20.1750  -22.4440  -10.6120 C.2     1  UNL1        0.1760
     12  C         19.4400  -24.7010   -7.7880 C.3     1  UNL1        0.3310
     13  N         18.8140  -23.7660   -6.8350 N.3     1  UNL1        0.0940
     14  C         19.4080  -22.4350   -6.9300 C.3     1  UNL1        0.2730
     15  C         18.9390  -21.5760   -5.7520 C.3     1  UNL1        0.0350
     16  C         17.4230  -21.6590   -5.4910 C.3     1  UNL1       -0.0070
     17  C         17.1190  -22.3340   -4.1420 C.3     1  UNL1        0.0050
     18  C         16.6990  -22.3640   -6.6500 C.3     1  UNL1        0.0180
     19  C         15.6170  -22.4180   -3.8840 C.3     1  UNL1        0.0000
     20  C         14.8830  -23.1270   -5.0170 C.3     1  UNL1        0.0000
     21  C         15.1930  -22.4990   -6.3760 C.3     1  UNL1        0.0070
     22  C         17.3460  -23.7260   -6.9990 C.3     1  UNL1        0.2770
     23  O         23.6560  -23.6060  -10.1620 O.2     1  UNL1       -0.3450
     24  H         23.8360  -23.6750  -11.1130 H       1  UNL1        0.2190
@<TRIPOS>BOND
     1     4     5    2
     2     4     3    1
     3     1     2    3
     4     5     6    1
     5     2     3    1
     6     3    11    2
     7    24    23    1
     8     6    11    1
     9     6     7    1
    10    11    10    1
    11    23     7    1
    12     7     8    2
    13    10     9    2
    14     8     9    1
    15     9    12    1
    16    12    13    1
    17    22    13    1
    18    22    18    1
    19    14    13    1
    20    14    15    1
    21    18    21    1
    22    18    16    1
    23    21    20    1
    24    15    16    1
    25    16    17    1
    26    20    19    1
    27    17    19    1
