@<TRIPOS>MOLECULE
tr13502_out_ligand_01.pdbqt
 37 40 0 0 0
SMALL
GASTEIGER

@<TRIPOS>ATOM
      1  C         19.8970  -22.7470   -9.8660 C.2     1  UNL1        0.1040
      2  C         21.2270  -23.0470  -10.1720 C.2     1  UNL1        0.0510
      3  C         22.2350  -22.8680   -9.2120 C.2     1  UNL1       -0.0320
      4  C         21.9040  -22.4050   -7.9350 C.2     1  UNL1        0.0140
      5  C         20.5790  -22.1150   -7.6160 C.2     1  UNL1        0.0420
      6  C         19.5830  -22.3060   -8.5740 C.2     1  UNL1        0.1230
      7  C         23.6300  -23.2100   -9.5090 C.3     1  UNL1        0.0320
      8  C         24.3240  -22.9950  -10.6470 C.ar    1  UNL1        0.0820
      9  C         23.7960  -22.3240  -11.8830 C.ar    1  UNL1        0.1620
     10  C         25.7700  -23.4600  -10.6520 C.ar    1  UNL1        0.2830
     11  N         22.5780  -21.8820  -11.9880 N.pl3   1  UNL1       -0.2810
     12  N         24.6980  -22.2020  -12.9240 N.ar    1  UNL1       -0.1880
     13  H         22.4810  -21.4720  -12.9260 H       1  UNL1        0.1880
     14  N         24.3640  -21.6090  -14.1320 N.ar    1  UNL1       -0.1440
     15  C         25.9770  -22.6780  -12.8020 C.ar    1  UNL1        0.2020
     16  C         25.4080  -21.6430  -14.9160 C.ar    1  UNL1        0.2160
     17  S         26.8710  -22.3900  -14.2710 S.2     1  UNL1       -0.0170
     18  N         26.5190  -23.2590  -11.7940 N.ar    1  UNL1       -0.1820
     19  O         26.2550  -23.9980   -9.6630 O.2     1  UNL1       -0.2650
     20  S         25.3200  -20.9880  -16.5570 S.O2    1  UNL1        0.2010
     21  O         26.5370  -20.2150  -16.7290 O.2     1  UNL1       -0.2210
     22  O         24.0120  -20.3780  -16.6950 O.2     1  UNL1       -0.2210
     23  C         25.4030  -22.4020  -17.6340 C.3     1  UNL1        0.1430
     24  C         24.2800  -23.3940  -17.4020 C.3     1  UNL1        0.0210
     25  O         18.8380  -22.8630  -10.7280 O.2     1  UNL1       -0.3490
     26  C         18.6750  -21.8360  -11.7040 C.3     1  UNL1        0.1710
     27  C         17.3980  -21.0820  -11.3810 C.3     1  UNL1        0.0340
     28  O         18.2800  -22.0120   -8.2620 O.2     1  UNL1       -0.2260
     29  S         17.2860  -23.2210   -7.7940 S.3     1  UNL1        0.3030
     30  O         18.0780  -24.4370   -7.7020 O.3     1  UNL1       -0.1930
     31  O         16.0930  -23.2100   -8.6240 O.3     1  UNL1       -0.1930
     32  C         16.7800  -22.8190   -6.1320 C.2     1  UNL1        0.0860
     33  C         15.4200  -22.8010   -5.8060 C.2     1  UNL1        0.0260
     34  C         15.0320  -22.5000   -4.4990 C.2     1  UNL1        0.0020
     35  C         15.9980  -22.2340   -3.5280 C.2     1  UNL1        0.0000
     36  C         17.3560  -22.2710   -3.8550 C.2     1  UNL1        0.0020
     37  C         17.7520  -22.5680   -5.1580 C.2     1  UNL1        0.0260
@<TRIPOS>BOND
     1    23    24    1
     2    23    20    1
     3    21    20    2
     4    22    20    2
     5    20    16    1
     6    16    17   ar
     7    16    14   ar
     8    17    15   ar
     9    14    12   ar
    10    13    11    1
    11    12    15   ar
    12    12     9   ar
    13    15    18   ar
    14    11     9    1
    15     9     8   ar
    16    18    10   ar
    17    26    27    1
    18    26    25    1
    19    25     1    1
    20    10     8   ar
    21    10    19    2
    22     8     7    1
    23     2     1    2
    24     2     3    1
    25     1     6    1
    26     7     3    1
    27     3     4    2
    28    31    29    1
    29     6    28    1
    30     6     5    2
    31    28    29    1
    32     4     5    1
    33    29    30    1
    34    29    32    1
    35    32    33    2
    36    32    37    1
    37    33    34    1
    38    37    36    2
    39    34    35    2
    40    36    35    1
