@<TRIPOS>MOLECULE
tr1353_out_ligand_01.pdbqt
 27 30 0 0 0
SMALL
GASTEIGER

@<TRIPOS>ATOM
      1  C         24.1550  -22.6330  -11.9640 C.2     1  UNL1        0.0690
      2  C         23.3660  -21.4660  -12.4850 C.2     1  UNL1        0.0860
      3  C         23.3520  -21.3120  -13.8140 C.2     1  UNL1        0.1670
      4  N         24.0420  -22.2190  -14.6270 N.pl3   1  UNL1       -0.1920
      5  N         24.1220  -22.1950  -15.9860 N.2     1  UNL1       -0.1750
      6  C         24.8900  -23.2490  -16.2800 C.2     1  UNL1        0.1660
      7  C         25.3000  -23.9560  -15.1380 C.2     1  UNL1        0.1110
      8  C         26.1180  -25.1180  -15.0870 C.1     1  UNL1        0.1050
      9  N         26.7880  -26.0660  -15.1000 N.1     1  UNL1       -0.1910
     10  C         24.7450  -23.2870  -14.0720 C.2     1  UNL1        0.1760
     11  N         24.7880  -23.4920  -12.7200 N.2     1  UNL1       -0.2300
     12  C         24.1920  -22.8070  -10.4420 C.3     1  UNL1        0.3310
     13  N         22.8560  -22.5550   -9.8630 N.3     1  UNL1        0.0900
     14  C         22.9660  -21.5810   -8.7750 C.3     1  UNL1        0.3100
     15  C         22.1960  -23.7940   -9.4180 C.3     1  UNL1        0.2770
     16  C         20.6640  -23.7800   -9.6130 C.3     1  UNL1        0.0180
     17  C         20.2360  -22.4760  -10.3050 C.3     1  UNL1        0.0110
     18  C         18.7410  -22.4980  -10.6160 C.3     1  UNL1        0.0390
     19  C         17.8960  -22.9100   -9.4380 C.2     1  UNL1       -0.0520
     20  C         16.5200  -22.6390   -9.4560 C.2     1  UNL1        0.0070
     21  C         18.4490  -23.6100   -8.3520 C.2     1  UNL1       -0.0510
     22  C         15.7040  -23.0340   -8.3960 C.2     1  UNL1        0.0010
     23  C         16.2540  -23.7080   -7.3100 C.2     1  UNL1        0.0010
     24  C         17.6190  -23.9930   -7.2870 C.2     1  UNL1        0.0070
     25  C         19.9260  -23.9130   -8.2690 C.3     1  UNL1        0.0450
     26  O         22.6610  -20.2650  -14.4040 O.2     1  UNL1       -0.3450
     27  H         21.7230  -20.5510  -14.4360 H       1  UNL1        0.2190
@<TRIPOS>BOND
     1     6     5    2
     2     6     7    1
     3     5     4    1
     4     7     8    1
     5     7    10    2
     6     9     8    3
     7     4    10    1
     8     4     3    1
     9    27    26    1
    10    26     3    1
    11    10    11    1
    12     3     2    2
    13    11     1    2
    14     2     1    1
    15     1    12    1
    16    18    17    1
    17    18    19    1
    18    12    13    1
    19    17    16    1
    20    13    15    1
    21    13    14    1
    22    16    15    1
    23    16    25    1
    24    20    19    2
    25    20    22    1
    26    19    21    1
    27    22    23    2
    28    21    25    1
    29    21    24    2
    30    23    24    1
