@<TRIPOS>MOLECULE
10860_out_ligand_01.pdbqt
 44 48 0 0 0
SMALL
GASTEIGER

@<TRIPOS>ATOM
      1  N         17.0570  -22.3770  -10.3810 N.am    1  UNL1       -0.2430
      2  C         17.7970  -21.3700  -11.0020 C.2     1  UNL1        0.2710
      3  O         17.3450  -20.3060  -11.4170 O.2     1  UNL1       -0.2660
      4  H         17.3640  -23.3190  -10.5950 H       1  UNL1        0.1920
      5  N         15.6930  -22.2920  -10.2650 N.2     1  UNL1       -0.1830
      6  C         15.1260  -22.5870   -9.1300 C.2     1  UNL1        0.1500
      7  C         15.7010  -23.2200   -7.9240 C.2     1  UNL1       -0.0140
      8  C         16.6150  -24.2710   -8.0170 C.2     1  UNL1        0.0130
      9  C         17.1290  -24.8390   -6.8540 C.2     1  UNL1        0.0040
     10  C         16.7160  -24.3650   -5.6090 C.2     1  UNL1        0.0370
     11  C         15.7770  -23.3320   -5.5100 C.2     1  UNL1        0.0700
     12  C         15.2620  -22.7620   -6.6740 C.2     1  UNL1        0.0490
     13  O         15.4520  -22.9850   -4.2250 O.2     1  UNL1       -0.3420
     14  C         16.2460  -21.9940   -3.5780 C.3     1  UNL1        0.2780
     15  C         17.7390  -22.0660   -3.9280 C.2     1  UNL1        0.2460
     16  O         18.5410  -22.5970   -3.1650 O.2     1  UNL1       -0.2710
     17  N         18.0260  -21.4470   -5.1330 N.am    1  UNL1       -0.3250
     18  H         17.2160  -21.0820   -5.6270 H       1  UNL1        0.1690
     19  C         19.2690  -21.3250   -5.7780 C.2     1  UNL1        0.0350
     20  C         20.2160  -20.3430   -5.4700 C.2     1  UNL1        0.0320
     21  C         21.4350  -20.2970   -6.1560 C.2     1  UNL1        0.0440
     22  C         21.7020  -21.2320   -7.1480 C.2     1  UNL1        0.1160
     23  F         22.8700  -21.1880   -7.8030 F       1  UNL1       -0.2060
     24  C         20.7740  -22.2130   -7.4700 C.2     1  UNL1        0.0440
     25  C         19.5570  -22.2600   -6.7850 C.2     1  UNL1        0.0320
     26  C         19.2510  -21.6680  -11.1840 C.2     1  UNL1        0.0330
     27  C         19.9980  -20.8570  -12.0460 C.2     1  UNL1        0.0180
     28  C         21.3650  -21.0910  -12.2390 C.2     1  UNL1        0.0150
     29  C         22.0130  -22.1420  -11.5730 C.2     1  UNL1       -0.0070
     30  C         21.2590  -22.9390  -10.6960 C.2     1  UNL1        0.0150
     31  C         19.8930  -22.7050  -10.4980 C.2     1  UNL1        0.0180
     32  C         23.4360  -22.4260  -11.7480 C.2     1  UNL1        0.0760
     33  C         24.3230  -22.6860  -10.7240 C.2     1  UNL1        0.0850
     34  S         25.8920  -22.9450  -11.3590 S.3     1  UNL1       -0.0610
     35  C         25.2920  -22.6910  -12.9630 C.2     1  UNL1        0.1710
     36  N         26.1670  -22.7600  -13.9940 N.pl3   1  UNL1       -0.3350
     37  N         24.0060  -22.4280  -13.0140 N.2     1  UNL1       -0.2230
     38  H         27.1340  -22.9280  -13.7490 H       1  UNL1        0.1680
     39  C         25.9310  -22.6660  -15.3770 C.2     1  UNL1        0.0340
     40  C         26.6110  -21.6710  -16.1010 C.2     1  UNL1        0.0290
     41  C         26.4110  -21.5050  -17.4760 C.2     1  UNL1        0.0020
     42  C         25.5200  -22.3290  -18.1530 C.2     1  UNL1        0.0000
     43  C         24.8310  -23.3140  -17.4550 C.2     1  UNL1        0.0020
     44  C         25.0330  -23.4780  -16.0790 C.2     1  UNL1        0.0290
@<TRIPOS>BOND
     1    42    41    2
     2    42    43    1
     3    41    40    1
     4    43    44    2
     5    40    39    2
     6    44    39    1
     7    39    36    1
     8    36    38    1
     9    36    35    1
    10    37    35    2
    11    37    32    1
    12    35    34    1
    13    28    27    1
    14    28    29    2
    15    27    26    2
    16    32    29    1
    17    32    33    2
    18    29    30    1
    19     3     2    2
    20    34    33    1
    21    26     2    1
    22    26    31    1
    23     2     1   am
    24    30    31    2
    25     4     1    1
    26     1     5    1
    27     5     6    2
    28     6     7    1
    29     8     7    2
    30     8     9    1
    31     7    12    1
    32    23    22    1
    33    24    22    2
    34    24    25    1
    35    22    21    1
    36     9    10    2
    37    25    19    2
    38    12    11    2
    39    21    20    2
    40    19    20    1
    41    19    17    1
    42    18    17    1
    43    10    11    1
    44    11    13    1
    45    17    15   am
    46    13    14    1
    47    15    14    1
    48    15    16    2
