@<TRIPOS>MOLECULE
11122_out_ligand_01.pdbqt
 29 31 0 0 0
SMALL
GASTEIGER

@<TRIPOS>ATOM
      1  N         23.2360  -23.3130  -11.1850 N.pl3   1  UNL1       -0.1800
      2  H         23.0790  -24.3330  -11.1730 H       1  UNL1        0.1460
      3  C         24.2460  -22.9060  -12.1210 C.2     1  UNL1        0.0380
      4  C         25.5100  -23.4960  -12.0390 C.2     1  UNL1        0.0250
      5  C         26.4910  -23.1850  -12.9810 C.2     1  UNL1        0.0020
      6  C         26.2150  -22.2870  -14.0110 C.2     1  UNL1        0.0010
      7  C         24.9530  -21.6970  -14.1060 C.2     1  UNL1        0.0190
      8  C         23.9590  -22.0140  -13.1690 C.2     1  UNL1        0.0540
      9  C         22.6200  -21.3750  -13.2470 C.2     1  UNL1        0.2530
     10  N         21.7490  -21.6490  -12.2140 N.am    1  UNL1       -0.3570
     11  H         22.1140  -22.0830  -11.3760 H       1  UNL1        0.1620
     12  O         22.3630  -20.6260  -14.1850 O.2     1  UNL1       -0.2680
     13  C         20.4560  -20.9990  -12.1270 C.3     1  UNL1        0.1230
     14  C         19.5100  -21.7570  -11.1980 C.3     1  UNL1        0.0190
     15  C         18.0480  -21.3340  -11.3500 C.3     1  UNL1       -0.0030
     16  C         17.1360  -21.9100  -10.2780 C.3     1  UNL1        0.0050
     17  S         23.4630  -22.8070   -9.5780 S.O2    1  UNL1        0.2450
     18  O         24.4070  -23.7240   -8.9750 O.2     1  UNL1       -0.2060
     19  O         23.6830  -21.3760   -9.5530 O.2     1  UNL1       -0.2060
     20  C         21.8780  -23.1520   -8.8540 C.2     1  UNL1        0.0750
     21  C         21.2180  -24.3340   -9.1930 C.2     1  UNL1        0.0260
     22  C         19.9710  -24.6070   -8.6300 C.2     1  UNL1        0.0140
     23  C         19.3800  -23.7090   -7.7250 C.2     1  UNL1       -0.0260
     24  C         18.1240  -23.9700   -7.1550 C.2     1  UNL1        0.0120
     25  C         20.0620  -22.5180   -7.3770 C.2     1  UNL1       -0.0250
     26  C         17.5480  -23.0720   -6.2540 C.2     1  UNL1        0.0010
     27  C         18.2200  -21.9030   -5.9120 C.2     1  UNL1        0.0010
     28  C         19.4700  -21.6260   -6.4690 C.2     1  UNL1        0.0120
     29  C         21.3170  -22.2510   -7.9440 C.2     1  UNL1        0.0370
@<TRIPOS>BOND
     1    12     9    2
     2     7     6    2
     3     7     8    1
     4     6     5    1
     5     9     8    1
     6     9    10   am
     7     8     3    2
     8     5     4    2
     9    10    13    1
    10    10    11    1
    11    13    14    1
    12     3     4    1
    13     3     1    1
    14    15    14    1
    15    15    16    1
    16     1     2    1
    17     1    17    1
    18    17    19    2
    19    17    18    2
    20    17    20    1
    21    21    20    2
    22    21    22    1
    23    20    29    1
    24    22    23    2
    25    29    25    2
    26    23    25    1
    27    23    24    1
    28    25    28    1
    29    24    26    2
    30    28    27    2
    31    26    27    1
