@<TRIPOS>MOLECULE
1134_out_ligand_01.pdbqt
 32 34 0 0 0
SMALL
GASTEIGER

@<TRIPOS>ATOM
      1  C         15.4990  -22.2810   -9.5500 C.3     1  UNL1        0.0500
      2  C         16.9010  -22.1340  -10.0720 C.2     1  UNL1       -0.0390
      3  C         17.0890  -21.4220  -11.2700 C.2     1  UNL1        0.0090
      4  C         18.3630  -21.2490  -11.8190 C.2     1  UNL1        0.0170
      5  C         19.4790  -21.7930  -11.1780 C.2     1  UNL1        0.0330
      6  C         19.3100  -22.5400  -10.0080 C.2     1  UNL1        0.0420
      7  C         18.0310  -22.6990   -9.4480 C.2     1  UNL1        0.0860
      8  C         20.8580  -21.6230  -11.7210 C.2     1  UNL1        0.2560
      9  O         21.0460  -20.7410  -12.5500 O.2     1  UNL1       -0.2670
     10  N         21.7870  -22.5290  -11.2400 N.am    1  UNL1       -0.3220
     11  H         21.4150  -23.2710  -10.6540 H       1  UNL1        0.1690
     12  C         23.1690  -22.6140  -11.5510 C.2     1  UNL1        0.0500
     13  C         23.6680  -22.2410  -12.8060 C.2     1  UNL1        0.0300
     14  C         25.0310  -22.3320  -13.1040 C.2     1  UNL1        0.0020
     15  C         25.9260  -22.7950  -12.1480 C.2     1  UNL1        0.0010
     16  C         25.4530  -23.1630  -10.8930 C.2     1  UNL1        0.0180
     17  C         24.0780  -23.0790  -10.5760 C.2     1  UNL1        0.0740
     18  C         23.6790  -23.4700   -9.1770 C.3     1  UNL1        0.4190
     19  F         23.3560  -22.3930   -8.4070 F       1  UNL1       -0.1660
     20  F         24.6690  -24.1240   -8.5050 F       1  UNL1       -0.1660
     21  F         22.5910  -24.2980   -9.1170 F       1  UNL1       -0.1660
     22  S         17.9170  -23.6450   -7.9310 S.O2    1  UNL1        0.2630
     23  O         19.1850  -24.3050   -7.7090 O.2     1  UNL1       -0.2000
     24  O         16.6880  -24.4090   -7.9620 O.2     1  UNL1       -0.2000
     25  N         17.7070  -22.4510   -6.7560 N.pl3   1  UNL1       -0.2810
     26  H         18.4790  -21.7890   -6.7300 H       1  UNL1        0.1790
     27  C         17.0470  -22.7700   -5.5370 C.2     1  UNL1        0.0420
     28  C         15.7230  -22.3920   -5.3110 C.2     1  UNL1        0.0300
     29  C         15.0880  -22.7520   -4.1220 C.2     1  UNL1        0.0020
     30  C         15.7790  -23.4810   -3.1550 C.2     1  UNL1        0.0000
     31  C         17.1050  -23.8500   -3.3740 C.2     1  UNL1        0.0020
     32  C         17.7410  -23.4930   -4.5660 C.2     1  UNL1        0.0300
@<TRIPOS>BOND
     1    14    13    1
     2    14    15    2
     3    13    12    2
     4     9     8    2
     5    15    16    1
     6     4     3    1
     7     4     5    2
     8     8    10   am
     9     8     5    1
    10    12    10    1
    11    12    17    1
    12     3     2    2
    13    10    11    1
    14     5     6    1
    15    16    17    2
    16    17    18    1
    17     2     1    1
    18     2     7    1
    19     6     7    2
    20     7    22    1
    21    18    21    1
    22    18    20    1
    23    18    19    1
    24    24    22    2
    25    22    23    2
    26    22    25    1
    27    25    26    1
    28    25    27    1
    29    27    28    2
    30    27    32    1
    31    28    29    1
    32    32    31    2
    33    29    30    2
    34    31    30    1
