@<TRIPOS>MOLECULE
11746_out_ligand_01.pdbqt
 34 37 0 0 0
SMALL
GASTEIGER

@<TRIPOS>ATOM
      1  C         21.9230  -21.7900  -12.0760 C.2     1  UNL1        0.0470
      2  C         20.7790  -21.2170  -12.6580 C.2     1  UNL1        0.0300
      3  C         19.5590  -21.1470  -11.9700 C.2     1  UNL1        0.0040
      4  C         19.4510  -21.6580  -10.6820 C.2     1  UNL1        0.0250
      5  C         20.5710  -22.2430  -10.0940 C.2     1  UNL1        0.0770
      6  C         21.7970  -22.2950  -10.7710 C.2     1  UNL1        0.0550
      7  N         23.1890  -21.8660  -12.7810 N.am    1  UNL1       -0.2440
      8  C         24.1700  -22.7410  -12.2840 C.2     1  UNL1        0.2680
      9  C         25.5430  -22.5030  -12.8250 C.2     1  UNL1        0.0660
     10  O         23.9580  -23.6980  -11.5400 O.2     1  UNL1       -0.2670
     11  C         26.6000  -22.6270  -12.0040 C.2     1  UNL1        0.1520
     12  C         25.6680  -22.0740  -14.2180 C.2     1  UNL1       -0.0030
     13  C         26.7940  -22.3340  -15.0160 C.2     1  UNL1        0.0130
     14  C         24.5860  -21.3920  -14.7740 C.2     1  UNL1        0.0440
     15  C         26.8420  -21.8920  -16.3400 C.2     1  UNL1        0.0010
     16  C         25.7690  -21.1920  -16.8830 C.2     1  UNL1        0.0010
     17  C         24.6410  -20.9410  -16.1020 C.2     1  UNL1        0.0180
     18  C         23.3750  -21.1160  -13.9590 C.2     1  UNL1        0.2660
     19  O         22.6320  -20.2250  -14.3700 O.2     1  UNL1       -0.2670
     20  O         26.5010  -22.9120  -10.6680 O.2     1  UNL1       -0.3620
     21  C         27.1210  -24.1460  -10.2940 C.3     1  UNL1        0.1700
     22  C         26.5700  -24.6300   -8.9640 C.3     1  UNL1        0.0340
     23  S         20.4680  -22.9060   -8.4490 S.O2    1  UNL1        0.2460
     24  O         21.3800  -22.1610   -7.6060 O.2     1  UNL1       -0.2060
     25  O         20.5610  -24.3470   -8.5540 O.2     1  UNL1       -0.2060
     26  N         18.8740  -22.5520   -7.9960 N.pl3   1  UNL1       -0.1780
     27  H         18.5350  -21.7360   -8.5120 H       1  UNL1        0.1460
     28  C         18.5610  -22.5480   -6.5990 C.2     1  UNL1        0.0610
     29  C         18.7840  -21.4180   -5.8120 C.2     1  UNL1        0.0270
     30  C         18.4360  -21.4320   -4.4580 C.2     1  UNL1        0.0020
     31  C         17.8650  -22.5730   -3.8890 C.2     1  UNL1        0.0030
     32  C         17.6440  -23.7060   -4.6720 C.2     1  UNL1        0.0440
     33  C         17.9940  -23.6860   -6.0170 C.2     1  UNL1        0.1380
     34  F         17.7810  -24.7770   -6.7660 F       1  UNL1       -0.2040
@<TRIPOS>BOND
     1    16    15    2
     2    16    17    1
     3    15    13    1
     4    17    14    2
     5    13    12    2
     6    14    12    1
     7    14    18    1
     8    19    18    2
     9    12     9    1
    10    18     7   am
    11     9     8    1
    12     9    11    2
    13     7     8   am
    14     7     1    1
    15     2     1    2
    16     2     3    1
    17     8    10    2
    18     1     6    1
    19    11    20    1
    20     3     4    2
    21     6     5    2
    22     4     5    1
    23    20    21    1
    24    21    22    1
    25     5    23    1
    26    25    23    2
    27    27    26    1
    28    23    26    1
    29    23    24    2
    30    26    28    1
    31    34    33    1
    32    28    33    2
    33    28    29    1
    34    33    32    1
    35    29    30    2
    36    32    31    2
    37    30    31    1
