@<TRIPOS>MOLECULE
11868_out_ligand_01.pdbqt
 37 40 0 0 0
SMALL
GASTEIGER

@<TRIPOS>ATOM
      1  C         22.6530  -23.6440   -9.5790 C.3     1  UNL1        0.1640
      2  C         23.7520  -22.6040   -9.4050 C.3     1  UNL1        0.1250
      3  C         24.7060  -22.5940  -10.5900 C.2     1  UNL1        0.2230
      4  N         24.2440  -21.7870  -11.6230 N.am    1  UNL1       -0.3270
      5  H         23.3680  -21.3050  -11.4550 H       1  UNL1        0.1690
      6  O         25.7110  -23.3000  -10.6140 O.2     1  UNL1       -0.2730
      7  C         24.8460  -21.5450  -12.8730 C.2     1  UNL1        0.0350
      8  C         24.6540  -22.3290  -14.0110 C.2     1  UNL1        0.0490
      9  C         25.2800  -21.9910  -15.2280 C.2     1  UNL1        0.0670
     10  C         26.1240  -20.8640  -15.3060 C.2     1  UNL1        0.0840
     11  C         26.3210  -20.0920  -14.1590 C.2     1  UNL1        0.0400
     12  C         25.6970  -20.4360  -12.9540 C.2     1  UNL1        0.0320
     13  C         25.0430  -22.9000  -16.3890 C.2     1  UNL1        0.2540
     14  N         23.7700  -22.8910  -16.9220 N.am    1  UNL1       -0.3610
     15  C         23.4510  -23.5600  -18.1530 C.3     1  UNL1        0.1490
     16  H         23.1530  -22.1570  -16.6000 H       1  UNL1        0.1620
     17  O         25.9520  -23.5990  -16.8200 O.2     1  UNL1       -0.2680
     18  O         26.6960  -20.5750  -16.5190 O.2     1  UNL1       -0.3550
     19  C         26.2240  -19.4200  -17.2070 C.3     1  UNL1        0.2100
     20  N         21.2900  -23.1110   -9.5580 N.ar    1  UNL1       -0.2330
     21  N         20.5860  -23.2230   -8.3870 N.ar    1  UNL1       -0.1680
     22  C         19.3500  -22.8290   -8.3440 C.ar    1  UNL1        0.0980
     23  C         18.6410  -22.2610   -9.5100 C.ar    1  UNL1        0.0110
     24  C         17.2860  -21.9030   -9.4910 C.2     1  UNL1        0.0150
     25  C         19.3780  -22.0960  -10.6780 C.ar    1  UNL1        0.0460
     26  C         16.6880  -21.3570  -10.6320 C.2     1  UNL1        0.0010
     27  C         17.4330  -21.1800  -11.7970 C.2     1  UNL1        0.0010
     28  C         18.7780  -21.5500  -11.8230 C.2     1  UNL1        0.0180
     29  C         20.7890  -22.5200  -10.7150 C.ar    1  UNL1        0.2740
     30  O         21.4480  -22.3420  -11.7370 O.2     1  UNL1       -0.2660
     31  C         18.6610  -22.9750   -7.0420 C.2     1  UNL1       -0.0050
     32  C         17.9510  -24.1490   -6.7780 C.2     1  UNL1        0.0140
     33  C         17.3130  -24.3040   -5.5440 C.2     1  UNL1        0.0070
     34  C         17.4010  -23.3010   -4.5660 C.2     1  UNL1       -0.0620
     35  C         16.6810  -23.4630   -3.2580 C.3     1  UNL1        0.0480
     36  C         18.1310  -22.1340   -4.8430 C.2     1  UNL1        0.0070
     37  C         18.7700  -21.9720   -6.0740 C.2     1  UNL1        0.0140
@<TRIPOS>BOND
     1    15    14    1
     2    19    18    1
     3    14    16    1
     4    14    13   am
     5    17    13    2
     6    18    10    1
     7    13     9    1
     8    10     9    2
     9    10    11    1
    10     9     8    1
    11    11    12    2
    12     8     7    2
    13    12     7    1
    14     7     4    1
    15    28    27    2
    16    28    25    1
    17    27    26    1
    18    30    29    2
    19     4     5    1
    20     4     3   am
    21    29    25   ar
    22    29    20   ar
    23    25    23   ar
    24    26    24    2
    25     6     3    2
    26     3     2    1
    27     1    20    1
    28     1     2    1
    29    20    21   ar
    30    23    24    1
    31    23    22   ar
    32    21    22   ar
    33    22    31    1
    34    31    32    2
    35    31    37    1
    36    32    33    1
    37    37    36    2
    38    33    34    2
    39    36    34    1
    40    34    35    1
