@<TRIPOS>MOLECULE
12302_out_ligand_01.pdbqt
 35 39 0 0 0
SMALL
GASTEIGER

@<TRIPOS>ATOM
      1  C         20.1760  -22.2850  -10.0480 C.3     1  UNL1        0.0500
      2  C         21.3360  -22.2500  -10.7340 C.ar    1  UNL1        0.0830
      3  C         21.6150  -21.5780  -12.0480 C.ar    1  UNL1        0.1620
      4  N         20.8310  -20.6900  -12.5860 N.pl3   1  UNL1       -0.2810
      5  N         22.8030  -21.9360  -12.6540 N.ar    1  UNL1       -0.1880
      6  N         23.1700  -21.4690  -13.9010 N.ar    1  UNL1       -0.1380
      7  C         24.3230  -21.9750  -14.2450 C.ar    1  UNL1        0.1920
      8  S         25.0560  -23.0700  -13.0570 S.2     1  UNL1       -0.0100
      9  C         23.6820  -22.7760  -12.0290 C.ar    1  UNL1        0.2020
     10  N         23.5910  -23.3040  -10.8610 N.ar    1  UNL1       -0.1820
     11  C         22.4840  -23.0080  -10.0900 C.ar    1  UNL1        0.2830
     12  O         22.4220  -23.3550   -8.9140 O.2     1  UNL1       -0.2650
     13  H         21.2830  -20.4050  -13.4670 H       1  UNL1        0.1880
     14  C         18.9300  -21.7530  -10.4710 C.2     1  UNL1        0.0350
     15  C         18.5950  -20.6470  -11.2310 C.2     1  UNL1        0.0310
     16  C         17.1920  -20.6400  -11.4090 C.2     1  UNL1        0.0190
     17  C         16.6960  -21.7440  -10.7580 C.2     1  UNL1        0.0910
     18  N         17.7510  -22.4180  -10.1880 N.pl3   1  UNL1       -0.3550
     19  C         17.5810  -23.6090   -9.3610 C.3     1  UNL1        0.1550
     20  C         16.2390  -23.6320   -8.6340 C.3     1  UNL1        0.1960
     21  O         16.3890  -24.3430   -7.4030 O.2     1  UNL1       -0.3500
     22  C         16.8290  -23.6290   -6.3210 C.2     1  UNL1        0.0690
     23  C         16.3050  -23.6850   -5.0330 C.2     1  UNL1        0.0370
     24  C         16.8560  -22.8970   -4.0180 C.2     1  UNL1        0.0100
     25  C         17.9390  -22.0420   -4.2730 C.2     1  UNL1       -0.0560
     26  C         18.5020  -21.2100   -3.1530 C.3     1  UNL1        0.0490
     27  C         18.4760  -21.9860   -5.5720 C.2     1  UNL1       -0.0530
     28  C         17.9090  -22.7830   -6.5810 C.2     1  UNL1        0.0440
     29  C         19.6350  -21.0890   -5.9070 C.3     1  UNL1        0.0490
     30  N         24.9690  -21.7210  -15.4410 N.pl3   1  UNL1       -0.3590
     31  C         25.7800  -20.5040  -15.5830 C.3     1  UNL1        0.1250
     32  C         25.6380  -19.9290  -16.9880 C.3     1  UNL1        0.0200
     33  C         26.0930  -20.9140  -18.0600 C.3     1  UNL1        0.0030
     34  C         26.0310  -22.3610  -17.5850 C.3     1  UNL1        0.0200
     35  C         24.8780  -22.5970  -16.6140 C.3     1  UNL1        0.1250
@<TRIPOS>BOND
     1    33    34    1
     2    33    32    1
     3    34    35    1
     4    32    31    1
     5    35    30    1
     6    31    30    1
     7    30     7    1
     8     7     6   ar
     9     7     8   ar
    10     6     5   ar
    11    13     4    1
    12     8     9   ar
    13     5     3   ar
    14     5     9   ar
    15     4     3    1
    16     3     2   ar
    17     9    10   ar
    18    16    15    1
    19    16    17    2
    20    15    14    2
    21    10    11   ar
    22    17    18    1
    23     2    11   ar
    24     2     1    1
    25    14    18    1
    26    14     1    1
    27    18    19    1
    28    11    12    2
    29    19    20    1
    30    20    21    1
    31    21    22    1
    32    28    22    2
    33    28    27    1
    34    22    23    1
    35    29    27    1
    36    27    25    2
    37    23    24    2
    38    25    24    1
    39    25    26    1
