@<TRIPOS>MOLECULE
12447_out_ligand_01.pdbqt
 36 39 0 0 0
SMALL
GASTEIGER

@<TRIPOS>ATOM
      1  C         18.1110  -23.2630  -10.3680 C.3     1  UNL1        0.1930
      2  C         18.8600  -22.1350  -10.9870 C.2     1  UNL1        0.0720
      3  C         18.5980  -20.7890  -11.1280 C.2     1  UNL1        0.0370
      4  C         19.6980  -20.2410  -11.8330 C.2     1  UNL1        0.0450
      5  C         20.5720  -21.2840  -12.0960 C.2     1  UNL1        0.1430
      6  O         20.0550  -22.4370  -11.5650 O.2     1  UNL1       -0.3080
      7  C         21.8470  -21.3760  -12.7870 C.2     1  UNL1        0.2750
      8  O         22.0630  -20.8590  -13.8810 O.2     1  UNL1       -0.2650
      9  N         22.8180  -22.1090  -12.1300 N.am    1  UNL1       -0.3510
     10  H         22.5900  -22.6030  -11.2820 H       1  UNL1        0.1630
     11  C         24.1180  -22.3550  -12.7170 C.3     1  UNL1        0.1640
     12  C         25.1160  -21.2500  -12.4930 C.2     1  UNL1       -0.0020
     13  C         25.6790  -20.9430  -11.2460 C.2     1  UNL1        0.0120
     14  C         26.6250  -19.9190  -11.1240 C.2     1  UNL1        0.0010
     15  C         27.0300  -19.1950  -12.2490 C.2     1  UNL1        0.0030
     16  C         26.4890  -19.5000  -13.4930 C.2     1  UNL1        0.0430
     17  C         25.5420  -20.5160  -13.6030 C.2     1  UNL1        0.1240
     18  F         25.0300  -20.7820  -14.8190 F       1  UNL1       -0.2050
     19  N         18.4780  -23.3990   -8.9610 N.am    1  UNL1       -0.3240
     20  C         17.5120  -23.0480   -8.0140 C.2     1  UNL1        0.3230
     21  O         16.4000  -22.6470   -8.3510 O.2     1  UNL1       -0.2470
     22  N         17.9260  -23.1760   -6.7060 N.am    1  UNL1       -0.3090
     23  H         18.9200  -23.0810   -6.5630 H       1  UNL1        0.1700
     24  C         19.6160  -24.2780   -8.6650 C.3     1  UNL1        0.1660
     25  C         20.9490  -23.5630   -8.6200 C.2     1  UNL1       -0.0400
     26  C         22.0740  -24.1590   -9.2080 C.2     1  UNL1        0.0090
     27  C         23.3120  -23.5160   -9.1910 C.2     1  UNL1        0.0010
     28  C         23.4370  -22.2620   -8.5980 C.2     1  UNL1        0.0000
     29  C         22.3230  -21.6500   -8.0280 C.2     1  UNL1        0.0010
     30  C         21.0860  -22.2950   -8.0430 C.2     1  UNL1        0.0090
     31  C         17.1340  -23.0820   -5.5430 C.2     1  UNL1        0.0360
     32  C         15.9010  -23.7220   -5.3950 C.2     1  UNL1        0.0290
     33  C         15.1810  -23.5990   -4.2050 C.2     1  UNL1        0.0020
     34  C         15.6880  -22.8400   -3.1530 C.2     1  UNL1        0.0000
     35  C         16.9200  -22.2070   -3.2880 C.2     1  UNL1        0.0020
     36  C         17.6430  -22.3350   -4.4750 C.2     1  UNL1        0.0290
@<TRIPOS>BOND
     1    18    17    1
     2     8     7    2
     3    17    16    1
     4    17    12    2
     5    16    15    2
     6     7     9   am
     7     7     5    1
     8    11    12    1
     9    11     9    1
    10    12    13    1
    11    15    14    1
    12     9    10    1
    13     5     4    2
    14     5     6    1
    15     4     3    1
    16     6     2    1
    17    13    14    2
    18     3     2    2
    19     2     1    1
    20     1    19    1
    21    26    27    1
    22    26    25    2
    23    27    28    2
    24    19    24    1
    25    19    20   am
    26    24    25    1
    27    25    30    1
    28    28    29    1
    29    21    20    2
    30    30    29    2
    31    20    22   am
    32    22    23    1
    33    22    31    1
    34    31    32    2
    35    31    36    1
    36    32    33    1
    37    36    35    2
    38    33    34    2
    39    35    34    1
