@<TRIPOS>MOLECULE
12617_out_ligand_01.pdbqt
 37 40 0 0 0
SMALL
GASTEIGER

@<TRIPOS>ATOM
      1  N         22.0600  -22.8560  -10.6970 N.ar    1  UNL1       -0.2650
      2  C         21.3430  -21.9560  -11.4760 C.ar    1  UNL1        0.2640
      3  O         21.8530  -21.2150  -12.3140 O.2     1  UNL1       -0.2670
      4  C         19.8930  -21.8790  -11.2380 C.ar    1  UNL1        0.0590
      5  C         19.1120  -21.0190  -12.0250 C.2     1  UNL1        0.0190
      6  C         17.7440  -20.9170  -11.7990 C.2     1  UNL1        0.0010
      7  C         17.1620  -21.6660  -10.7830 C.2     1  UNL1        0.0020
      8  C         17.9430  -22.5240  -10.0000 C.2     1  UNL1        0.0310
      9  C         19.3210  -22.6540  -10.2280 C.ar    1  UNL1        0.0550
     10  N         20.1500  -23.5210   -9.4640 N.ar    1  UNL1       -0.2900
     11  C         21.5270  -23.5600   -9.6330 C.ar    1  UNL1        0.3320
     12  O         22.2390  -24.1680   -8.8270 O.2     1  UNL1       -0.2460
     13  C         23.5060  -22.9350  -10.9100 C.3     1  UNL1        0.1460
     14  C         24.2500  -21.8230  -10.1760 C.3     1  UNL1        0.1230
     15  C         25.1960  -21.1010  -11.1080 C.2     1  UNL1        0.2190
     16  O         26.0250  -20.2840  -10.7280 O.2     1  UNL1       -0.2740
     17  N         25.0060  -21.4440  -12.4340 N.am    1  UNL1       -0.3610
     18  H         24.3550  -22.1880  -12.6450 H       1  UNL1        0.1620
     19  C         26.0150  -21.1320  -13.4340 C.3     1  UNL1        0.1270
     20  C         25.4190  -20.4180  -14.6550 C.3     1  UNL1        0.0580
     21  C         25.0490  -21.3500  -15.7860 C.2     1  UNL1       -0.0570
     22  C         24.9640  -20.8790  -17.1030 C.2     1  UNL1        0.0070
     23  C         24.6900  -21.7580  -18.1530 C.2     1  UNL1        0.0010
     24  C         24.4990  -23.1130  -17.8970 C.2     1  UNL1        0.0000
     25  C         24.5700  -23.5910  -16.5890 C.2     1  UNL1        0.0010
     26  C         24.8400  -22.7150  -15.5380 C.2     1  UNL1        0.0070
     27  C         19.5840  -24.3610   -8.4040 C.3     1  UNL1        0.2370
     28  C         18.9710  -23.5210   -7.2800 C.2     1  UNL1        0.2400
     29  O         19.5530  -22.5270   -6.8580 O.2     1  UNL1       -0.2710
     30  N         17.7350  -23.9960   -6.8730 N.am    1  UNL1       -0.3260
     31  H         17.3830  -24.8130   -7.3730 H       1  UNL1        0.1690
     32  C         16.9000  -23.4890   -5.8610 C.2     1  UNL1        0.0340
     33  C         15.6790  -22.9300   -6.2660 C.2     1  UNL1        0.0290
     34  C         14.7910  -22.4040   -5.3260 C.2     1  UNL1        0.0020
     35  C         15.1130  -22.4310   -3.9720 C.2     1  UNL1        0.0000
     36  C         16.3220  -22.9880   -3.5610 C.2     1  UNL1        0.0020
     37  C         17.2130  -23.5140   -4.5020 C.2     1  UNL1        0.0290
@<TRIPOS>BOND
     1    23    24    2
     2    23    22    1
     3    24    25    1
     4    22    21    2
     5    25    26    2
     6    21    26    1
     7    21    20    1
     8    20    19    1
     9    19    17    1
    10    18    17    1
    11    17    15   am
    12     3     2    2
    13     5     6    1
    14     5     4    2
    15     6     7    2
    16     2     4   ar
    17     2     1   ar
    18     4     9   ar
    19    15    16    2
    20    15    14    1
    21    13     1    1
    22    13    14    1
    23     7     8    1
    24     1    11   ar
    25     9     8    2
    26     9    10   ar
    27    11    10   ar
    28    11    12    2
    29    10    27    1
    30    27    28    1
    31    31    30    1
    32    28    30   am
    33    28    29    2
    34    30    32    1
    35    33    32    2
    36    33    34    1
    37    32    37    1
    38    34    35    2
    39    37    36    2
    40    35    36    1
