@<TRIPOS>MOLECULE
13000_out_ligand_01.pdbqt
 32 36 0 0 0
SMALL
GASTEIGER

@<TRIPOS>ATOM
      1  N         19.2630  -23.5050   -8.9160 N.pl3   1  UNL1       -0.2810
      2  C         19.1720  -22.6770   -9.9140 C.ar    1  UNL1        0.1620
      3  C         17.9150  -21.9280  -10.2630 C.ar    1  UNL1        0.0840
      4  C         16.7020  -22.0450   -9.6860 C.3     1  UNL1        0.0580
      5  C         18.0020  -20.8950  -11.3770 C.ar    1  UNL1        0.2830
      6  O         17.0380  -20.1880  -11.6490 O.2     1  UNL1       -0.2650
      7  N         19.1810  -20.7800  -12.0820 N.ar    1  UNL1       -0.1820
      8  C         20.1850  -21.5010  -11.7350 C.ar    1  UNL1        0.2010
      9  S         21.7140  -21.4000  -12.5730 S.2     1  UNL1       -0.0330
     10  C         22.3110  -22.6090  -11.4470 C.ar    1  UNL1        0.1030
     11  N         21.4850  -23.0500  -10.5420 N.ar    1  UNL1       -0.1610
     12  N         20.2640  -22.4150  -10.7180 N.ar    1  UNL1       -0.1890
     13  H         20.2340  -23.8520   -8.9160 H       1  UNL1        0.1880
     14  C         16.3110  -22.9450   -8.6610 C.2     1  UNL1        0.0770
     15  C         15.8180  -24.2430   -8.7130 C.2     1  UNL1        0.0400
     16  C         15.5290  -24.6550   -7.3910 C.2     1  UNL1        0.0470
     17  C         15.8280  -23.5880   -6.5760 C.2     1  UNL1        0.1130
     18  O         16.2790  -22.5540   -7.3400 O.2     1  UNL1       -0.3040
     19  S         15.6710  -23.4910   -4.8430 S.3     1  UNL1       -0.0980
     20  C         17.4130  -23.6300   -4.3460 C.3     1  UNL1        0.1460
     21  C         18.1720  -22.4170   -4.7460 C.2     1  UNL1        0.0620
     22  C         18.3650  -21.1810   -4.1620 C.2     1  UNL1        0.0350
     23  C         19.2070  -20.4520   -5.0360 C.2     1  UNL1        0.0270
     24  C         19.4780  -21.2890   -6.0930 C.2     1  UNL1        0.1420
     25  O         18.8580  -22.4840   -5.9240 O.2     1  UNL1       -0.3260
     26  C         23.7260  -23.0910  -11.5840 C.3     1  UNL1        0.1070
     27  C         24.6780  -21.9610  -11.8870 C.2     1  UNL1       -0.0520
     28  C         25.2850  -21.2490  -10.8430 C.2     1  UNL1        0.0070
     29  C         26.1880  -20.2210  -11.1200 C.2     1  UNL1        0.0010
     30  C         26.4940  -19.8970  -12.4410 C.2     1  UNL1        0.0000
     31  C         25.8990  -20.6020  -13.4850 C.2     1  UNL1        0.0010
     32  C         24.9950  -21.6310  -13.2120 C.2     1  UNL1        0.0070
@<TRIPOS>BOND
     1    31    32    1
     2    31    30    2
     3    32    27    2
     4     9     8   ar
     5     9    10   ar
     6    30    29    1
     7     7     8   ar
     8     7     5   ar
     9    27    26    1
    10    27    28    1
    11     8    12   ar
    12     6     5    2
    13    26    10    1
    14    10    11   ar
    15     5     3   ar
    16    29    28    2
    17    12    11   ar
    18    12     2   ar
    19     3     2   ar
    20     3     4    1
    21     2     1    1
    22     4    14    1
    23    13     1    1
    24    15    14    2
    25    15    16    1
    26    14    18    1
    27    16    17    2
    28    18    17    1
    29    17    19    1
    30    24    25    1
    31    24    23    2
    32    25    21    1
    33    23    22    1
    34    19    20    1
    35    21    20    1
    36    21    22    2
