@<TRIPOS>MOLECULE
13055_out_ligand_01.pdbqt
 39 42 0 0 0
SMALL
GASTEIGER

@<TRIPOS>ATOM
      1  N         22.4220  -22.2930  -11.0450 N.ar    1  UNL1       -0.2650
      2  C         21.4760  -21.6610  -11.8440 C.ar    1  UNL1        0.2640
      3  O         21.7490  -21.0710  -12.8860 O.2     1  UNL1       -0.2670
      4  C         20.0720  -21.7550  -11.4150 C.ar    1  UNL1        0.0590
      5  C         19.0790  -21.0950  -12.1580 C.2     1  UNL1        0.0190
      6  C         17.7440  -21.1880  -11.7750 C.2     1  UNL1        0.0010
      7  C         17.4030  -21.9470  -10.6620 C.2     1  UNL1        0.0020
      8  C         18.3950  -22.6020   -9.9230 C.2     1  UNL1        0.0310
      9  C         19.7490  -22.5020  -10.2830 C.ar    1  UNL1        0.0550
     10  N         20.7880  -23.1390   -9.5530 N.ar    1  UNL1       -0.2900
     11  C         22.1050  -23.1220   -9.9850 C.ar    1  UNL1        0.3320
     12  O         22.9450  -23.8400   -9.4310 O.2     1  UNL1       -0.2460
     13  C         23.8160  -22.2290  -11.4880 C.3     1  UNL1        0.1370
     14  C         24.1770  -23.2120  -12.6080 C.3     1  UNL1        0.0210
     15  C         25.5580  -23.0220  -13.2530 C.3     1  UNL1        0.0110
     16  C         25.6250  -23.1630  -14.7740 C.3     1  UNL1        0.1030
     17  C         25.2310  -21.8950  -15.5140 C.2     1  UNL1        0.2220
     18  N         26.3370  -21.1450  -15.8770 N.am    1  UNL1       -0.3270
     19  H         27.2410  -21.5930  -15.8030 H       1  UNL1        0.1690
     20  O         24.0610  -21.6330  -15.7650 O.2     1  UNL1       -0.2730
     21  C         26.3400  -19.8320  -16.3900 C.2     1  UNL1        0.0340
     22  C         26.0480  -19.5180  -17.7170 C.2     1  UNL1        0.0300
     23  C         26.0140  -18.1840  -18.1410 C.2     1  UNL1        0.0090
     24  C         26.2600  -17.1430  -17.2410 C.2     1  UNL1       -0.0620
     25  C         26.2290  -15.7140  -17.6920 C.3     1  UNL1        0.0480
     26  C         26.5730  -17.4580  -15.9150 C.2     1  UNL1        0.0090
     27  C         26.6050  -18.7910  -15.4930 C.2     1  UNL1        0.0300
     28  C         20.4860  -23.9180   -8.3450 C.3     1  UNL1        0.2370
     29  C         19.6420  -23.1270   -7.3400 C.2     1  UNL1        0.2400
     30  O         20.0520  -22.0560   -6.8970 O.2     1  UNL1       -0.2710
     31  N         18.4740  -23.7770   -6.9850 N.am    1  UNL1       -0.3260
     32  H         18.3440  -24.7070   -7.3830 H       1  UNL1        0.1690
     33  C         17.4540  -23.3230   -6.1290 C.2     1  UNL1        0.0350
     34  C         17.5860  -23.2290   -4.7410 C.2     1  UNL1        0.0320
     35  C         16.5220  -22.7600   -3.9620 C.2     1  UNL1        0.0440
     36  C         15.3350  -22.3790   -4.5730 C.2     1  UNL1        0.1160
     37  F         14.3200  -21.9280   -3.8250 F       1  UNL1       -0.2060
     38  C         15.1870  -22.4580   -5.9520 C.2     1  UNL1        0.0440
     39  C         16.2460  -22.9320   -6.7290 C.2     1  UNL1        0.0320
@<TRIPOS>BOND
     1    23    22    1
     2    23    24    2
     3    22    21    2
     4    25    24    1
     5    24    26    1
     6    21    18    1
     7    21    27    1
     8    26    27    2
     9    18    19    1
    10    18    17   am
    11    20    17    2
    12    17    16    1
    13    16    15    1
    14    15    14    1
    15     3     2    2
    16    14    13    1
    17     5     6    1
    18     5     4    2
    19     2     4   ar
    20     2     1   ar
    21     6     7    2
    22    13     1    1
    23     4     9   ar
    24     1    11   ar
    25     7     8    1
    26     9     8    2
    27     9    10   ar
    28    11    10   ar
    29    11    12    2
    30    10    28    1
    31    28    29    1
    32    32    31    1
    33    29    31   am
    34    29    30    2
    35    31    33    1
    36    39    33    2
    37    39    38    1
    38    33    34    1
    39    38    36    2
    40    34    35    2
    41    36    35    1
    42    36    37    1
