@<TRIPOS>MOLECULE
13444_out_ligand_01.pdbqt
 34 38 0 0 0
SMALL
GASTEIGER

@<TRIPOS>ATOM
      1  C         18.1140  -22.5240   -9.7380 C.2     1  UNL1        0.0320
      2  C         19.3980  -22.9730   -9.4120 C.2     1  UNL1        0.0180
      3  C         20.4820  -22.6510  -10.2390 C.2     1  UNL1        0.0150
      4  C         20.2910  -21.8800  -11.3920 C.2     1  UNL1       -0.0070
      5  C         19.0030  -21.4360  -11.7150 C.2     1  UNL1        0.0150
      6  C         17.9210  -21.7620  -10.8970 C.2     1  UNL1        0.0180
      7  C         21.4060  -21.5540  -12.2680 C.ar    1  UNL1        0.0690
      8  N         21.2820  -20.6940  -13.3170 N.ar    1  UNL1       -0.2760
      9  N         22.3880  -20.5640  -14.0490 N.ar    1  UNL1       -0.1730
     10  H         20.4610  -20.1670  -13.5930 H       1  UNL1        0.1890
     11  C         23.2890  -21.3850  -13.4770 C.ar    1  UNL1        0.0960
     12  C         22.7170  -22.0090  -12.3150 C.ar    1  UNL1        0.0020
     13  C         24.6280  -21.5240  -14.0850 C.2     1  UNL1        0.0010
     14  C         23.3050  -22.9940  -11.3610 C.3     1  UNL1        0.0440
     15  C         24.7980  -23.2370  -11.4900 C.3     1  UNL1        0.0090
     16  C         25.1790  -23.7310  -12.8790 C.3     1  UNL1        0.0400
     17  C         25.5000  -22.6030  -13.8290 C.2     1  UNL1       -0.0450
     18  C         26.7370  -22.6660  -14.5100 C.2     1  UNL1        0.0080
     19  C         27.1210  -21.6800  -15.4150 C.2     1  UNL1        0.0010
     20  C         26.2750  -20.6080  -15.6600 C.2     1  UNL1        0.0010
     21  C         25.0450  -20.5350  -15.0040 C.2     1  UNL1        0.0140
     22  C         16.9200  -22.8550   -8.9150 C.2     1  UNL1        0.2510
     23  N         17.0680  -23.8710   -7.9940 N.am    1  UNL1       -0.3530
     24  H         17.9850  -24.2400   -7.7950 H       1  UNL1        0.1630
     25  O         15.8890  -22.2050   -9.0560 O.2     1  UNL1       -0.2680
     26  C         16.0200  -24.1740   -7.0400 C.3     1  UNL1        0.1610
     27  C         16.2540  -23.5760   -5.6720 C.2     1  UNL1       -0.0380
     28  C         15.5280  -23.9580   -4.5350 C.2     1  UNL1        0.0090
     29  C         15.8080  -23.3890   -3.2920 C.2     1  UNL1        0.0030
     30  C         16.8300  -22.4440   -3.1600 C.2     1  UNL1        0.0370
     31  C         17.5840  -22.0720   -4.2700 C.2     1  UNL1        0.0680
     32  C         17.2920  -22.6380   -5.5150 C.2     1  UNL1        0.0450
     33  O         18.6280  -21.1900   -4.2740 O.2     1  UNL1       -0.3560
     34  C         19.2220  -20.9030   -5.5340 C.3     1  UNL1        0.2100
@<TRIPOS>BOND
     1    20    19    2
     2    20    21    1
     3    19    18    1
     4    21    13    2
     5    18    17    2
     6    13    17    1
     7    13    11    1
     8     9    11   ar
     9     9     8   ar
    10    17    16    1
    11    10     8    1
    12    11    12   ar
    13     8     7   ar
    14    16    15    1
    15    12     7   ar
    16    12    14    1
    17     7     4    1
    18     5     4    2
    19     5     6    1
    20    15    14    1
    21     4     3    1
    22     6     1    2
    23     3     2    2
    24     1     2    1
    25     1    22    1
    26    25    22    2
    27    22    23   am
    28    23    24    1
    29    23    26    1
    30    26    27    1
    31    27    32    2
    32    27    28    1
    33    34    33    1
    34    32    31    1
    35    28    29    2
    36    33    31    1
    37    31    30    2
    38    29    30    1
