@<TRIPOS>MOLECULE
13694_out_ligand_01.pdbqt
 35 38 0 0 0
SMALL
GASTEIGER

@<TRIPOS>ATOM
      1  C         22.0580  -22.8270  -10.6440 C.2     1  UNL1        0.0320
      2  C         22.0730  -23.6810   -9.5380 C.2     1  UNL1        0.0180
      3  C         20.9460  -23.7890   -8.7210 C.2     1  UNL1        0.0150
      4  C         19.8130  -23.0350   -9.0140 C.2     1  UNL1       -0.0050
      5  C         19.7910  -22.1700  -10.1080 C.2     1  UNL1        0.0150
      6  C         20.9170  -22.0670  -10.9280 C.2     1  UNL1        0.0180
      7  C         23.2990  -22.6600  -11.4470 C.2     1  UNL1        0.2560
      8  N         23.1000  -22.1550  -12.7160 N.am    1  UNL1       -0.3230
      9  H         22.1500  -22.1510  -13.0660 H       1  UNL1        0.1690
     10  O         24.3690  -22.9810  -10.9450 O.2     1  UNL1       -0.2670
     11  C         24.0860  -21.6500  -13.5840 C.2     1  UNL1        0.0360
     12  C         24.9900  -20.6520  -13.2250 C.2     1  UNL1        0.0320
     13  C         25.8680  -20.1090  -14.1710 C.2     1  UNL1        0.0400
     14  C         25.8630  -20.5610  -15.4940 C.2     1  UNL1        0.0840
     15  C         24.9730  -21.5840  -15.8410 C.2     1  UNL1        0.0670
     16  C         24.0970  -22.1310  -14.8930 C.2     1  UNL1        0.0490
     17  O         26.6510  -20.0470  -16.4860 O.2     1  UNL1       -0.3550
     18  C         26.4180  -18.6780  -16.8580 C.3     1  UNL1        0.2100
     19  C         24.9010  -22.1310  -17.2110 C.2     1  UNL1        0.2520
     20  N         24.2680  -21.3470  -18.1520 N.am    1  UNL1       -0.3660
     21  H         24.2250  -20.3590  -17.9930 H       1  UNL1        0.1590
     22  H         24.3710  -21.6550  -19.1080 H       1  UNL1        0.1590
     23  O         25.3230  -23.2590  -17.4640 O.2     1  UNL1       -0.2680
     24  C         18.6540  -23.0740   -8.0980 C.ar    1  UNL1        0.0980
     25  N         17.6500  -23.8050   -8.4700 N.ar    1  UNL1       -0.1690
     26  N         16.5470  -23.8900   -7.6610 N.ar    1  UNL1       -0.2380
     27  C         15.5000  -24.7930   -8.1070 C.3     1  UNL1        0.1830
     28  C         16.4450  -23.2900   -6.4110 C.ar    1  UNL1        0.2740
     29  O         15.4880  -23.4370   -5.6540 O.2     1  UNL1       -0.2660
     30  C         17.5740  -22.4320   -6.0010 C.ar    1  UNL1        0.0460
     31  C         17.5280  -21.7410   -4.7810 C.2     1  UNL1        0.0180
     32  C         18.6820  -22.3120   -6.8330 C.ar    1  UNL1        0.0110
     33  C         18.5950  -20.9300   -4.4010 C.2     1  UNL1        0.0010
     34  C         19.7050  -20.8080   -5.2340 C.2     1  UNL1        0.0010
     35  C         19.7530  -21.4980   -6.4500 C.2     1  UNL1        0.0150
@<TRIPOS>BOND
     1    22    20    1
     2    20    21    1
     3    20    19   am
     4    23    19    2
     5    19    15    1
     6    18    17    1
     7    17    14    1
     8    15    14    2
     9    15    16    1
    10    14    13    1
    11    16    11    2
    12    13    12    2
    13    11    12    1
    14    11     8    1
    15     9     8    1
    16     8     7   am
    17     7    10    2
    18     7     1    1
    19     6     1    2
    20     6     5    1
    21     1     2    1
    22     5     4    2
    23     2     3    2
    24     4     3    1
    25     4    24    1
    26    25    24   ar
    27    25    26   ar
    28    27    26    1
    29    24    32   ar
    30    26    28   ar
    31    32    35    1
    32    32    30   ar
    33    35    34    2
    34    28    30   ar
    35    28    29    2
    36    30    31    1
    37    34    33    1
    38    31    33    2
