@<TRIPOS>MOLECULE
1429_out_ligand_01.pdbqt
 39 43 0 0 0
SMALL
GASTEIGER

@<TRIPOS>ATOM
      1  C         16.8330  -23.3850   -8.6830 C.2     1  UNL1        0.0800
      2  C         15.9370  -22.6650   -9.4830 C.2     1  UNL1        0.0280
      3  C         16.4010  -21.8980  -10.5560 C.2     1  UNL1        0.0400
      4  C         17.7780  -21.8910  -10.7690 C.ar    1  UNL1        0.0870
      5  O         18.4160  -21.2120  -11.7630 O.2     1  UNL1       -0.3090
      6  C         19.7460  -21.4650  -11.6300 C.ar    1  UNL1        0.0870
      7  C         20.7470  -20.9570  -12.4570 C.2     1  UNL1        0.0400
      8  C         22.0600  -21.3310  -12.1570 C.2     1  UNL1        0.0280
      9  C         22.3290  -22.1700  -11.0680 C.2     1  UNL1        0.0800
     10  C         21.3020  -22.6830  -10.2570 C.2     1  UNL1        0.0400
     11  C         19.9780  -22.3080  -10.5480 C.ar    1  UNL1        0.0120
     12  C         18.6970  -22.5850   -9.9880 C.ar    1  UNL1        0.0120
     13  C         18.2200  -23.3470   -8.9050 C.2     1  UNL1        0.0400
     14  S         16.2040  -24.3420   -7.3210 S.O2    1  UNL1        0.2630
     15  O         17.3390  -24.9670   -6.6760 O.2     1  UNL1       -0.2000
     16  O         15.0850  -25.1320   -7.7860 O.2     1  UNL1       -0.2000
     17  N         15.6580  -23.1480   -6.2530 N.pl3   1  UNL1       -0.2810
     18  H         15.0090  -22.5200   -6.7280 H       1  UNL1        0.1790
     19  C         16.6110  -22.5500   -5.3830 C.2     1  UNL1        0.0450
     20  C         16.4800  -22.7090   -4.0060 C.2     1  UNL1        0.0300
     21  C         17.4360  -22.1600   -3.1530 C.2     1  UNL1        0.0050
     22  C         18.5240  -21.4550   -3.6780 C.2     1  UNL1        0.0370
     23  C         18.6600  -21.3010   -5.0580 C.2     1  UNL1        0.0700
     24  C         17.6990  -21.8540   -5.9090 C.2     1  UNL1        0.0660
     25  O         19.6730  -20.6380   -5.6960 O.2     1  UNL1       -0.3560
     26  C         20.4820  -21.3980   -6.5840 C.3     1  UNL1        0.2100
     27  S         24.0090  -22.6380  -10.7200 S.O2    1  UNL1        0.2630
     28  O         24.8590  -21.4800  -10.8970 O.2     1  UNL1       -0.2000
     29  O         24.0100  -23.3740   -9.4730 O.2     1  UNL1       -0.2000
     30  N         24.3240  -23.7670  -11.9300 N.pl3   1  UNL1       -0.2810
     31  H         24.5410  -24.6920  -11.5600 H       1  UNL1        0.1790
     32  C         24.9950  -23.3390  -13.1060 C.2     1  UNL1        0.0450
     33  C         26.3710  -23.5360  -13.1950 C.2     1  UNL1        0.0300
     34  C         27.0540  -23.1280  -14.3390 C.2     1  UNL1        0.0050
     35  C         26.3530  -22.5240  -15.3830 C.2     1  UNL1        0.0370
     36  C         24.9710  -22.3220  -15.2960 C.2     1  UNL1        0.0700
     37  C         24.2930  -22.7230  -14.1440 C.2     1  UNL1        0.0660
     38  O         24.4120  -21.7260  -16.3920 O.2     1  UNL1       -0.3560
     39  C         25.1040  -20.6080  -16.9380 C.3     1  UNL1        0.2100
@<TRIPOS>BOND
     1    39    38    1
     2    38    36    1
     3    35    36    2
     4    35    34    1
     5    36    37    1
     6    34    33    2
     7    37    32    2
     8    33    32    1
     9    32    30    1
    10     7     8    1
    11     7     6    2
    12     8     9    2
    13    30    31    1
    14    30    27    1
    15     5     6   ar
    16     5     4   ar
    17     6    11   ar
    18     9    27    1
    19     9    10    1
    20    28    27    2
    21     4     3    2
    22     4    12   ar
    23    27    29    2
    24     3     2    1
    25    11    10    2
    26    11    12   ar
    27    12    13    2
    28     2     1    2
    29    13     1    1
    30     1    14    1
    31    16    14    2
    32    14    15    2
    33    14    17    1
    34    18    17    1
    35    26    25    1
    36    17    19    1
    37    24    19    2
    38    24    23    1
    39    25    23    1
    40    19    20    1
    41    23    22    2
    42    20    21    2
    43    22    21    1
