@<TRIPOS>MOLECULE
14386_out_ligand_01.pdbqt
 40 43 0 0 0
SMALL
GASTEIGER

@<TRIPOS>ATOM
      1  C         20.1730  -23.6800   -9.1750 C.ar    1  UNL1        0.1610
      2  N         21.4540  -24.0070   -8.9070 N.ar    1  UNL1       -0.1310
      3  N         22.4910  -23.4100   -9.5680 N.ar    1  UNL1       -0.1470
      4  C         22.2480  -22.4750  -10.5120 C.ar    1  UNL1        0.1000
      5  C         20.9390  -22.0550  -10.8170 C.ar    1  UNL1        0.0090
      6  C         20.6390  -21.0350  -11.7570 C.2     1  UNL1        0.0150
      7  C         19.3270  -20.6440  -12.0240 C.2     1  UNL1        0.0010
      8  C         18.2800  -21.2530  -11.3500 C.2     1  UNL1        0.0010
      9  C         18.5480  -22.2500  -10.4120 C.2     1  UNL1        0.0160
     10  C         19.8710  -22.6770  -10.1270 C.ar    1  UNL1        0.0240
     11  N         19.1100  -24.3470   -8.5080 N.pl3   1  UNL1       -0.3390
     12  H         19.3600  -25.3270   -8.4050 H       1  UNL1        0.1670
     13  C         18.3480  -23.8920   -7.4090 C.2     1  UNL1        0.0340
     14  C         17.2090  -24.5520   -6.9490 C.2     1  UNL1        0.0320
     15  C         16.5170  -24.1040   -5.8160 C.2     1  UNL1        0.0400
     16  C         16.9620  -22.9920   -5.0920 C.2     1  UNL1        0.0840
     17  C         18.1360  -22.3390   -5.5150 C.2     1  UNL1        0.0670
     18  C         18.8170  -22.8070   -6.6590 C.2     1  UNL1        0.0490
     19  O         16.3190  -22.5120   -3.9780 O.2     1  UNL1       -0.3550
     20  C         14.9360  -22.1900   -4.0950 C.3     1  UNL1        0.2100
     21  C         18.7500  -21.1530   -4.8370 C.2     1  UNL1        0.2520
     22  N         18.6320  -21.0420   -3.4840 N.am    1  UNL1       -0.3660
     23  H         19.0340  -20.2380   -3.0250 H       1  UNL1        0.1590
     24  H         18.1370  -21.7380   -2.9400 H       1  UNL1        0.1590
     25  O         19.3470  -20.2880   -5.4700 O.2     1  UNL1       -0.2680
     26  C         23.4640  -21.9620  -11.1620 C.2     1  UNL1       -0.0030
     27  C         24.5040  -21.4150  -10.4010 C.2     1  UNL1        0.0140
     28  C         25.6680  -20.9330  -11.0100 C.2     1  UNL1        0.0090
     29  C         25.8370  -20.9820  -12.4030 C.2     1  UNL1       -0.0390
     30  C         27.1210  -20.4540  -12.9780 C.3     1  UNL1        0.0500
     31  C         24.7990  -21.5340  -13.1740 C.2     1  UNL1        0.0860
     32  C         23.6350  -22.0300  -12.5520 C.2     1  UNL1        0.0390
     33  S         24.8450  -21.6740  -14.9530 S.O2    1  UNL1        0.2590
     34  O         23.5250  -22.0760  -15.3880 O.2     1  UNL1       -0.2010
     35  O         26.0280  -22.3770  -15.3900 O.2     1  UNL1       -0.2010
     36  N         25.0070  -20.0660  -15.4070 N.3     1  UNL1       -0.3110
     37  H         24.1420  -19.5320  -15.3500 H       1  UNL1        0.1720
     38  C         26.0430  -19.6700  -16.3660 C.3     1  UNL1        0.0850
     39  C         26.4580  -18.2360  -16.0510 C.3     1  UNL1        0.0320
     40  C         25.4900  -19.7770  -17.7820 C.3     1  UNL1        0.0320
@<TRIPOS>BOND
     1    40    38    1
     2    38    39    1
     3    38    36    1
     4    36    37    1
     5    36    33    1
     6    35    33    2
     7    34    33    2
     8    33    31    1
     9    31    32    1
    10    31    29    2
    11    30    29    1
    12    32    26    2
    13    29    28    1
    14     7     6    2
    15     7     8    1
    16     6     5    1
    17     8     9    2
    18    26     4    1
    19    26    27    1
    20    28    27    2
    21     5     4   ar
    22     5    10   ar
    23     4     3   ar
    24     9    10    1
    25    10     1   ar
    26     3     2   ar
    27     1     2   ar
    28     1    11    1
    29    11    12    1
    30    11    13    1
    31    13    14    2
    32    13    18    1
    33    14    15    1
    34    18    17    2
    35    15    16    2
    36    17    16    1
    37    17    21    1
    38    25    21    2
    39    16    19    1
    40    21    22   am
    41    20    19    1
    42    22    23    1
    43    22    24    1
