@<TRIPOS>MOLECULE
1464_out_ligand_01.pdbqt
 37 40 0 0 0
SMALL
GASTEIGER

@<TRIPOS>ATOM
      1  C         23.1140  -22.6470  -10.9490 C.2     1  UNL1        0.0540
      2  C         21.7950  -22.5920  -10.6770 C.2     1  UNL1        0.1450
      3  O         20.9500  -21.7800  -11.4060 O.2     1  UNL1       -0.3030
      4  C         19.6240  -21.7520  -11.0740 C.2     1  UNL1        0.1030
      5  C         18.8320  -20.8910  -11.8430 C.2     1  UNL1        0.0390
      6  C         17.4680  -20.7870  -11.5930 C.2     1  UNL1        0.0030
      7  C         16.9000  -21.5460  -10.5750 C.2     1  UNL1        0.0020
      8  C         17.6970  -22.4070   -9.8090 C.2     1  UNL1        0.0330
      9  C         19.0740  -22.5200  -10.0460 C.2     1  UNL1        0.0710
     10  N         19.9220  -23.3840   -9.2960 N.am    1  UNL1       -0.3050
     11  C         21.2830  -23.4610   -9.5650 C.2     1  UNL1        0.2820
     12  O         22.0500  -24.1890   -8.9320 O.2     1  UNL1       -0.2650
     13  C         23.8120  -21.8900  -11.9970 C.2     1  UNL1       -0.0330
     14  C         23.2250  -21.6120  -13.2380 C.2     1  UNL1        0.0120
     15  C         23.9090  -20.8590  -14.2000 C.2     1  UNL1        0.0180
     16  C         25.1900  -20.3680  -13.9230 C.2     1  UNL1        0.0320
     17  C         25.7670  -20.6100  -12.6730 C.2     1  UNL1        0.0180
     18  C         25.0820  -21.3670  -11.7170 C.2     1  UNL1        0.0120
     19  C         25.9520  -19.5580  -14.9130 C.2     1  UNL1        0.2510
     20  N         25.4940  -19.6010  -16.2120 N.am    1  UNL1       -0.3570
     21  H         24.7990  -20.2890  -16.4650 H       1  UNL1        0.1620
     22  O         26.9440  -18.9320  -14.5570 O.2     1  UNL1       -0.2680
     23  C         26.1860  -18.9120  -17.2880 C.3     1  UNL1        0.1250
     24  C         27.1200  -19.8460  -18.0550 C.3     1  UNL1        0.0460
     25  C         26.5610  -21.2620  -18.1520 C.3     1  UNL1        0.1690
     26  O         26.9070  -21.9930  -16.9800 O.3     1  UNL1       -0.3870
     27  C         26.1090  -23.1610  -16.7700 C.3     1  UNL1        0.1130
     28  C         24.6390  -22.8730  -17.0590 C.3     1  UNL1        0.0390
     29  C         26.2880  -23.5660  -15.3120 C.3     1  UNL1        0.0390
     30  C         19.3930  -24.2130   -8.2100 C.3     1  UNL1        0.1740
     31  C         18.8770  -23.4200   -7.0320 C.2     1  UNL1       -0.0010
     32  C         19.4150  -22.1670   -6.6990 C.2     1  UNL1        0.0120
     33  C         18.9430  -21.4610   -5.5890 C.2     1  UNL1        0.0010
     34  C         17.9360  -22.0020   -4.7900 C.2     1  UNL1        0.0030
     35  C         17.4040  -23.2510   -5.0990 C.2     1  UNL1        0.0430
     36  C         17.8800  -23.9480   -6.2070 C.2     1  UNL1        0.1240
     37  F         17.3560  -25.1530   -6.4780 F       1  UNL1       -0.2050
@<TRIPOS>BOND
     1    25    24    1
     2    25    26    1
     3    24    23    1
     4    23    20    1
     5    28    27    1
     6    26    27    1
     7    27    29    1
     8    21    20    1
     9    20    19   am
    10    19    22    2
    11    19    16    1
    12    15    16    2
    13    15    14    1
    14    16    17    1
    15    14    13    2
    16    17    18    2
    17    13    18    1
    18    13     1    1
    19     5     6    1
    20     5     4    2
    21     6     7    2
    22     3     4    1
    23     3     2    1
    24     4     9    1
    25     1     2    2
    26     2    11    1
    27     7     8    1
    28     9     8    2
    29     9    10    1
    30    11    10   am
    31    11    12    2
    32    10    30    1
    33    30    31    1
    34    31    32    2
    35    31    36    1
    36    32    33    1
    37    37    36    1
    38    36    35    2
    39    33    34    2
    40    35    34    1
