@<TRIPOS>MOLECULE
14831_out_ligand_01.pdbqt
 37 41 0 0 0
SMALL
GASTEIGER

@<TRIPOS>ATOM
      1  C         19.0960  -22.3740   -9.2580 C.2     1  UNL1        0.0400
      2  C         17.8590  -22.0980   -9.8580 C.2     1  UNL1        0.0170
      3  C         17.8060  -21.6120  -11.1610 C.2     1  UNL1        0.0010
      4  C         18.9870  -21.4060  -11.8700 C.2     1  UNL1        0.0010
      5  C         20.2220  -21.7040  -11.2830 C.2     1  UNL1        0.0100
      6  C         20.3000  -22.2090   -9.9730 C.2     1  UNL1       -0.0230
      7  C         21.6600  -22.5410   -9.4060 C.3     1  UNL1        0.1850
      8  N         22.7710  -22.1700  -10.2670 N.pl3   1  UNL1       -0.2790
      9  C         23.0160  -22.5220  -11.5610 C.2     1  UNL1        0.1420
     10  C         24.2310  -21.9340  -11.8400 C.2     1  UNL1        0.1010
     11  N         24.6300  -21.2020  -10.7470 N.2     1  UNL1       -0.1580
     12  N         23.7110  -21.3290   -9.8010 N.2     1  UNL1        0.0050
     13  C         25.0090  -22.0450  -13.0620 C.2     1  UNL1       -0.0040
     14  C         26.3970  -21.8500  -13.0800 C.2     1  UNL1        0.0150
     15  C         27.1160  -21.9580  -14.2750 C.2     1  UNL1        0.0140
     16  C         26.4570  -22.2590  -15.4790 C.2     1  UNL1       -0.0080
     17  C         27.1210  -22.3770  -16.7020 C.2     1  UNL1        0.1280
     18  C         25.0630  -22.4540  -15.4790 C.2     1  UNL1       -0.0220
     19  N         26.5170  -22.6580  -17.8800 N.2     1  UNL1       -0.2720
     20  C         25.1790  -22.8310  -17.8440 C.2     1  UNL1        0.1170
     21  C         24.4190  -22.7430  -16.6890 C.2     1  UNL1        0.0310
     22  C         24.3560  -22.3480  -14.2680 C.2     1  UNL1        0.0260
     23  C         19.0470  -22.8630   -7.8610 C.2     1  UNL1        0.2520
     24  O         19.2420  -24.0510   -7.6310 O.2     1  UNL1       -0.2680
     25  N         18.7050  -21.9150   -6.9220 N.am    1  UNL1       -0.3480
     26  H         18.3470  -21.0300   -7.2600 H       1  UNL1        0.1630
     27  C         18.3720  -22.2990   -5.5520 C.3     1  UNL1        0.1230
     28  C         18.8350  -21.2860   -4.4910 C.3     1  UNL1        0.1010
     29  C         19.8250  -20.2420   -4.9590 C.3     1  UNL1        0.3550
     30  F         20.5210  -20.6800   -6.0400 F       1  UNL1       -0.2140
     31  F         19.1470  -19.1380   -5.3830 F       1  UNL1       -0.2140
     32  C         16.9160  -22.7350   -5.4470 C.2     1  UNL1       -0.0350
     33  C         15.9200  -22.2810   -6.3260 C.2     1  UNL1        0.0090
     34  C         14.5980  -22.7170   -6.1990 C.2     1  UNL1        0.0010
     35  C         14.2510  -23.6180   -5.1960 C.2     1  UNL1        0.0000
     36  C         15.2240  -24.0820   -4.3170 C.2     1  UNL1        0.0010
     37  C         16.5430  -23.6420   -4.4400 C.2     1  UNL1        0.0090
@<TRIPOS>BOND
     1    19    20    2
     2    19    17    1
     3    20    21    1
     4    17    16    2
     5    21    18    2
     6    18    16    1
     7    18    22    1
     8    16    15    1
     9    15    14    2
    10    22    13    2
    11    14    13    1
    12    13    10    1
    13     4     5    2
    14     4     3    1
    15    10     9    2
    16    10    11    1
    17     9     8    1
    18     5     6    1
    19     3     2    2
    20    11    12    2
    21     8    12    1
    22     8     7    1
    23     6     7    1
    24     6     1    2
    25     2     1    1
    26     1    23    1
    27    23    24    2
    28    23    25   am
    29    26    25    1
    30    25    27    1
    31    33    34    1
    32    33    32    2
    33    34    35    2
    34    30    29    1
    35    27    32    1
    36    27    28    1
    37    32    37    1
    38    31    29    1
    39    35    36    1
    40    29    28    1
    41    37    36    2
