@<TRIPOS>MOLECULE
15101_out_ligand_01.pdbqt
 34 37 0 0 0
SMALL
GASTEIGER

@<TRIPOS>ATOM
      1  C         18.7690  -22.7160   -7.1770 C.ar    1  UNL1        0.0990
      2  N         20.0110  -23.0330   -7.3770 N.ar    1  UNL1       -0.1660
      3  N         20.4530  -23.2550   -8.6630 N.ar    1  UNL1       -0.2050
      4  C         19.6620  -23.0940   -9.7960 C.ar    1  UNL1        0.2760
      5  O         20.0620  -23.2320  -10.9500 O.2     1  UNL1       -0.2660
      6  C         18.2470  -22.7490   -9.5660 C.ar    1  UNL1        0.0460
      7  C         17.3680  -22.6190  -10.6510 C.2     1  UNL1        0.0180
      8  C         16.0240  -22.3200  -10.4300 C.2     1  UNL1        0.0010
      9  C         15.5560  -22.1560   -9.1280 C.2     1  UNL1        0.0010
     10  C         16.4290  -22.2840   -8.0460 C.2     1  UNL1        0.0150
     11  C         17.7830  -22.5730   -8.2680 C.ar    1  UNL1        0.0110
     12  C         21.8530  -23.6440   -8.8100 C.3     1  UNL1        0.4260
     13  N         22.5990  -22.6110   -9.5390 N.3     1  UNL1        0.1070
     14  C         22.9610  -21.4900   -8.6790 C.3     1  UNL1        0.3120
     15  C         23.7390  -23.1620  -10.2800 C.3     1  UNL1        0.3120
     16  C         23.8660  -22.7630  -11.7370 C.2     1  UNL1       -0.0300
     17  C         22.9840  -21.8300  -12.3050 C.2     1  UNL1        0.0100
     18  C         23.0950  -21.4690  -13.6510 C.2     1  UNL1        0.0170
     19  C         24.0930  -22.0390  -14.4490 C.2     1  UNL1        0.0310
     20  C         24.9910  -22.9510  -13.8860 C.2     1  UNL1        0.0170
     21  C         24.8760  -23.3130  -12.5410 C.2     1  UNL1        0.0100
     22  C         24.2510  -21.6880  -15.8860 C.2     1  UNL1        0.2490
     23  N         24.4960  -20.3780  -16.1900 N.am    1  UNL1       -0.3660
     24  H         24.2930  -19.6370  -15.5340 H       1  UNL1        0.1590
     25  H         24.4560  -20.1450  -17.1740 H       1  UNL1        0.1590
     26  O         24.1310  -22.5260  -16.7710 O.2     1  UNL1       -0.2680
     27  C         18.3520  -22.4910   -5.7730 C.2     1  UNL1        0.0020
     28  C         18.8710  -21.4170   -5.0330 C.2     1  UNL1       -0.0490
     29  C         18.4270  -21.2450   -3.7160 C.2     1  UNL1        0.0080
     30  C         19.8420  -20.4390   -5.6320 C.3     1  UNL1        0.0490
     31  C         17.4980  -22.1280   -3.1530 C.2     1  UNL1        0.0070
     32  C         16.9890  -23.2010   -3.8950 C.2     1  UNL1       -0.0610
     33  C         15.9560  -24.1120   -3.3020 C.3     1  UNL1        0.0480
     34  C         17.4090  -23.3670   -5.2180 C.2     1  UNL1        0.0210
@<TRIPOS>BOND
     1    25    23    1
     2    26    22    2
     3    23    22   am
     4    23    24    1
     5    22    19    1
     6    19    20    2
     7    19    18    1
     8    20    21    1
     9    18    17    2
    10    21    16    2
    11    17    16    1
    12    16    15    1
    13     5     4    2
    14     7     8    1
    15     7     6    2
    16     8     9    2
    17    15    13    1
    18     4     6   ar
    19     4     3   ar
    20     6    11   ar
    21    13    12    1
    22    13    14    1
    23     9    10    1
    24    12     3    1
    25     3     2   ar
    26    11    10    2
    27    11     1   ar
    28     2     1   ar
    29     1    27    1
    30    27    34    2
    31    27    28    1
    32    30    28    1
    33    34    32    1
    34    28    29    2
    35    32    33    1
    36    32    31    2
    37    29    31    1
