@<TRIPOS>MOLECULE
15135_out_ligand_01.pdbqt
 35 38 0 0 0
SMALL
GASTEIGER

@<TRIPOS>ATOM
      1  N         22.3110  -22.5710  -10.0010 N.am    1  UNL1       -0.3230
      2  C         20.9540  -22.5240  -10.2670 C.2     1  UNL1        0.2560
      3  O         20.4210  -22.4930  -11.3670 O.2     1  UNL1       -0.2670
      4  H         22.5830  -22.7930   -9.0520 H       1  UNL1        0.1690
      5  C         20.0800  -22.5550   -9.0630 C.2     1  UNL1        0.0340
      6  C         20.5400  -22.1410   -7.8130 C.2     1  UNL1        0.0190
      7  C         19.6780  -22.1410   -6.7020 C.2     1  UNL1        0.0320
      8  C         18.3370  -22.5620   -6.7970 C.2     1  UNL1        0.0590
      9  C         17.9190  -22.9540   -8.0750 C.2     1  UNL1        0.1090
     10  N         17.4280  -22.5660   -5.7140 N.pl3   1  UNL1       -0.3330
     11  C         18.7530  -22.9470   -9.2030 C.2     1  UNL1        0.0440
     12  S         16.2440  -23.4580   -8.2760 S.O2    1  UNL1        0.2870
     13  O         16.2450  -24.8990   -8.1130 O.2     1  UNL1       -0.1980
     14  O         15.7870  -22.8530   -9.5130 O.2     1  UNL1       -0.1980
     15  N         15.4320  -22.7820   -7.0630 N.2     1  UNL1       -0.1460
     16  C         16.0580  -22.4560   -5.9850 C.2     1  UNL1        0.1200
     17  C         15.1540  -21.9070   -4.8880 C.3     1  UNL1        0.0800
     18  C         14.8210  -22.9950   -3.8790 C.3     1  UNL1        0.0080
     19  C         15.9980  -23.8990   -3.5270 C.3     1  UNL1        0.0020
     20  C         17.2930  -23.1530   -3.2280 C.2     1  UNL1        0.0200
     21  C         17.9510  -22.3240   -4.3550 C.2     1  UNL1        0.1310
     22  C         23.3600  -22.4660  -10.9370 C.2     1  UNL1        0.0360
     23  C         24.5980  -23.0090  -10.5750 C.2     1  UNL1        0.0320
     24  C         25.6980  -22.9400  -11.4400 C.2     1  UNL1        0.0400
     25  C         25.5870  -22.3080  -12.6810 C.2     1  UNL1        0.0910
     26  C         24.3480  -21.7590  -13.0390 C.2     1  UNL1        0.1090
     27  C         23.2420  -21.8350  -12.1750 C.2     1  UNL1        0.0570
     28  O         26.6100  -22.2240  -13.5840 O.2     1  UNL1       -0.3540
     29  C         27.0270  -23.4250  -14.2190 C.3     1  UNL1        0.2100
     30  S         24.1610  -20.8940  -14.5710 S.O2    1  UNL1        0.2420
     31  O         25.0870  -19.7840  -14.6140 O.2     1  UNL1       -0.2060
     32  O         24.0770  -21.8360  -15.6630 O.2     1  UNL1       -0.2060
     33  N         22.6480  -20.1780  -14.4230 N.3     1  UNL1       -0.2250
     34  H         22.3710  -19.7930  -15.3260 H       1  UNL1        0.1360
     35  H         22.6680  -19.5000  -13.6610 H       1  UNL1        0.1360
@<TRIPOS>BOND
     1    32    30    2
     2    34    33    1
     3    31    30    2
     4    30    33    1
     5    30    26    1
     6    33    35    1
     7    29    28    1
     8    28    25    1
     9    26    25    2
    10    26    27    1
    11    25    24    1
    12    27    22    2
    13    24    23    2
    14     3     2    2
    15    22    23    1
    16    22     1    1
    17     2     1   am
    18     2     5    1
    19     1     4    1
    20    14    12    2
    21    11     5    2
    22    11     9    1
    23     5     6    1
    24    12    13    2
    25    12     9    1
    26    12    15    1
    27     9     8    2
    28     6     7    2
    29    15    16    2
    30     8     7    1
    31     8    10    1
    32    16    10    1
    33    16    17    1
    34    10    21    1
    35    17    18    1
    36    21    20    2
    37    18    19    1
    38    19    20    1
