@<TRIPOS>MOLECULE
15141_out_ligand_01.pdbqt
 35 38 0 0 0
SMALL
GASTEIGER

@<TRIPOS>ATOM
      1  N         23.2970  -23.5300  -11.0130 N.pl3   1  UNL1       -0.2830
      2  H         23.6380  -24.4990  -11.1300 H       1  UNL1        0.1280
      3  C         23.8980  -22.8990   -9.8150 C.3     1  UNL1        0.1950
      4  C         22.8300  -22.5240   -8.7760 C.2     1  UNL1        0.2350
      5  O         23.0100  -21.6000   -7.9870 O.2     1  UNL1       -0.2720
      6  N         21.7190  -23.3430   -8.8560 N.am    1  UNL1       -0.3260
      7  H         21.7900  -24.0310   -9.6060 H       1  UNL1        0.1690
      8  C         20.5490  -23.3200   -8.0850 C.2     1  UNL1        0.0340
      9  C         20.2540  -22.1400   -7.4020 C.2     1  UNL1        0.0320
     10  C         19.0990  -22.0400   -6.6140 C.2     1  UNL1        0.0310
     11  C         18.1940  -23.1040   -6.4780 C.2     1  UNL1        0.0300
     12  C         18.5200  -24.2810   -7.1670 C.2     1  UNL1        0.0310
     13  C         19.6740  -24.3920   -7.9610 C.2     1  UNL1        0.0320
     14  N         17.0590  -22.9960   -5.6950 N.pl3   1  UNL1       -0.3770
     15  C         17.0860  -23.2860   -4.2520 C.3     1  UNL1        0.1490
     16  C         16.0880  -22.3840   -3.5070 C.3     1  UNL1        0.1870
     17  O         14.7300  -22.5180   -3.9530 O.3     1  UNL1       -0.3880
     18  C         14.6240  -22.8550   -5.3450 C.3     1  UNL1        0.1870
     19  C         15.8160  -22.3920   -6.2000 C.3     1  UNL1        0.1490
     20  C         23.4500  -22.8260  -12.2300 C.2     1  UNL1        0.0240
     21  C         24.5210  -23.1400  -13.0840 C.2     1  UNL1        0.0240
     22  C         24.7430  -22.4240  -14.2620 C.2     1  UNL1        0.0020
     23  C         23.9080  -21.3680  -14.6050 C.2     1  UNL1        0.0010
     24  C         22.8370  -21.0340  -13.7780 C.2     1  UNL1        0.0190
     25  C         22.5870  -21.7660  -12.6030 C.2     1  UNL1        0.0530
     26  C         21.3990  -21.4190  -11.7550 C.2     1  UNL1        0.2580
     27  O         21.5500  -20.6400  -10.8210 O.2     1  UNL1       -0.2670
     28  N         20.2300  -22.0880  -12.0770 N.am    1  UNL1       -0.3230
     29  H         20.2950  -22.8360  -12.7560 H       1  UNL1        0.1690
     30  C         18.9520  -21.9060  -11.5030 C.2     1  UNL1        0.0350
     31  C         18.1890  -20.7470  -11.6480 C.2     1  UNL1        0.0290
     32  C         16.9240  -20.6520  -11.0570 C.2     1  UNL1        0.0020
     33  C         16.4130  -21.7140  -10.3160 C.2     1  UNL1        0.0000
     34  C         17.1650  -22.8770  -10.1680 C.2     1  UNL1        0.0020
     35  C         18.4270  -22.9720  -10.7590 C.2     1  UNL1        0.0290
@<TRIPOS>BOND
     1    23    22    2
     2    23    24    1
     3    22    21    1
     4    24    25    2
     5    21    20    2
     6    29    28    1
     7    25    20    1
     8    25    26    1
     9    20     1    1
    10    28    26   am
    11    28    30    1
    12    26    27    2
    13    31    30    2
    14    31    32    1
    15    30    35    1
    16     2     1    1
    17    32    33    2
    18     1     3    1
    19    35    34    2
    20    33    34    1
    21     3     4    1
    22     7     6    1
    23     6     4   am
    24     6     8    1
    25     4     5    2
    26     8    13    2
    27     8     9    1
    28    13    12    1
    29     9    10    2
    30    12    11    2
    31    10    11    1
    32    11    14    1
    33    19    14    1
    34    19    18    1
    35    14    15    1
    36    18    17    1
    37    15    16    1
    38    17    16    1
