@<TRIPOS>MOLECULE
15143_out_ligand_01.pdbqt
 36 39 0 0 0
SMALL
GASTEIGER

@<TRIPOS>ATOM
      1  N         23.2390  -23.3290  -10.9080 N.pl3   1  UNL1       -0.2830
      2  H         22.2170  -23.4700  -10.8440 H       1  UNL1        0.1280
      3  C         23.5190  -22.6730  -12.1220 C.2     1  UNL1        0.0240
      4  C         24.5970  -23.0410  -12.9410 C.2     1  UNL1        0.0240
      5  C         24.8300  -22.4150  -14.1720 C.2     1  UNL1        0.0020
      6  C         23.9730  -21.4210  -14.6290 C.2     1  UNL1        0.0010
      7  C         22.8640  -21.0700  -13.8670 C.2     1  UNL1        0.0190
      8  C         22.6180  -21.7100  -12.6390 C.2     1  UNL1        0.0530
      9  C         21.3960  -21.3310  -11.8700 C.2     1  UNL1        0.2580
     10  N         20.3150  -22.1750  -12.0660 N.am    1  UNL1       -0.3230
     11  H         20.4830  -23.0060  -12.6190 H       1  UNL1        0.1690
     12  O         21.4480  -20.3600  -11.1260 O.2     1  UNL1       -0.2670
     13  C         19.0290  -22.0670  -11.4990 C.2     1  UNL1        0.0350
     14  C         18.5060  -23.2050  -10.8710 C.2     1  UNL1        0.0300
     15  C         17.2370  -23.1790  -10.2840 C.2     1  UNL1        0.0090
     16  C         16.4670  -22.0120  -10.3120 C.2     1  UNL1       -0.0620
     17  C         15.1000  -21.9940   -9.6980 C.3     1  UNL1        0.0480
     18  C         16.9840  -20.8800  -10.9480 C.2     1  UNL1        0.0090
     19  C         18.2550  -20.9070  -11.5340 C.2     1  UNL1        0.0300
     20  C         23.7510  -22.8120   -9.6360 C.3     1  UNL1        0.1950
     21  C         22.6300  -22.4470   -8.6480 C.2     1  UNL1        0.2350
     22  O         22.7380  -21.4880   -7.8870 O.2     1  UNL1       -0.2720
     23  N         21.5300  -23.2890   -8.7480 N.am    1  UNL1       -0.3260
     24  H         21.5620  -24.0050   -9.4620 H       1  UNL1        0.1690
     25  C         20.3510  -23.2570   -7.9760 C.2     1  UNL1        0.0340
     26  C         19.5840  -24.4220   -7.9310 C.2     1  UNL1        0.0320
     27  C         18.3970  -24.4650   -7.1880 C.2     1  UNL1        0.0310
     28  C         17.9430  -23.3570   -6.4590 C.2     1  UNL1        0.0300
     29  C         18.7290  -22.2010   -6.5080 C.2     1  UNL1        0.0310
     30  C         19.9160  -22.1480   -7.2550 C.2     1  UNL1        0.0320
     31  N         16.7430  -23.4570   -5.7440 N.pl3   1  UNL1       -0.3770
     32  C         16.7760  -23.7470   -4.2950 C.3     1  UNL1        0.1490
     33  C         16.4480  -22.4870   -3.4810 C.3     1  UNL1        0.1870
     34  O         15.1410  -21.9510   -3.7560 O.3     1  UNL1       -0.3880
     35  C         14.6550  -22.2880   -5.0650 C.3     1  UNL1        0.1870
     36  C         15.7680  -22.4000   -6.1190 C.3     1  UNL1        0.1490
@<TRIPOS>BOND
     1     6     5    2
     2     6     7    1
     3     5     4    1
     4     7     8    2
     5     4     3    2
     6     8     3    1
     7     8     9    1
     8    11    10    1
     9     3     1    1
    10    10     9   am
    11    10    13    1
    12     9    12    2
    13    19    13    2
    14    19    18    1
    15    13    14    1
    16    18    16    2
    17     1     2    1
    18     1    20    1
    19    14    15    2
    20    16    15    1
    21    16    17    1
    22    20    21    1
    23    24    23    1
    24    23    21   am
    25    23    25    1
    26    21    22    2
    27    25    26    2
    28    25    30    1
    29    26    27    1
    30    30    29    2
    31    27    28    2
    32    29    28    1
    33    28    31    1
    34    36    31    1
    35    36    35    1
    36    31    32    1
    37    35    34    1
    38    32    33    1
    39    34    33    1
