@<TRIPOS>MOLECULE
15202_out_ligand_01.pdbqt
 33 35 0 0 0
SMALL
GASTEIGER

@<TRIPOS>ATOM
      1  C         16.0140  -23.3210   -5.9530 C.2     1  UNL1        0.0530
      2  C         15.0530  -23.9590   -5.1460 C.2     1  UNL1        0.0190
      3  C         15.0650  -23.7920   -3.7620 C.2     1  UNL1        0.0010
      4  C         16.0280  -22.9800   -3.1720 C.2     1  UNL1        0.0020
      5  C         16.9710  -22.3210   -3.9640 C.2     1  UNL1        0.0240
      6  C         16.9830  -22.4730   -5.3610 C.2     1  UNL1        0.0240
      7  N         17.9110  -21.7340   -6.1340 N.pl3   1  UNL1       -0.2830
      8  H         18.3290  -22.3560   -6.8470 H       1  UNL1        0.1280
      9  C         18.9680  -21.0260   -5.3730 C.3     1  UNL1        0.1950
     10  C         20.3060  -21.0390   -6.1320 C.2     1  UNL1        0.2350
     11  O         21.2110  -20.2610   -5.8440 O.2     1  UNL1       -0.2720
     12  N         20.3350  -22.0100   -7.1170 N.am    1  UNL1       -0.3260
     13  H         19.4530  -22.5220   -7.1850 H       1  UNL1        0.1690
     14  C         21.3690  -22.3300   -8.0070 C.2     1  UNL1        0.0370
     15  C         21.4830  -23.6750   -8.3940 C.2     1  UNL1        0.0320
     16  C         22.4840  -24.0800   -9.2810 C.2     1  UNL1        0.0480
     17  C         23.3740  -23.1390   -9.7800 C.2     1  UNL1        0.1540
     18  F         24.3340  -23.5260  -10.6310 F       1  UNL1       -0.2030
     19  C         23.2680  -21.8060   -9.4010 C.2     1  UNL1        0.1570
     20  F         24.1290  -20.9010   -9.8870 F       1  UNL1       -0.2030
     21  C         22.2710  -21.3950   -8.5170 C.2     1  UNL1        0.0750
     22  C         16.0130  -23.5540   -7.4330 C.2     1  UNL1        0.2530
     23  N         16.1240  -22.4350   -8.2350 N.am    1  UNL1       -0.3530
     24  H         15.9680  -21.5270   -7.8230 H       1  UNL1        0.1630
     25  O         15.8620  -24.6870   -7.8820 O.2     1  UNL1       -0.2680
     26  C         15.9570  -22.5180   -9.6700 C.3     1  UNL1        0.1610
     27  C         17.2490  -22.1890  -10.3730 C.2     1  UNL1       -0.0410
     28  C         18.3670  -23.0220  -10.2450 C.2     1  UNL1        0.0090
     29  C         19.5700  -22.6940  -10.8770 C.2     1  UNL1        0.0070
     30  C         19.6800  -21.5220  -11.6330 C.2     1  UNL1       -0.0620
     31  C         20.9620  -21.1900  -12.3370 C.3     1  UNL1        0.0480
     32  C         18.5620  -20.6920  -11.7670 C.2     1  UNL1        0.0070
     33  C         17.3580  -21.0190  -11.1370 C.2     1  UNL1        0.0090
@<TRIPOS>BOND
     1    31    30    1
     2    32    30    2
     3    32    33    1
     4    30    29    1
     5    33    27    2
     6    29    28    2
     7    18    17    1
     8    27    28    1
     9    27    26    1
    10    20    19    1
    11    17    19    2
    12    17    16    1
    13    26    23    1
    14    19    21    1
    15    16    15    2
    16    21    14    2
    17    15    14    1
    18    23    24    1
    19    23    22   am
    20    14    12    1
    21    25    22    2
    22    22     1    1
    23    13    12    1
    24    12    10   am
    25     8     7    1
    26     7     9    1
    27     7     6    1
    28    10    11    2
    29    10     9    1
    30     1     6    2
    31     1     2    1
    32     6     5    1
    33     2     3    2
    34     5     4    2
    35     3     4    1
