@<TRIPOS>MOLECULE
1525_out_ligand_01.pdbqt
 31 34 0 0 0
SMALL
GASTEIGER

@<TRIPOS>ATOM
      1  C         26.1650  -21.7590  -14.8830 C.3     1  UNL1        0.0480
      2  C         24.9780  -21.9900  -13.9930 C.2     1  UNL1       -0.0610
      3  C         24.9950  -23.0170  -13.0440 C.2     1  UNL1        0.0090
      4  C         23.8910  -23.2740  -12.2240 C.2     1  UNL1        0.0310
      5  C         22.7580  -22.4710  -12.3930 C.2     1  UNL1        0.0430
      6  N         21.5480  -22.4910  -11.7410 N.pl3   1  UNL1       -0.3520
      7  C         20.7180  -21.5180  -12.2380 C.2     1  UNL1        0.0890
      8  C         19.3990  -21.3270  -11.7380 C.2     1  UNL1        0.2230
      9  N         18.8810  -22.0520  -10.7650 N.2     1  UNL1       -0.2030
     10  C         17.6210  -21.5250  -10.6450 C.2     1  UNL1        0.1580
     11  N         17.3460  -20.5170  -11.4790 N.4     1  UNL1       -0.1110
     12  O         18.5280  -20.3810  -12.2100 O.2     1  UNL1       -0.1890
     13  C         21.4080  -20.8550  -13.2310 C.2     1  UNL1        0.0480
     14  C         22.6970  -21.4460  -13.3360 C.2     1  UNL1       -0.0070
     15  C         23.8210  -21.2060  -14.1510 C.2     1  UNL1        0.0200
     16  H         21.2930  -23.1310  -11.0000 H       1  UNL1        0.1660
     17  C         16.6360  -22.0360   -9.6630 C.3     1  UNL1        0.1030
     18  C         16.7450  -23.5520   -9.4910 C.3     1  UNL1        0.1330
     19  N         16.5590  -23.9760   -8.0930 N.am    1  UNL1       -0.3520
     20  C         15.2400  -24.4710   -7.7310 C.3     1  UNL1        0.1520
     21  C         17.6120  -24.3130   -7.2370 C.2     1  UNL1        0.2530
     22  O         17.4690  -25.0090   -6.2330 O.2     1  UNL1       -0.2670
     23  C         18.9760  -23.8190   -7.5330 C.2     1  UNL1        0.0320
     24  C         19.8510  -24.5580   -8.3330 C.2     1  UNL1        0.0170
     25  C         21.1280  -24.0610   -8.6060 C.2     1  UNL1        0.0080
     26  C         21.5380  -22.8170   -8.1000 C.2     1  UNL1       -0.0550
     27  C         20.6330  -22.0720   -7.3260 C.2     1  UNL1        0.0080
     28  C         19.3570  -22.5670   -7.0480 C.2     1  UNL1        0.0170
     29  C         22.9280  -22.2950   -8.4250 C.3     1  UNL1        0.0100
     30  C         23.8100  -23.3980   -9.0150 C.3     1  UNL1        0.0150
     31  C         22.8790  -21.0790   -9.3540 C.3     1  UNL1        0.0150
@<TRIPOS>BOND
     1     1     2    1
     2    15     2    2
     3    15    14    1
     4     2     3    1
     5    14    13    1
     6    14     5    2
     7    13     7    2
     8     3     4    2
     9     5     4    1
    10     5     6    1
    11     7     6    1
    12     7     8    1
    13    12     8    1
    14    12    11    1
    15     6    16    1
    16     8     9    2
    17    11    10    1
    18     9    10    2
    19    10    17    1
    20    17    18    1
    21    18    19    1
    22    31    29    1
    23    30    29    1
    24    25    24    1
    25    25    26    2
    26    29    26    1
    27    24    23    2
    28    26    27    1
    29    19    20    1
    30    19    21   am
    31    23    21    1
    32    23    28    1
    33    27    28    2
    34    21    22    2
