@<TRIPOS>MOLECULE
15351_out_ligand_01.pdbqt
 36 40 0 0 0
SMALL
GASTEIGER

@<TRIPOS>ATOM
      1  N         20.9430  -23.6390   -9.7460 N.pl3   1  UNL1       -0.3530
      2  C         22.2800  -23.3320   -9.7800 C.2     1  UNL1        0.1030
      3  C         22.4130  -22.1160  -10.4070 C.2     1  UNL1       -0.0070
      4  C         21.1140  -21.6810  -10.8080 C.2     1  UNL1        0.0020
      5  C         20.6240  -20.5570  -11.5060 C.2     1  UNL1        0.0140
      6  C         19.2500  -20.4290  -11.7360 C.2     1  UNL1        0.0010
      7  C         18.3640  -21.4020  -11.2830 C.2     1  UNL1        0.0020
      8  C         18.8240  -22.5280  -10.5920 C.2     1  UNL1        0.0300
      9  C         20.2060  -22.6530  -10.3710 C.2     1  UNL1        0.0450
     10  C         23.6650  -21.4840  -10.6500 C.3     1  UNL1        0.0340
     11  C         24.2990  -21.3050  -11.8250 C.ar    1  UNL1        0.0820
     12  C         23.7710  -21.7020  -13.1750 C.ar    1  UNL1        0.1620
     13  C         25.6710  -20.6640  -11.7620 C.ar    1  UNL1        0.2830
     14  N         22.5560  -22.1170  -13.3770 N.pl3   1  UNL1       -0.2810
     15  N         24.6660  -21.5720  -14.2190 N.ar    1  UNL1       -0.1890
     16  H         22.4760  -22.3140  -14.3850 H       1  UNL1        0.1880
     17  N         24.3530  -21.9400  -15.5180 N.ar    1  UNL1       -0.1610
     18  C         25.9190  -21.0550  -14.0090 C.ar    1  UNL1        0.2010
     19  C         25.3860  -21.7070  -16.2730 C.ar    1  UNL1        0.1020
     20  S         26.8150  -21.0290  -15.5080 S.2     1  UNL1       -0.0330
     21  N         26.4340  -20.6260  -12.9130 N.ar    1  UNL1       -0.1820
     22  O         26.0960  -20.2010  -10.7090 O.2     1  UNL1       -0.2650
     23  C         25.4280  -21.9930  -17.7550 C.3     1  UNL1        0.0380
     24  C         24.4020  -23.0650  -18.1090 C.3     1  UNL1        0.0160
     25  C         26.8360  -22.4270  -18.1530 C.3     1  UNL1        0.0160
     26  C         20.4050  -24.8490   -9.1510 C.3     1  UNL1        0.1550
     27  C         19.6570  -24.5620   -7.8540 C.3     1  UNL1        0.1960
     28  O         18.2530  -24.4210   -8.0840 O.2     1  UNL1       -0.3490
     29  C         17.4640  -23.9180   -7.0840 C.2     1  UNL1        0.0740
     30  C         17.7930  -23.9140   -5.7270 C.2     1  UNL1        0.0380
     31  C         16.9130  -23.3740   -4.7840 C.2     1  UNL1        0.0090
     32  C         15.6900  -22.8290   -5.1820 C.2     1  UNL1       -0.0610
     33  C         14.7650  -22.2200   -4.1710 C.3     1  UNL1        0.0480
     34  C         15.3720  -22.8060   -6.5450 C.2     1  UNL1        0.0160
     35  C         16.2470  -23.3490   -7.5000 C.2     1  UNL1       -0.0280
     36  C         15.8750  -23.3070   -8.9580 C.3     1  UNL1        0.0510
@<TRIPOS>BOND
     1    25    23    1
     2    24    23    1
     3    23    19    1
     4    19    17   ar
     5    19    20   ar
     6    17    15   ar
     7    20    18   ar
     8    16    14    1
     9    15    18   ar
    10    15    12   ar
    11    18    21   ar
    12    14    12    1
    13    12    11   ar
    14    21    13   ar
    15    11    13   ar
    16    11    10    1
    17    13    22    2
    18     6     5    1
    19     6     7    2
    20     5     4    2
    21     7     8    1
    22     4     3    1
    23     4     9    1
    24    10     3    1
    25     8     9    2
    26     3     2    2
    27     9     1    1
    28     2     1    1
    29     1    26    1
    30    26    27    1
    31    36    35    1
    32    28    27    1
    33    28    29    1
    34    35    29    2
    35    35    34    1
    36    29    30    1
    37    34    32    2
    38    30    31    2
    39    32    31    1
    40    32    33    1
