@<TRIPOS>MOLECULE
15366_out_ligand_01.pdbqt
 36 40 0 0 0
SMALL
GASTEIGER

@<TRIPOS>ATOM
      1  C         22.2590  -22.2120  -10.2590 C.2     1  UNL1       -0.0070
      2  C         22.0940  -23.3940   -9.5740 C.2     1  UNL1        0.1030
      3  N         20.7460  -23.6590   -9.5240 N.pl3   1  UNL1       -0.3530
      4  C         20.0390  -22.6830  -10.1990 C.2     1  UNL1        0.0450
      5  C         18.6630  -22.5330  -10.4370 C.2     1  UNL1        0.0300
      6  C         18.2350  -21.4260  -11.1730 C.2     1  UNL1        0.0020
      7  C         19.1460  -20.4930  -11.6570 C.2     1  UNL1        0.0010
      8  C         20.5150  -20.6480  -11.4170 C.2     1  UNL1        0.0140
      9  C         20.9750  -21.7560  -10.6750 C.2     1  UNL1        0.0020
     10  C         23.5250  -21.6240  -10.5330 C.3     1  UNL1        0.0340
     11  C         24.1000  -21.4090  -11.7330 C.ar    1  UNL1        0.0820
     12  C         23.4790  -21.7100  -13.0670 C.ar    1  UNL1        0.1620
     13  C         25.5040  -20.8390  -11.7170 C.ar    1  UNL1        0.2830
     14  N         24.3240  -21.5770  -14.1530 N.ar    1  UNL1       -0.1890
     15  N         22.2330  -22.0490  -13.2210 N.pl3   1  UNL1       -0.2810
     16  N         23.9200  -21.8560  -15.4500 N.ar    1  UNL1       -0.1610
     17  C         25.6120  -21.1360  -13.9880 C.ar    1  UNL1        0.2010
     18  C         24.9240  -21.6410  -16.2470 C.ar    1  UNL1        0.0990
     19  S         26.4290  -21.0830  -15.5330 S.2     1  UNL1       -0.0330
     20  N         26.2060  -20.7870  -12.9050 N.ar    1  UNL1       -0.1820
     21  H         22.0900  -22.1920  -14.2300 H       1  UNL1        0.1880
     22  O         26.0070  -20.4440  -10.6700 O.2     1  UNL1       -0.2650
     23  C         24.8540  -21.8310  -17.7340 C.3     1  UNL1        0.0690
     24  C         24.6030  -23.2880  -18.1190 C.3     1  UNL1        0.0020
     25  C         23.1240  -23.6480  -18.1530 C.3     1  UNL1        0.0050
     26  C         20.1740  -24.7970   -8.8190 C.3     1  UNL1        0.1550
     27  C         19.5230  -24.4030   -7.4960 C.3     1  UNL1        0.1960
     28  O         18.1020  -24.4150   -7.6450 O.2     1  UNL1       -0.3490
     29  C         17.3650  -23.7850   -6.6750 C.2     1  UNL1        0.0750
     30  C         17.9070  -23.1890   -5.5310 C.2     1  UNL1        0.0440
     31  C         17.0810  -22.5490   -4.5940 C.2     1  UNL1       -0.0590
     32  C         17.6690  -21.9450   -3.3530 C.3     1  UNL1        0.0480
     33  C         15.6990  -22.5300   -4.8040 C.2     1  UNL1        0.0070
     34  C         15.1540  -23.1150   -5.9460 C.2     1  UNL1        0.0100
     35  C         15.9780  -23.7370   -6.8950 C.2     1  UNL1       -0.0290
     36  C         15.3630  -24.3820   -8.1050 C.3     1  UNL1        0.0510
@<TRIPOS>BOND
     1    25    24    1
     2    24    23    1
     3    23    18    1
     4    18    19   ar
     5    18    16   ar
     6    19    17   ar
     7    16    14   ar
     8    21    15    1
     9    14    17   ar
    10    14    12   ar
    11    17    20   ar
    12    15    12    1
    13    12    11   ar
    14    20    13   ar
    15    11    13   ar
    16    11    10    1
    17    13    22    2
    18     7     8    2
    19     7     6    1
    20     8     9    1
    21     6     5    2
    22     9     1    1
    23     9     4    2
    24    10     1    1
    25     5     4    1
    26     1     2    2
    27     4     3    1
    28     2     3    1
    29     3    26    1
    30    26    27    1
    31    36    35    1
    32    28    27    1
    33    28    29    1
    34    35    29    2
    35    35    34    1
    36    29    30    1
    37    34    33    2
    38    30    31    2
    39    33    31    1
    40    31    32    1
