@<TRIPOS>MOLECULE
15484_out_ligand_01.pdbqt
 37 41 0 0 0
SMALL
GASTEIGER

@<TRIPOS>ATOM
      1  C         22.5150  -22.0620  -10.4200 C.ar    1  UNL1       -0.0000
      2  C         22.4030  -23.2470   -9.7160 C.ar    1  UNL1        0.0190
      3  C         23.4540  -24.0830   -9.0720 C.3     1  UNL1        0.0690
      4  N         21.0580  -23.5590   -9.6760 N.ar    1  UNL1       -0.3470
      5  C         20.3150  -22.6030  -10.3540 C.ar    1  UNL1        0.0450
      6  C         18.9310  -22.4910  -10.5820 C.2     1  UNL1        0.0300
      7  C         18.4690  -21.4010  -11.3260 C.2     1  UNL1        0.0020
      8  C         19.3510  -20.4510  -11.8270 C.2     1  UNL1        0.0010
      9  C         20.7250  -20.5650  -11.5910 C.2     1  UNL1        0.0140
     10  C         21.2170  -21.6560  -10.8410 C.ar    1  UNL1        0.0030
     11  C         23.7340  -21.3880  -10.7210 C.3     1  UNL1        0.0350
     12  C         24.2690  -21.1410  -11.9330 C.ar    1  UNL1        0.0820
     13  C         23.6530  -21.4980  -13.2550 C.ar    1  UNL1        0.1620
     14  C         25.6470  -20.5120  -11.9420 C.ar    1  UNL1        0.2830
     15  N         24.4890  -21.3640  -14.3480 N.ar    1  UNL1       -0.1890
     16  N         22.4200  -21.8890  -13.3970 N.pl3   1  UNL1       -0.2810
     17  N         24.0970  -21.7040  -15.6320 N.ar    1  UNL1       -0.1610
     18  C         25.7710  -20.9000  -14.1980 C.ar    1  UNL1        0.2010
     19  C         25.1030  -21.5170  -16.4330 C.ar    1  UNL1        0.0990
     20  S         26.5960  -20.9110  -15.7390 S.2     1  UNL1       -0.0330
     21  N         26.3550  -20.4970  -13.1270 N.ar    1  UNL1       -0.1820
     22  H         22.2830  -22.0660  -14.4020 H       1  UNL1        0.1880
     23  O         26.1290  -20.0470  -10.9150 O.2     1  UNL1       -0.2650
     24  C         25.0530  -21.8090  -17.9030 C.3     1  UNL1        0.0690
     25  C         24.7710  -23.2900  -18.1350 C.3     1  UNL1        0.0020
     26  C         23.2770  -23.5770  -18.1530 C.3     1  UNL1        0.0050
     27  C         20.4640  -24.6990   -8.9850 C.3     1  UNL1        0.1560
     28  C         19.6840  -24.2960   -7.7360 C.3     1  UNL1        0.1960
     29  O         18.2840  -24.4480   -7.9790 O.2     1  UNL1       -0.3490
     30  C         17.4280  -23.9510   -7.0280 C.2     1  UNL1        0.0740
     31  C         17.6540  -23.9980   -5.6490 C.2     1  UNL1        0.0380
     32  C         16.7290  -23.4470   -4.7570 C.2     1  UNL1        0.0090
     33  C         15.5570  -22.8520   -5.2270 C.2     1  UNL1       -0.0610
     34  C         14.5980  -22.2150   -4.2680 C.3     1  UNL1        0.0480
     35  C         15.3280  -22.8070   -6.6070 C.2     1  UNL1        0.0160
     36  C         16.2460  -23.3640   -7.5130 C.2     1  UNL1       -0.0280
     37  C         15.9720  -23.2730   -8.9900 C.3     1  UNL1        0.0510
@<TRIPOS>BOND
     1    26    25    1
     2    25    24    1
     3    24    19    1
     4    19    20   ar
     5    19    17   ar
     6    20    18   ar
     7    17    15   ar
     8    22    16    1
     9    15    18   ar
    10    15    13   ar
    11    18    21   ar
    12    16    13    1
    13    13    12   ar
    14    21    14   ar
    15    14    12   ar
    16    14    23    2
    17    12    11    1
    18     8     9    2
    19     8     7    1
    20     9    10    1
    21     7     6    2
    22    10     1   ar
    23    10     5   ar
    24    11     1    1
    25     6     5    1
    26     1     2   ar
    27     5     4   ar
    28     2     4   ar
    29     2     3    1
    30     4    27    1
    31    37    36    1
    32    27    28    1
    33    29    28    1
    34    29    30    1
    35    36    30    2
    36    36    35    1
    37    30    31    1
    38    35    33    2
    39    31    32    2
    40    33    32    1
    41    33    34    1
