@<TRIPOS>MOLECULE
15490_out_ligand_01.pdbqt
 38 43 0 0 0
SMALL
GASTEIGER

@<TRIPOS>ATOM
      1  C         22.8670  -21.5890  -10.3080 C.ar    1  UNL1        0.1770
      2  N         24.1660  -21.6190  -10.3530 N.ar    1  UNL1       -0.2160
      3  C         24.6910  -21.7220  -11.5930 C.ar    1  UNL1        0.1170
      4  S         26.3950  -21.7740  -11.8460 S.2     1  UNL1       -0.0730
      5  C         26.1640  -21.8990  -13.4970 C.ar    1  UNL1       -0.0080
      6  C         24.8510  -21.9020  -13.8800 C.ar    1  UNL1       -0.0260
      7  C         23.9800  -21.8070  -12.7730 C.ar    1  UNL1        0.0760
      8  C         22.5330  -21.7790  -12.7190 C.ar    1  UNL1        0.2680
      9  O         21.8780  -21.8320  -13.7570 O.2     1  UNL1       -0.2670
     10  N         22.0030  -21.6460  -11.4170 N.ar    1  UNL1       -0.2560
     11  C         24.7180  -21.9960  -15.3540 C.3     1  UNL1        0.0410
     12  C         26.1650  -22.3910  -15.7920 C.3     1  UNL1        0.0100
     13  C         27.1210  -21.9950  -14.6220 C.3     1  UNL1        0.0470
     14  S         22.2130  -21.5820   -8.6720 S.3     1  UNL1       -0.0820
     15  C         21.6950  -23.3210   -8.5670 C.3     1  UNL1        0.1850
     16  C         20.3260  -23.5640   -7.9470 C.2     1  UNL1        0.2320
     17  N         19.7110  -22.4670   -7.3870 N.am    1  UNL1       -0.3200
     18  H         19.9850  -21.5460   -7.7260 H       1  UNL1        0.1690
     19  O         19.8040  -24.6760   -8.0640 O.2     1  UNL1       -0.2720
     20  C         18.5270  -22.5390   -6.6870 C.ar    1  UNL1        0.0930
     21  C         18.0710  -21.9930   -5.4910 C.ar    1  UNL1        0.0720
     22  C         16.7830  -22.5340   -5.2010 C.ar    1  UNL1       -0.0260
     23  C         16.3100  -23.3390   -6.2010 C.ar    1  UNL1       -0.0080
     24  C         15.7700  -22.3740   -4.1250 C.3     1  UNL1        0.0410
     25  S         17.3560  -23.5080   -7.4920 S.2     1  UNL1       -0.0750
     26  C         14.9420  -23.8580   -5.9710 C.3     1  UNL1        0.0470
     27  C         14.7360  -23.4930   -4.4670 C.3     1  UNL1        0.0100
     28  C         18.7640  -20.9830   -4.7080 C.2     1  UNL1        0.2520
     29  N         18.8390  -21.2520   -3.3690 N.am    1  UNL1       -0.3660
     30  H         19.5040  -20.6730   -2.8750 H       1  UNL1        0.1590
     31  H         18.7810  -22.2210   -3.0880 H       1  UNL1        0.1590
     32  O         19.2330  -19.9520   -5.1790 O.2     1  UNL1       -0.2680
     33  C         20.5750  -21.5450  -11.3100 C.2     1  UNL1        0.0440
     34  C         19.8040  -22.6890  -11.0590 C.2     1  UNL1        0.0300
     35  C         18.4120  -22.6050  -10.9590 C.2     1  UNL1        0.0020
     36  C         17.7740  -21.3790  -11.1220 C.2     1  UNL1        0.0000
     37  C         18.5250  -20.2390  -11.3970 C.2     1  UNL1        0.0020
     38  C         19.9160  -20.3210  -11.5000 C.2     1  UNL1        0.0300
@<TRIPOS>BOND
     1    12    11    1
     2    12    13    1
     3    11     6    1
     4    13     5    1
     5     6     5   ar
     6     6     7   ar
     7     9     8    2
     8     5     4   ar
     9     7     8   ar
    10     7     3   ar
    11     8    10   ar
    12     4     3   ar
    13     3     2   ar
    14    38    37    1
    15    38    33    2
    16    10    33    1
    17    10     1   ar
    18    37    36    2
    19    33    34    1
    20    36    35    1
    21    34    35    2
    22     2     1   ar
    23     1    14    1
    24    14    15    1
    25    15    16    1
    26    19    16    2
    27    16    17   am
    28    18    17    1
    29    25    20   ar
    30    25    23   ar
    31    17    20    1
    32    20    21   ar
    33    23    26    1
    34    23    22   ar
    35    26    27    1
    36    21    22   ar
    37    21    28    1
    38    22    24    1
    39    32    28    2
    40    28    29   am
    41    27    24    1
    42    29    31    1
    43    29    30    1
