@<TRIPOS>MOLECULE
15712_out_ligand_01.pdbqt
 34 37 0 0 0
SMALL
GASTEIGER

@<TRIPOS>ATOM
      1  N         16.5720  -23.2930   -7.3730 N.pl3   1  UNL1       -0.2100
      2  N         15.6580  -24.0870   -7.9940 N.pl3   1  UNL1       -0.1700
      3  C         15.8410  -23.8760   -9.2970 C.2     1  UNL1        0.0620
      4  C         14.9150  -24.4960  -10.2800 C.3     1  UNL1        0.0730
      5  C         16.9860  -23.0790   -9.5490 C.2     1  UNL1        0.0220
      6  C         17.5020  -22.8030   -8.2870 C.3     1  UNL1        0.1790
      7  C         17.5130  -22.6650  -10.8860 C.3     1  UNL1        0.0540
      8  C         17.6320  -21.1490  -11.0230 C.3     1  UNL1        0.1080
      9  C         19.0360  -20.7520  -11.4400 C.2     1  UNL1        0.2220
     10  O         19.3910  -19.5790  -11.4550 O.2     1  UNL1       -0.2730
     11  N         19.7980  -21.8470  -11.8140 N.am    1  UNL1       -0.3270
     12  H         19.3500  -22.7550  -11.7680 H       1  UNL1        0.1690
     13  C         21.1530  -21.8560  -12.2050 C.2     1  UNL1        0.0370
     14  C         21.4890  -21.1190  -13.3520 C.2     1  UNL1        0.0290
     15  C         22.8060  -21.0760  -13.8180 C.2     1  UNL1        0.0050
     16  C         23.8000  -21.7720  -13.1380 C.2     1  UNL1        0.0420
     17  C         23.4670  -22.5020  -12.0050 C.2     1  UNL1        0.1180
     18  F         24.4260  -23.1730  -11.3530 F       1  UNL1       -0.2060
     19  C         22.1570  -22.5520  -11.5330 C.2     1  UNL1        0.0710
     20  O         18.6260  -22.2070   -7.8710 O.2     1  UNL1       -0.2910
     21  C         19.8500  -22.7650   -8.1350 C.2     1  UNL1        0.0800
     22  C         19.8960  -24.1130   -8.4890 C.2     1  UNL1        0.0370
     23  C         21.1250  -24.7200   -8.7580 C.2     1  UNL1        0.0060
     24  C         22.2990  -23.9700   -8.6890 C.2     1  UNL1        0.0420
     25  C         22.2310  -22.6170   -8.3720 C.2     1  UNL1        0.1190
     26  F         23.3640  -21.9040   -8.2870 F       1  UNL1       -0.2060
     27  C         21.0150  -21.9990   -8.1090 C.2     1  UNL1        0.0790
     28  C         16.5340  -23.1620   -5.9490 C.2     1  UNL1        0.0670
     29  C         17.5820  -23.7730   -5.2300 C.2     1  UNL1        0.0320
     30  C         17.6710  -23.6490   -3.8440 C.2     1  UNL1        0.0020
     31  C         16.7100  -22.9240   -3.1540 C.2     1  UNL1        0.0010
     32  C         15.6410  -22.3560   -3.8460 C.2     1  UNL1        0.0090
     33  C         15.5140  -22.4890   -5.2440 C.2     1  UNL1       -0.0330
     34  C         14.2420  -21.9620   -5.8500 C.3     1  UNL1        0.0500
@<TRIPOS>BOND
     1    15    14    1
     2    15    16    2
     3    14    13    2
     4    16    17    1
     5    13    11    1
     6    13    19    1
     7    17    19    2
     8    17    18    1
     9    11    12    1
    10    11     9   am
    11    10     9    2
    12     9     8    1
    13     8     7    1
    14     7     5    1
    15     4     3    1
    16     5     3    2
    17     5     6    1
    18     3     2    1
    19    23    24    2
    20    23    22    1
    21    24    25    1
    22    22    21    2
    23    25    26    1
    24    25    27    2
    25     6    20    1
    26     6     1    1
    27    21    27    1
    28    21    20    1
    29     2     1    1
    30     1    28    1
    31    28    33    2
    32    28    29    1
    33    34    33    1
    34    33    32    1
    35    29    30    2
    36    32    31    2
    37    30    31    1
