@<TRIPOS>MOLECULE
16183_out_ligand_01.pdbqt
 39 43 0 0 0
SMALL
GASTEIGER

@<TRIPOS>ATOM
      1  C         16.2350  -23.3480   -8.3450 C.2     1  UNL1        0.2280
      2  O         15.8780  -24.4760   -8.0200 O.2     1  UNL1       -0.2730
      3  N         16.4350  -22.2880   -7.4820 N.am    1  UNL1       -0.3260
      4  H         16.5860  -21.3650   -7.8970 H       1  UNL1        0.1690
      5  C         16.4050  -22.9550   -9.8050 C.3     1  UNL1        0.1050
      6  C         17.7570  -23.4010  -10.3420 C.3     1  UNL1        0.1400
      7  N         18.0700  -22.4280  -11.3600 N.am    1  UNL1       -0.3510
      8  C         17.3810  -21.2440  -11.1650 C.2     1  UNL1        0.2200
      9  C         16.4000  -21.4440  -10.0400 C.3     1  UNL1        0.1180
     10  O         17.5560  -20.1950  -11.7640 O.2     1  UNL1       -0.2730
     11  C         19.2810  -22.5130  -12.1650 C.3     1  UNL1        0.1300
     12  C         20.5310  -21.8760  -11.5340 C.3     1  UNL1        0.0600
     13  C         21.5450  -21.4070  -12.5320 C.2     1  UNL1       -0.0290
     14  C         21.3270  -20.5350  -13.5810 C.2     1  UNL1        0.0960
     15  N         22.4990  -20.4020  -14.2770 N.pl3   1  UNL1       -0.3650
     16  C         23.4860  -21.1650  -13.7010 C.2     1  UNL1        0.0430
     17  H         22.6250  -19.8350  -15.1040 H       1  UNL1        0.1650
     18  C         24.8210  -21.3460  -14.0760 C.2     1  UNL1        0.0310
     19  C         22.9240  -21.7930  -12.5910 C.2     1  UNL1       -0.0010
     20  C         25.6070  -22.1990  -13.2950 C.2     1  UNL1        0.0090
     21  C         25.0800  -22.8560  -12.1780 C.2     1  UNL1       -0.0610
     22  C         25.9560  -23.7370  -11.3370 C.3     1  UNL1        0.0480
     23  C         23.7410  -22.6410  -11.8130 C.2     1  UNL1        0.0210
     24  C         16.4770  -22.3000   -6.0660 C.2     1  UNL1        0.0500
     25  C         15.3240  -22.4730   -5.2900 C.2     1  UNL1        0.0300
     26  C         15.4000  -22.5350   -3.8950 C.2     1  UNL1        0.0020
     27  C         16.6300  -22.4360   -3.2540 C.2     1  UNL1        0.0010
     28  C         17.7910  -22.2590   -4.0070 C.2     1  UNL1        0.0190
     29  C         17.7250  -22.1700   -5.4080 C.2     1  UNL1        0.0580
     30  C         18.9750  -21.9490   -6.2020 C.2     1  UNL1        0.2540
     31  O         19.7500  -21.0470   -5.8900 O.2     1  UNL1       -0.2680
     32  N         19.2240  -22.8240   -7.2400 N.am    1  UNL1       -0.3520
     33  H         18.6220  -23.6220   -7.3850 H       1  UNL1        0.1630
     34  C         20.4030  -22.6950   -8.0890 C.3     1  UNL1        0.0840
     35  C         20.9610  -24.0750   -8.4620 C.3     1  UNL1        0.0250
     36  C         22.2300  -23.9610   -9.3030 C.3     1  UNL1        0.0020
     37  C         23.2880  -23.1060   -8.6120 C.3     1  UNL1        0.0000
     38  C         22.7410  -21.7340   -8.2300 C.3     1  UNL1        0.0020
     39  C         21.4730  -21.8490   -7.3900 C.3     1  UNL1        0.0250
@<TRIPOS>BOND
     1    17    15    1
     2    15    16    1
     3    15    14    1
     4    18    16    2
     5    18    20    1
     6    16    19    1
     7    14    13    2
     8    20    21    2
     9    19    13    1
    10    19    23    2
    11    13    12    1
    12    21    23    1
    13    21    22    1
    14    11    12    1
    15    11     7    1
    16    10     8    2
    17     7     8   am
    18     7     6    1
    19     8     9    1
    20     6     5    1
    21     9     5    1
    22     5     1    1
    23    36    37    1
    24    36    35    1
    25    37    38    1
    26    35    34    1
    27     1     2    2
    28     1     3   am
    29    38    39    1
    30    34    39    1
    31    34    32    1
    32     4     3    1
    33     3    24    1
    34    33    32    1
    35    32    30   am
    36    30    31    2
    37    30    29    1
    38    24    29    2
    39    24    25    1
    40    29    28    1
    41    25    26    2
    42    28    27    2
    43    26    27    1
