@<TRIPOS>MOLECULE
16605_out_ligand_01.pdbqt
 36 40 0 0 0
SMALL
GASTEIGER

@<TRIPOS>ATOM
      1  C         20.7300  -21.8390  -11.0360 C.2     1  UNL1       -0.0070
      2  C         21.1560  -22.2480   -9.7930 C.2     1  UNL1        0.1030
      3  N         20.0430  -22.4470   -9.0140 N.pl3   1  UNL1       -0.3550
      4  C         18.8980  -22.1600   -9.7310 C.2     1  UNL1        0.0450
      5  C         17.5410  -22.2090   -9.3680 C.2     1  UNL1        0.0300
      6  C         16.5890  -21.8410  -10.3230 C.2     1  UNL1        0.0020
      7  C         16.9730  -21.4380  -11.5980 C.2     1  UNL1        0.0010
      8  C         18.3240  -21.3940  -11.9530 C.2     1  UNL1        0.0140
      9  C         19.3070  -21.7610  -11.0090 C.2     1  UNL1        0.0020
     10  C         21.5850  -21.4790  -12.1170 C.2     1  UNL1        0.0350
     11  C         22.8320  -21.9050  -12.3970 C.2     1  UNL1        0.0860
     12  C         23.6280  -22.9050  -11.6940 C.2     1  UNL1        0.1830
     13  C         23.5050  -21.2920  -13.5730 C.2     1  UNL1        0.2660
     14  N         24.8360  -23.2360  -11.9440 N.am    1  UNL1       -0.1690
     15  C         25.4900  -22.6270  -12.9810 C.2     1  UNL1        0.3530
     16  O         26.6790  -22.8730  -13.1730 O.2     1  UNL1       -0.2440
     17  N         24.7990  -21.7360  -13.7970 N.am    1  UNL1       -0.2580
     18  O         22.9510  -20.4310  -14.2520 O.2     1  UNL1       -0.2670
     19  O         23.0350  -23.5670  -10.6980 O.2     1  UNL1       -0.3440
     20  H         22.3360  -23.0010  -10.3300 H       1  UNL1        0.2190
     21  C         25.5090  -21.2000  -14.9480 C.3     1  UNL1        0.2020
     22  C         25.0670  -21.9180  -16.1750 C.2     1  UNL1        0.0710
     23  C         25.1380  -23.2370  -16.5770 C.2     1  UNL1        0.0360
     24  C         24.5370  -23.2970  -17.8570 C.2     1  UNL1        0.0270
     25  C         24.1360  -22.0150  -18.1530 C.2     1  UNL1        0.1420
     26  O         24.4520  -21.1710  -17.1370 O.2     1  UNL1       -0.3250
     27  C         20.0850  -22.9000   -7.6340 C.3     1  UNL1        0.1310
     28  C         20.2250  -21.7660   -6.6240 C.3     1  UNL1        0.0470
     29  C         18.8830  -21.3220   -6.0370 C.3     1  UNL1        0.1770
     30  O         18.5010  -22.1760   -4.9520 O.2     1  UNL1       -0.3510
     31  C         17.2150  -22.6410   -4.9930 C.2     1  UNL1        0.0680
     32  C         16.4580  -22.2510   -6.1010 C.2     1  UNL1        0.0370
     33  C         15.1380  -22.6820   -6.2390 C.2     1  UNL1        0.0030
     34  C         14.5760  -23.5200   -5.2730 C.2     1  UNL1        0.0000
     35  C         15.3390  -23.9330   -4.1800 C.2     1  UNL1        0.0030
     36  C         16.6620  -23.5020   -4.0420 C.2     1  UNL1        0.0370
@<TRIPOS>BOND
     1    25    24    2
     2    25    26    1
     3    24    23    1
     4    26    22    1
     5    23    22    2
     6    22    21    1
     7    21    17    1
     8    18    13    2
     9    17    13   am
    10    17    15   am
    11    13    11    1
    12    16    15    2
    13    15    14    1
    14    11    10    2
    15    11    12    1
    16    10     1    1
    17     8     7    2
    18     8     9    1
    19    14    12    2
    20    12    19    1
    21     7     6    1
    22     1     9    1
    23     1     2    2
    24     9     4    2
    25    19    20    1
    26     6     5    2
    27     2     3    1
    28     4     5    1
    29     4     3    1
    30     3    27    1
    31    27    28    1
    32    28    29    1
    33    33    32    1
    34    33    34    2
    35    32    31    2
    36    29    30    1
    37    34    35    1
    38    31    30    1
    39    31    36    1
    40    35    36    2
