@<TRIPOS>MOLECULE
16654_out_ligand_01.pdbqt
 35 39 0 0 0
SMALL
GASTEIGER

@<TRIPOS>ATOM
      1  N         20.8580  -20.7120  -12.8150 N.pl3   1  UNL1       -0.2810
      2  C         21.7290  -21.5410  -12.3150 C.ar    1  UNL1        0.1620
      3  C         21.5400  -22.2680  -11.0140 C.ar    1  UNL1        0.0830
      4  C         20.4240  -22.3360  -10.2610 C.3     1  UNL1        0.0500
      5  C         22.7360  -23.0250  -10.4590 C.ar    1  UNL1        0.2830
      6  O         22.7120  -23.4840   -9.3200 O.2     1  UNL1       -0.2650
      7  N         23.8450  -23.1880  -11.2640 N.ar    1  UNL1       -0.1820
      8  C         23.8750  -22.5870  -12.4000 C.ar    1  UNL1        0.2020
      9  S         25.2470  -22.7150  -13.4620 S.2     1  UNL1       -0.0100
     10  C         24.4140  -21.6150  -14.5740 C.ar    1  UNL1        0.1920
     11  N         23.2310  -21.2220  -14.1870 N.ar    1  UNL1       -0.1380
     12  N         22.9250  -21.7810  -12.9610 N.ar    1  UNL1       -0.1880
     13  H         21.2620  -20.3690  -13.6970 H       1  UNL1        0.1880
     14  C         19.1600  -21.7810  -10.5830 C.2     1  UNL1        0.0350
     15  C         18.7820  -20.7270  -11.3960 C.2     1  UNL1        0.0310
     16  C         17.3700  -20.6600  -11.4040 C.2     1  UNL1        0.0190
     17  C         16.9110  -21.6770  -10.5980 C.2     1  UNL1        0.0910
     18  N         17.9990  -22.3530  -10.0990 N.pl3   1  UNL1       -0.3570
     19  C         17.8840  -23.4680   -9.1660 C.3     1  UNL1        0.1300
     20  C         16.4970  -23.5340   -8.5290 C.3     1  UNL1        0.0470
     21  C         16.5000  -24.3870   -7.2640 C.3     1  UNL1        0.1770
     22  O         17.6730  -24.1710   -6.4840 O.2     1  UNL1       -0.3490
     23  C         17.6210  -23.3710   -5.3760 C.2     1  UNL1        0.0900
     24  C         16.7830  -23.5770   -4.2750 C.2     1  UNL1        0.0380
     25  C         16.8050  -22.6960   -3.1880 C.2     1  UNL1        0.0030
     26  C         17.6640  -21.6000   -3.1880 C.2     1  UNL1        0.0020
     27  C         18.5030  -21.3800   -4.2770 C.2     1  UNL1        0.0260
     28  C         18.4810  -22.2590   -5.3640 C.2     1  UNL1        0.0670
     29 CL         19.5420  -21.9280   -6.6900 Cl      1  UNL1       -0.0810
     30  N         25.0100  -21.2430  -15.7670 N.pl3   1  UNL1       -0.3550
     31  C         25.8300  -20.0100  -15.7770 C.3     1  UNL1        0.1510
     32  C         25.9730  -19.4510  -17.1950 C.3     1  UNL1        0.1870
     33  O         26.5050  -20.4360  -18.0900 O.3     1  UNL1       -0.3880
     34  C         25.6230  -21.5620  -18.1530 C.3     1  UNL1        0.1870
     35  C         25.4550  -22.2250  -16.7780 C.3     1  UNL1        0.1510
@<TRIPOS>BOND
     1    34    33    1
     2    34    35    1
     3    33    32    1
     4    32    31    1
     5    35    30    1
     6    31    30    1
     7    30    10    1
     8    10    11   ar
     9    10     9   ar
    10    11    12   ar
    11    13     1    1
    12     9     8   ar
    13    12     8   ar
    14    12     2   ar
    15     1     2    1
    16     8     7   ar
    17     2     3   ar
    18    16    15    1
    19    16    17    2
    20    15    14    2
    21     7     5   ar
    22     3     5   ar
    23     3     4    1
    24    17    18    1
    25    14     4    1
    26    14    18    1
    27     5     6    2
    28    18    19    1
    29    19    20    1
    30    20    21    1
    31    21    22    1
    32    29    28    1
    33    22    23    1
    34    23    28    2
    35    23    24    1
    36    28    27    1
    37    27    26    2
    38    24    25    2
    39    25    26    1
