@<TRIPOS>MOLECULE
16676_out_ligand_01.pdbqt
 41 44 0 0 0
SMALL
GASTEIGER

@<TRIPOS>ATOM
      1  C         20.2760  -23.9640   -9.1200 C.ar    1  UNL1        0.1610
      2  N         21.5670  -24.3220   -8.9530 N.ar    1  UNL1       -0.1310
      3  N         22.5680  -23.7060   -9.6500 N.ar    1  UNL1       -0.1470
      4  C         22.2800  -22.7190  -10.5250 C.ar    1  UNL1        0.1000
      5  C         20.9530  -22.3250  -10.7860 C.ar    1  UNL1        0.0090
      6  C         20.5990  -21.3360  -11.7410 C.2     1  UNL1        0.0150
      7  C         19.2700  -20.9770  -11.9690 C.2     1  UNL1        0.0010
      8  C         18.2590  -21.6050  -11.2600 C.2     1  UNL1        0.0010
      9  C         18.5790  -22.5890  -10.3240 C.2     1  UNL1        0.0160
     10  C         19.9220  -22.9680  -10.0610 C.ar    1  UNL1        0.0240
     11  C         23.4670  -22.1070  -11.1390 C.2     1  UNL1       -0.0030
     12  C         24.4940  -21.5800  -10.3470 C.2     1  UNL1        0.0140
     13  C         25.6180  -20.9840  -10.9290 C.2     1  UNL1        0.0090
     14  C         25.7570  -20.8900  -12.3240 C.2     1  UNL1       -0.0390
     15  C         26.9890  -20.2240  -12.8650 C.3     1  UNL1        0.0500
     16  C         24.7290  -21.4160  -13.1240 C.2     1  UNL1        0.0860
     17  C         23.5930  -22.0010  -12.5320 C.2     1  UNL1        0.0390
     18  S         24.7420  -21.3950  -14.9100 S.O2    1  UNL1        0.2590
     19  O         25.2580  -20.1400  -15.4050 O.2     1  UNL1       -0.2010
     20  O         23.4780  -21.9280  -15.3620 O.2     1  UNL1       -0.2010
     21  N         25.8870  -22.5610  -15.2580 N.3     1  UNL1       -0.3130
     22  H         26.6570  -22.2780  -15.8590 H       1  UNL1        0.1720
     23  C         25.6620  -23.9600  -14.9170 C.3     1  UNL1        0.1580
     24  C         26.6650  -24.4150  -13.8600 C.3     1  UNL1        0.1840
     25  O         26.0150  -24.6190  -12.6100 O.3     1  UNL1       -0.3990
     26  H         26.0640  -23.7810  -12.1180 H       1  UNL1        0.2090
     27  N         19.2580  -24.5770   -8.3390 N.pl3   1  UNL1       -0.3390
     28  H         18.7110  -25.1830   -8.9460 H       1  UNL1        0.1670
     29  C         18.4460  -23.9840   -7.3470 C.2     1  UNL1        0.0340
     30  C         17.1160  -24.3480   -7.1370 C.2     1  UNL1        0.0320
     31  C         16.3260  -23.6950   -6.1830 C.2     1  UNL1        0.0400
     32  C         16.8380  -22.6340   -5.4250 C.2     1  UNL1        0.0840
     33  C         18.1660  -22.2240   -5.6540 C.2     1  UNL1        0.0670
     34  C         18.9440  -22.8960   -6.6200 C.2     1  UNL1        0.0490
     35  O         16.1090  -21.9650   -4.4750 O.2     1  UNL1       -0.3550
     36  C         14.7410  -22.3240   -4.3100 C.3     1  UNL1        0.2100
     37  C         18.8510  -21.0970   -4.9430 C.2     1  UNL1        0.2520
     38  N         18.5940  -20.9090   -3.6180 N.am    1  UNL1       -0.3660
     39  H         19.0650  -20.1590   -3.1340 H       1  UNL1        0.1590
     40  H         17.9670  -21.5210   -3.1120 H       1  UNL1        0.1590
     41  O         19.6290  -20.3480   -5.5260 O.2     1  UNL1       -0.2680
@<TRIPOS>BOND
     1    22    21    1
     2    19    18    2
     3    20    18    2
     4    21    23    1
     5    21    18    1
     6    23    24    1
     7    18    16    1
     8    24    25    1
     9    16    17    1
    10    16    14    2
    11    15    14    1
    12    25    26    1
    13    17    11    2
    14    14    13    1
    15     7     6    2
    16     7     8    1
    17     6     5    1
    18     8     9    2
    19    11     4    1
    20    11    12    1
    21    13    12    2
    22     5     4   ar
    23     5    10   ar
    24     4     3   ar
    25     9    10    1
    26    10     1   ar
    27     3     2   ar
    28     1     2   ar
    29     1    27    1
    30    28    27    1
    31    27    29    1
    32    29    30    2
    33    29    34    1
    34    30    31    1
    35    34    33    2
    36    31    32    2
    37    33    32    1
    38    33    37    1
    39    41    37    2
    40    32    35    1
    41    37    38   am
    42    35    36    1
    43    38    39    1
    44    38    40    1
