@<TRIPOS>MOLECULE
1673_out_ligand_01.pdbqt
 35 38 0 0 0
SMALL
GASTEIGER

@<TRIPOS>ATOM
      1  C         19.5620  -23.2920  -10.1270 C.3     1  UNL1        0.1290
      2  C         18.6000  -22.7160  -11.1680 C.3     1  UNL1        0.1220
      3  C         19.0490  -21.3940  -11.7560 C.2     1  UNL1        0.2240
      4  O         18.2630  -20.6160  -12.2890 O.2     1  UNL1       -0.2730
      5  N         20.3880  -21.1270  -11.7260 N.am    1  UNL1       -0.3110
      6  C         21.3490  -21.8850  -11.1320 C.ar    1  UNL1        0.1450
      7  N         22.6280  -21.4620  -11.3400 N.ar    1  UNL1       -0.2060
      8  C         23.5550  -22.1360  -10.7470 C.ar    1  UNL1        0.1710
      9  N         23.3280  -23.2130   -9.9530 N.ar    1  UNL1       -0.3020
     10  C         22.0770  -23.7080   -9.7500 C.ar    1  UNL1        0.2580
     11  O         21.8680  -24.7340   -9.1180 O.2     1  UNL1       -0.2670
     12  C         20.9910  -22.9260  -10.3720 C.ar    1  UNL1        0.0700
     13  H         20.6950  -20.2990  -12.2290 H       1  UNL1        0.1700
     14  H         24.1070  -23.7100   -9.5450 H       1  UNL1        0.1710
     15  C         19.1360  -22.8760   -8.7110 C.2     1  UNL1        0.2310
     16  N         17.9130  -23.3850   -8.3020 N.am    1  UNL1       -0.3270
     17  H         17.4140  -23.9910   -8.9420 H       1  UNL1        0.1690
     18  O         19.8840  -22.1750   -8.0350 O.2     1  UNL1       -0.2720
     19  C         17.2500  -23.1550   -7.0760 C.2     1  UNL1        0.0350
     20  C         17.9110  -23.5600   -5.9120 C.2     1  UNL1        0.0300
     21  C         17.3210  -23.3790   -4.6590 C.2     1  UNL1        0.0090
     22  C         16.0550  -22.7910   -4.5410 C.2     1  UNL1       -0.0560
     23  C         15.4520  -22.6000   -3.1760 C.3     1  UNL1        0.0490
     24  C         15.3840  -22.3730   -5.7070 C.2     1  UNL1       -0.0540
     25  C         15.9910  -22.5660   -6.9620 C.2     1  UNL1        0.0370
     26  C         14.0230  -21.7350   -5.6440 C.3     1  UNL1        0.0490
     27  S         25.2400  -21.7540  -10.8810 S.3     1  UNL1       -0.0870
     28  C         25.8440  -23.2810  -11.6530 C.3     1  UNL1        0.1210
     29  C         25.5500  -23.3060  -13.1340 C.2     1  UNL1       -0.0480
     30  C         25.5030  -24.5260  -13.8320 C.2     1  UNL1        0.0110
     31  C         25.2350  -24.5430  -15.2020 C.2     1  UNL1        0.0430
     32  C         25.0170  -23.3470  -15.8760 C.2     1  UNL1        0.1160
     33  F         24.7550  -23.3670  -17.1890 F       1  UNL1       -0.2060
     34  C         25.0650  -22.1280  -15.2060 C.2     1  UNL1        0.0430
     35  C         25.3340  -22.1080  -13.8350 C.2     1  UNL1        0.0110
@<TRIPOS>BOND
     1    33    32    1
     2    32    34    2
     3    32    31    1
     4    34    35    1
     5    31    30    2
     6    35    29    2
     7    30    29    1
     8    29    28    1
     9     4     3    2
    10    13     5    1
    11     3     5   am
    12     3     2    1
    13     5     6    1
    14    28    27    1
    15     7     6   ar
    16     7     8   ar
    17     2     1    1
    18     6    12   ar
    19    27     8    1
    20     8     9   ar
    21    12     1    1
    22    12    10   ar
    23     1    15    1
    24     9    10   ar
    25     9    14    1
    26    10    11    2
    27    17    16    1
    28    15    16   am
    29    15    18    2
    30    16    19    1
    31    19    25    2
    32    19    20    1
    33    25    24    1
    34    20    21    2
    35    24    26    1
    36    24    22    2
    37    21    22    1
    38    22    23    1
