@<TRIPOS>MOLECULE
16985_out_ligand_01.pdbqt
 39 43 0 0 0
SMALL
GASTEIGER

@<TRIPOS>ATOM
      1  C         21.3900  -21.7820  -12.2160 C.2     1  UNL1        0.0360
      2  C         22.6480  -21.7680  -11.7340 C.2     1  UNL1        0.0740
      3  S         23.0390  -21.9190  -10.0700 S.3     1  UNL1       -0.0830
      4  C         24.5060  -22.9030  -10.2160 C.2     1  UNL1        0.0320
      5  C         24.8530  -23.6760   -9.0930 C.2     1  UNL1        0.0210
      6  C         26.0140  -24.4420   -9.0850 C.2     1  UNL1        0.0020
      7  C         26.8400  -24.4350  -10.1970 C.2     1  UNL1        0.0020
      8  C         26.5030  -23.6670  -11.3160 C.2     1  UNL1        0.0310
      9  C         25.3270  -22.8900  -11.3540 C.2     1  UNL1        0.0550
     10  N         24.9930  -22.1030  -12.5100 N.am    1  UNL1       -0.3080
     11  C         23.7450  -21.5110  -12.7180 C.2     1  UNL1        0.2650
     12  O         23.4980  -20.8270  -13.7150 O.2     1  UNL1       -0.2670
     13  C         20.1700  -21.9830  -11.4300 C.2     1  UNL1       -0.0350
     14  C         20.1430  -22.9180  -10.3910 C.2     1  UNL1        0.0120
     15  C         18.9750  -23.1060   -9.6470 C.2     1  UNL1        0.0180
     16  C         17.8290  -22.3540   -9.9310 C.2     1  UNL1        0.0320
     17  C         17.8510  -21.4270  -10.9820 C.2     1  UNL1        0.0180
     18  C         19.0200  -21.2430  -11.7260 C.2     1  UNL1        0.0120
     19  C         16.6080  -22.5900   -9.1130 C.2     1  UNL1        0.2510
     20  N         16.6970  -22.2630   -7.7770 N.am    1  UNL1       -0.3550
     21  H         17.5980  -22.0350   -7.3800 H       1  UNL1        0.1620
     22  O         15.6110  -23.0810   -9.6280 O.2     1  UNL1       -0.2680
     23  C         15.6040  -22.5100   -6.8490 C.3     1  UNL1        0.1580
     24  C         16.0390  -23.3270   -5.6160 C.3     1  UNL1        0.2400
     25  C         15.0810  -23.2460   -4.4300 C.3     1  UNL1        0.0390
     26  C         15.9260  -23.6220   -3.2190 C.3     1  UNL1        0.0320
     27  C         17.3660  -23.6610   -3.7150 C.3     1  UNL1        0.2730
     28  N         17.3760  -23.0530   -5.0490 N.3     1  UNL1        0.0940
     29  C         17.8510  -21.6680   -5.0640 C.3     1  UNL1        0.2680
     30  C         19.2010  -21.3660   -5.7060 C.3     1  UNL1        0.0370
     31  C         25.9920  -21.8990  -13.5690 C.3     1  UNL1        0.1710
     32  C         25.5020  -22.1150  -14.9960 C.2     1  UNL1       -0.0330
     33  C         25.4030  -21.0390  -15.9000 C.2     1  UNL1        0.0160
     34  C         24.9550  -21.2210  -17.2140 C.2     1  UNL1       -0.0610
     35  C         24.8780  -20.0530  -18.1530 C.3     1  UNL1        0.0480
     36  C         24.6350  -22.5060  -17.6490 C.2     1  UNL1        0.0070
     37  C         24.7490  -23.5910  -16.7800 C.2     1  UNL1        0.0080
     38  C         25.1910  -23.4150  -15.4600 C.2     1  UNL1       -0.0540
     39  C         25.3050  -24.6260  -14.5700 C.3     1  UNL1        0.0490
@<TRIPOS>BOND
     1    35    34    1
     2    36    34    2
     3    36    37    1
     4    34    33    1
     5    37    38    2
     6    33    32    2
     7    38    32    1
     8    38    39    1
     9    32    31    1
    10    12    11    2
    11    31    10    1
    12    11    10   am
    13    11     2    1
    14    10     9    1
    15     1     2    2
    16     1    13    1
    17     2     3    1
    18    18    13    2
    19    18    17    1
    20    13    14    1
    21     9     8    1
    22     9     4    2
    23     8     7    2
    24    17    16    2
    25    14    15    2
    26     4     3    1
    27     4     5    1
    28     7     6    1
    29    16    15    1
    30    16    19    1
    31    22    19    2
    32    19    20   am
    33     5     6    2
    34    20    21    1
    35    20    23    1
    36    23    24    1
    37    30    29    1
    38    24    28    1
    39    24    25    1
    40    29    28    1
    41    28    27    1
    42    25    26    1
    43    27    26    1
