@<TRIPOS>MOLECULE
17002_out_ligand_01.pdbqt
 39 42 0 0 0
SMALL
GASTEIGER

@<TRIPOS>ATOM
      1  C         22.7280  -22.8770  -10.3450 C.2     1  UNL1        0.0340
      2  C         22.6230  -23.7720   -9.2700 C.2     1  UNL1        0.0180
      3  C         21.3770  -24.0410   -8.6990 C.2     1  UNL1        0.0200
      4  C         20.2330  -23.4220   -9.2120 C.ar    1  UNL1        0.0590
      5  C         18.9010  -23.6870   -8.6370 C.ar    1  UNL1        0.2640
      6  O         18.8050  -24.4410   -7.6710 O.2     1  UNL1       -0.2670
      7  N         17.8180  -23.0510   -9.2410 N.ar    1  UNL1       -0.2650
      8  C         17.9280  -22.1660  -10.3020 C.ar    1  UNL1        0.3290
      9  O         16.9850  -21.5590  -10.8080 O.2     1  UNL1       -0.2460
     10  N         19.1840  -21.9490  -10.7930 N.ar    1  UNL1       -0.3070
     11  C         20.3330  -22.5500  -10.2900 C.ar    1  UNL1        0.0530
     12  C         21.5750  -22.2710  -10.8650 C.2     1  UNL1        0.0470
     13  H         19.2250  -21.3130  -11.5800 H       1  UNL1        0.1700
     14  C         24.0750  -22.6230  -10.9240 C.2     1  UNL1        0.2510
     15  N         24.7380  -21.5030  -10.4600 N.am    1  UNL1       -0.3570
     16  H         24.4300  -21.1100   -9.5800 H       1  UNL1        0.1620
     17  O         24.5490  -23.4050  -11.7380 O.2     1  UNL1       -0.2680
     18  C         26.1190  -21.2670  -10.8470 C.3     1  UNL1        0.1270
     19  C         26.2260  -20.2240  -11.9560 C.3     1  UNL1        0.0580
     20  C         25.9130  -20.8090  -13.3120 C.2     1  UNL1       -0.0570
     21  C         26.7880  -21.7320  -13.9050 C.2     1  UNL1        0.0090
     22  C         26.4910  -22.2850  -15.1520 C.2     1  UNL1        0.0250
     23  C         25.3090  -21.9210  -15.8030 C.2     1  UNL1        0.0740
     24  C         24.4320  -21.0000  -15.2290 C.2     1  UNL1        0.0250
     25  C         24.7340  -20.4510  -13.9810 C.2     1  UNL1        0.0090
     26  S         24.9410  -22.6210  -17.3890 S.O2    1  UNL1        0.2390
     27  O         24.4960  -23.9830  -17.2000 O.2     1  UNL1       -0.2060
     28  O         24.1870  -21.6550  -18.1510 O.2     1  UNL1       -0.2060
     29  N         26.4780  -22.7370  -18.0700 N.3     1  UNL1       -0.2250
     30  H         26.9650  -21.8430  -18.1160 H       1  UNL1        0.1360
     31  H         27.0130  -23.4370  -17.5540 H       1  UNL1        0.1360
     32  C         16.4820  -23.3560   -8.7310 C.3     1  UNL1        0.1420
     33  C         15.9690  -22.3250   -7.7100 C.3     1  UNL1        0.0590
     34  C         15.9760  -22.8130   -6.2810 C.2     1  UNL1       -0.0570
     35  C         17.0610  -22.5420   -5.4360 C.2     1  UNL1        0.0070
     36  C         17.0530  -22.9840   -4.1120 C.2     1  UNL1        0.0010
     37  C         15.9660  -23.7020   -3.6210 C.2     1  UNL1        0.0000
     38  C         14.8830  -23.9800   -4.4520 C.2     1  UNL1        0.0010
     39  C         14.8880  -23.5370   -5.7760 C.2     1  UNL1        0.0070
@<TRIPOS>BOND
     1    28    26    2
     2    30    29    1
     3    29    31    1
     4    29    26    1
     5    26    27    2
     6    26    23    1
     7    23    24    2
     8    23    22    1
     9    24    25    1
    10    22    21    2
    11    25    20    2
    12    21    20    1
    13    20    19    1
    14    19    18    1
    15    17    14    2
    16    13    10    1
    17    14    15   am
    18    14     1    1
    19    12     1    2
    20    12    11    1
    21    18    15    1
    22     9     8    2
    23    10     8   ar
    24    10    11   ar
    25    15    16    1
    26     1     2    1
    27     8     7   ar
    28    11     4   ar
    29     2     3    2
    30     7    32    1
    31     7     5   ar
    32     4     3    1
    33     4     5   ar
    34    32    33    1
    35     5     6    2
    36    33    34    1
    37    34    39    2
    38    34    35    1
    39    39    38    1
    40    35    36    2
    41    38    37    2
    42    36    37    1
