@<TRIPOS>MOLECULE
17122_out_ligand_01.pdbqt
 36 40 0 0 0
SMALL
GASTEIGER

@<TRIPOS>ATOM
      1  C         18.8190  -21.8770  -10.7770 C.2     1  UNL1        0.0330
      2  C         19.0810  -20.9560  -11.8010 C.2     1  UNL1        0.0170
      3  C         20.3560  -20.8830  -12.3690 C.2     1  UNL1        0.0030
      4  C         21.3690  -21.7320  -11.9220 C.2     1  UNL1        0.0240
      5  C         21.1100  -22.6520  -10.9060 C.2     1  UNL1        0.0230
      6  C         19.8360  -22.7400  -10.3440 C.2     1  UNL1        0.0410
      7  N         22.1450  -23.5580  -10.4980 N.pl3   1  UNL1       -0.1810
      8  H         22.5960  -23.9810  -11.3140 H       1  UNL1        0.1460
      9  S         23.3940  -22.8220   -9.5910 S.O2    1  UNL1        0.2460
     10  O         22.8160  -21.6350   -8.9980 O.2     1  UNL1       -0.2060
     11  O         24.1020  -23.8110   -8.8080 O.2     1  UNL1       -0.2060
     12  C         24.4850  -22.3090  -10.8940 C.2     1  UNL1        0.0770
     13  C         25.2290  -21.1340  -10.7690 C.2     1  UNL1        0.0280
     14  C         26.0840  -20.7550  -11.8050 C.2     1  UNL1        0.0410
     15  C         26.1950  -21.5420  -12.9560 C.2     1  UNL1        0.1020
     16  C         25.4870  -22.7510  -13.0470 C.2     1  UNL1        0.1030
     17  O         27.0350  -21.0370  -13.9180 O.2     1  UNL1       -0.3480
     18  C         24.6110  -23.1200  -12.0250 C.2     1  UNL1        0.0640
     19  O         25.5690  -23.6430  -14.0880 O.2     1  UNL1       -0.3480
     20  C         26.8830  -23.7510  -14.6370 C.3     1  UNL1        0.1780
     21  C         27.1200  -22.6910  -15.6980 C.3     1  UNL1        0.0530
     22  C         26.6210  -21.3270  -15.2530 C.3     1  UNL1        0.1780
     23  C         17.4720  -22.0100  -10.1480 C.2     1  UNL1        0.2510
     24  O         16.6470  -21.1120  -10.2790 O.2     1  UNL1       -0.2680
     25  N         17.2170  -23.1790   -9.4620 N.am    1  UNL1       -0.3530
     26  H         17.8280  -23.9730   -9.5840 H       1  UNL1        0.1630
     27  C         15.9230  -23.4400   -8.8700 C.3     1  UNL1        0.1610
     28  C         15.9850  -23.3320   -7.3680 C.2     1  UNL1       -0.0380
     29  C         15.0080  -22.5790   -6.6740 C.2     1  UNL1        0.0120
     30  C         15.0380  -22.4690   -5.2810 C.2     1  UNL1        0.0400
     31  C         16.0480  -23.1210   -4.6080 C.2     1  UNL1        0.1050
     32  C         16.9960  -23.8660   -5.2700 C.2     1  UNL1        0.1050
     33  O         16.2310  -23.1290   -3.2610 O.2     1  UNL1       -0.3230
     34  C         16.9910  -23.9930   -6.6440 C.2     1  UNL1        0.0480
     35  O         17.8870  -24.4450   -4.4230 O.2     1  UNL1       -0.3230
     36  C         17.4150  -23.9480   -3.1530 C.3     1  UNL1        0.3520
@<TRIPOS>BOND
     1    21    22    1
     2    21    20    1
     3    22    17    1
     4    20    19    1
     5    19    16    1
     6    17    15    1
     7    16    15    2
     8    16    18    1
     9    15    14    1
    10     3     4    2
    11     3     2    1
    12    18    12    2
    13     4     5    1
    14    14    13    2
    15     2     1    2
    16     8     7    1
    17     5     7    1
    18     5     6    2
    19    12    13    1
    20    12     9    1
    21     1     6    1
    22     1    23    1
    23     7     9    1
    24    24    23    2
    25    23    25   am
    26     9    10    2
    27     9    11    2
    28    26    25    1
    29    25    27    1
    30    27    28    1
    31    28    29    2
    32    28    34    1
    33    29    30    1
    34    34    32    2
    35    30    31    2
    36    32    31    1
    37    32    35    1
    38    31    33    1
    39    35    36    1
    40    33    36    1
