@<TRIPOS>MOLECULE
1729_out_ligand_01.pdbqt
 30 33 0 0 0
SMALL
GASTEIGER

@<TRIPOS>ATOM
      1  N         21.2500  -23.0080   -9.9910 N.ar    1  UNL1       -0.2890
      2  C         20.6320  -22.2410  -10.9910 C.ar    1  UNL1        0.1810
      3  S         19.0120  -21.8020  -11.0610 S.2     1  UNL1       -0.0400
      4  N         21.4230  -21.7960  -12.0240 N.ar    1  UNL1       -0.3310
      5  C         22.7730  -22.0580  -12.0970 C.ar    1  UNL1        0.0690
      6  C         23.3590  -22.7800  -11.0990 C.ar    1  UNL1        0.1010
      7  S         25.0170  -23.0020  -11.3430 S.2     1  UNL1       -0.0820
      8  C         24.9810  -22.1150  -12.8260 C.ar    1  UNL1        0.0180
      9  C         26.0710  -21.8510  -13.6790 C.2     1  UNL1        0.0200
     10  C         25.8540  -21.1110  -14.8430 C.2     1  UNL1        0.0010
     11  C         24.5850  -20.6440  -15.1560 C.2     1  UNL1        0.0010
     12  C         23.5040  -20.9070  -14.3090 C.2     1  UNL1        0.0150
     13  C         23.6900  -21.6550  -13.1200 C.ar    1  UNL1        0.0090
     14  C         22.6380  -23.2900   -9.9640 C.ar    1  UNL1        0.2690
     15  O         23.1670  -23.9030   -9.0370 O.2     1  UNL1       -0.2660
     16  H         20.9850  -21.2480  -12.7570 H       1  UNL1        0.1680
     17  C         20.4940  -23.5250   -8.8390 C.3     1  UNL1        0.1390
     18  C         20.3340  -22.4650   -7.7420 C.3     1  UNL1        0.0590
     19  C         19.1410  -22.7510   -6.8640 C.2     1  UNL1       -0.0570
     20  C         18.7350  -21.8230   -5.8940 C.2     1  UNL1        0.0090
     21  C         17.6240  -22.0810   -5.0900 C.2     1  UNL1        0.0250
     22  C         16.9090  -23.2690   -5.2650 C.2     1  UNL1        0.0740
     23  C         17.3040  -24.2060   -6.2230 C.2     1  UNL1        0.0250
     24  C         18.4140  -23.9410   -7.0250 C.2     1  UNL1        0.0090
     25  S         15.5040  -23.5960   -4.2360 S.O2    1  UNL1        0.2390
     26  O         15.9170  -24.4560   -3.1530 O.2     1  UNL1       -0.2060
     27  O         14.3720  -23.8970   -5.0820 O.2     1  UNL1       -0.2060
     28  N         15.1950  -22.0680   -3.5980 N.3     1  UNL1       -0.2250
     29  H         15.8440  -21.8030   -2.8580 H       1  UNL1        0.1360
     30  H         15.1880  -21.3880   -4.3610 H       1  UNL1        0.1360
@<TRIPOS>BOND
     1    11    10    2
     2    11    12    1
     3    10     9    1
     4    12    13    2
     5     9     8    2
     6    13     8   ar
     7    13     5   ar
     8     8     7   ar
     9    16     4    1
    10     5     4   ar
    11     5     6   ar
    12     4     2   ar
    13     7     6   ar
    14     6    14   ar
    15     3     2    2
    16     2     1   ar
    17     1    14   ar
    18     1    17    1
    19    14    15    2
    20    17    18    1
    21    18    19    1
    22    24    19    2
    23    24    23    1
    24    19    20    1
    25    23    22    2
    26    20    21    2
    27    22    21    1
    28    22    25    1
    29    27    25    2
    30    30    28    1
    31    25    28    1
    32    25    26    2
    33    28    29    1
