@<TRIPOS>MOLECULE
17398_out_ligand_01.pdbqt
 35 38 0 0 0
SMALL
GASTEIGER

@<TRIPOS>ATOM
      1  O         23.8820  -21.2410   -9.9040 O.2     1  UNL1       -0.2710
      2  C         23.9950  -22.4200  -10.2290 C.2     1  UNL1        0.2420
      3  N         23.1570  -23.4530   -9.8450 N.am    1  UNL1       -0.3260
      4  H         23.4200  -24.3700  -10.1870 H       1  UNL1        0.1690
      5  C         21.9920  -23.3820   -9.0590 C.2     1  UNL1        0.0340
      6  C         21.1270  -24.4850   -9.1050 C.2     1  UNL1        0.0310
      7  C         19.9450  -24.4990   -8.3580 C.2     1  UNL1        0.0270
      8  C         19.6230  -23.3960   -7.5650 C.2     1  UNL1        0.0790
      9  C         20.4820  -22.2980   -7.4950 C.2     1  UNL1        0.0270
     10  C         21.6610  -22.2940   -8.2480 C.2     1  UNL1        0.0310
     11  S         18.1250  -23.4180   -6.6120 S.O2    1  UNL1        0.2590
     12  O         17.6550  -24.7860   -6.5720 O.2     1  UNL1       -0.2010
     13  O         18.3460  -22.6500   -5.4070 O.2     1  UNL1       -0.2010
     14  N         17.0610  -22.5690   -7.5770 N.3     1  UNL1       -0.3090
     15  H         16.4250  -21.9510   -7.0770 H       1  UNL1        0.1720
     16  C         16.5530  -23.2020   -8.7880 C.3     1  UNL1        0.1970
     17  C         17.1460  -22.4880   -9.9470 C.2     1  UNL1        0.0700
     18  C         18.2270  -22.7370  -10.7660 C.2     1  UNL1        0.0360
     19  C         18.2830  -21.6670  -11.6920 C.2     1  UNL1        0.0270
     20  C         17.2370  -20.8330  -11.3760 C.2     1  UNL1        0.1420
     21  O         16.5420  -21.3190  -10.3160 O.2     1  UNL1       -0.3250
     22  C         25.1990  -22.8730  -11.0670 C.3     1  UNL1        0.2550
     23  N         25.1560  -22.4660  -12.4720 N.ar    1  UNL1       -0.2450
     24  N         25.3440  -21.1020  -12.7110 N.ar    1  UNL1       -0.2600
     25  C         25.2160  -20.5500  -13.9620 C.ar    1  UNL1        0.2710
     26  H         25.2750  -20.4470  -11.9350 H       1  UNL1        0.1900
     27  O         25.2230  -19.3360  -14.1250 O.2     1  UNL1       -0.2660
     28  C         25.0940  -21.4820  -15.0970 C.ar    1  UNL1        0.0490
     29  C         25.0570  -20.9820  -16.4050 C.2     1  UNL1        0.0180
     30  C         25.0190  -22.8550  -14.8720 C.ar    1  UNL1        0.0490
     31  C         24.9490  -21.8600  -17.4850 C.2     1  UNL1        0.0010
     32  C         24.8750  -23.2350  -17.2610 C.2     1  UNL1        0.0010
     33  C         24.9100  -23.7340  -15.9590 C.2     1  UNL1        0.0180
     34  C         25.0440  -23.3920  -13.4950 C.ar    1  UNL1        0.2730
     35  O         24.9800  -24.6010  -13.3030 O.2     1  UNL1       -0.2660
@<TRIPOS>BOND
     1    31    32    2
     2    31    29    1
     3    32    33    1
     4    29    28    2
     5    33    30    2
     6    28    30   ar
     7    28    25   ar
     8    30    34   ar
     9    27    25    2
    10    25    24   ar
    11    34    35    2
    12    34    23   ar
    13    24    23   ar
    14    24    26    1
    15    23    22    1
    16    19    20    2
    17    19    18    1
    18    20    21    1
    19    22     2    1
    20    18    17    2
    21    21    17    1
    22     2     1    2
    23     2     3   am
    24     4     3    1
    25    17    16    1
    26     3     5    1
    27     6     5    2
    28     6     7    1
    29     5    10    1
    30    16    14    1
    31     7     8    2
    32    10     9    2
    33    14    15    1
    34    14    11    1
    35     8     9    1
    36     8    11    1
    37    11    12    2
    38    11    13    2
