@<TRIPOS>MOLECULE
17515_out_ligand_01.pdbqt
 34 37 0 0 0
SMALL
GASTEIGER

@<TRIPOS>ATOM
      1  C         24.0640  -22.7450  -11.1990 C.2     1  UNL1        0.0240
      2  C         25.3400  -23.1230  -10.7460 C.2     1  UNL1        0.0240
      3  C         26.5030  -22.5450  -11.2670 C.2     1  UNL1        0.0020
      4  C         26.4190  -21.5900  -12.2750 C.2     1  UNL1        0.0010
      5  C         25.1730  -21.2390  -12.7880 C.2     1  UNL1        0.0190
      6  C         24.0030  -21.8330  -12.2820 C.2     1  UNL1        0.0530
      7  N         22.8980  -23.3650  -10.6980 N.pl3   1  UNL1       -0.2830
      8  H         22.0840  -22.7580  -10.9100 H       1  UNL1        0.1280
      9  C         22.8400  -23.7410   -9.2780 C.3     1  UNL1        0.1950
     10  C         22.1330  -22.6700   -8.4280 C.2     1  UNL1        0.2350
     11  O         22.6290  -21.5530   -8.2930 O.2     1  UNL1       -0.2720
     12  N         20.9340  -23.1170   -7.8870 N.am    1  UNL1       -0.3250
     13  H         20.6790  -24.0660   -8.1090 H       1  UNL1        0.1690
     14  C         20.0520  -22.4260   -7.0140 C.2     1  UNL1        0.0450
     15  C         20.4210  -21.2100   -6.4240 C.2     1  UNL1        0.0300
     16  C         19.5670  -20.5510   -5.5450 C.2     1  UNL1        0.0030
     17  C         18.3270  -21.1000   -5.2370 C.2     1  UNL1        0.0120
     18  C         17.9160  -22.3130   -5.8110 C.2     1  UNL1       -0.0240
     19  C         16.6470  -22.8310   -5.4920 C.2     1  UNL1        0.0120
     20  C         18.7710  -23.0000   -6.7140 C.2     1  UNL1        0.0010
     21  C         16.1900  -24.0200   -6.0590 C.2     1  UNL1        0.0010
     22  C         17.0000  -24.7060   -6.9520 C.2     1  UNL1        0.0010
     23  C         18.2680  -24.2060   -7.2730 C.2     1  UNL1        0.0140
     24  C         22.6890  -21.4690  -12.8920 C.2     1  UNL1        0.2530
     25  O         22.5940  -21.2900  -14.1020 O.2     1  UNL1       -0.2680
     26  N         21.6380  -21.3040  -12.0100 N.am    1  UNL1       -0.3530
     27  H         21.8660  -21.1890  -11.0310 H       1  UNL1        0.1630
     28  C         20.3890  -20.7170  -12.4450 C.3     1  UNL1        0.1610
     29  C         19.2320  -21.3170  -11.6870 C.2     1  UNL1       -0.0410
     30  C         19.3730  -22.5350  -11.0030 C.2     1  UNL1        0.0090
     31  C         18.3060  -23.0590  -10.2670 C.2     1  UNL1        0.0010
     32  C         17.0940  -22.3700  -10.2020 C.2     1  UNL1        0.0000
     33  C         16.9430  -21.1570  -10.8750 C.2     1  UNL1        0.0010
     34  C         18.0070  -20.6330  -11.6120 C.2     1  UNL1        0.0090
@<TRIPOS>BOND
     1    25    24    2
     2    24     6    1
     3    24    26   am
     4     5     6    1
     5     5     4    2
     6    28    26    1
     7    28    29    1
     8     6     1    2
     9     4     3    1
    10    26    27    1
    11    29    34    2
    12    29    30    1
    13    34    33    1
    14     3     2    2
    15     1     2    1
    16     1     7    1
    17    30    31    2
    18     8     7    1
    19    33    32    2
    20     7     9    1
    21    31    32    1
    22     9    10    1
    23    10    11    2
    24    10    12   am
    25    13    12    1
    26    12    14    1
    27    23    22    2
    28    23    20    1
    29    14    20    2
    30    14    15    1
    31    22    21    1
    32    20    18    1
    33    15    16    2
    34    21    19    2
    35    18    19    1
    36    18    17    2
    37    16    17    1
