@<TRIPOS>MOLECULE
18091_out_ligand_01.pdbqt
 37 39 0 0 0
SMALL
GASTEIGER

@<TRIPOS>ATOM
      1  C         15.7050  -22.8040   -6.5330 C.2     1  UNL1        0.0650
      2  C         16.6670  -22.4870   -5.6490 C.2     1  UNL1        0.1150
      3  C         16.3480  -22.3590   -4.2690 C.1     1  UNL1        0.1050
      4  N         16.0660  -22.2000   -3.1530 N.1     1  UNL1       -0.1910
      5  C         18.0920  -22.2770   -6.0190 C.2     1  UNL1        0.2660
      6  O         18.7520  -21.4270   -5.4370 O.2     1  UNL1       -0.2670
      7  N         18.5150  -23.1300   -7.0220 N.am    1  UNL1       -0.3220
      8  H         17.8450  -23.7990   -7.3860 H       1  UNL1        0.1690
      9  C         19.8000  -23.1830   -7.6090 C.2     1  UNL1        0.0350
     10  C         20.7380  -22.1490   -7.5320 C.2     1  UNL1        0.0320
     11  C         21.9860  -22.2770   -8.1480 C.2     1  UNL1        0.0440
     12  C         22.2980  -23.4420   -8.8390 C.2     1  UNL1        0.1160
     13  F         23.4910  -23.5560   -9.4370 F       1  UNL1       -0.2060
     14  C         21.3820  -24.4820   -8.9270 C.2     1  UNL1        0.0440
     15  C         20.1330  -24.3510   -8.3130 C.2     1  UNL1        0.0320
     16  C         15.8400  -22.9390   -7.9460 C.2     1  UNL1        0.0770
     17  C         15.5050  -23.9480   -8.8450 C.2     1  UNL1        0.0400
     18  C         15.9150  -23.5450  -10.1410 C.2     1  UNL1        0.0370
     19  C         16.4850  -22.3050   -9.9910 C.2     1  UNL1        0.0710
     20  O         16.4440  -21.9350   -8.6800 O.2     1  UNL1       -0.3130
     21  C         17.0850  -21.3430  -10.9450 C.3     1  UNL1        0.1880
     22  N         18.3930  -21.8070  -11.3250 N.am    1  UNL1       -0.3470
     23  C         19.4420  -20.9690  -11.6030 C.2     1  UNL1        0.3100
     24  O         19.4210  -19.7460  -11.5780 O.2     1  UNL1       -0.2620
     25  H         18.5500  -22.8050  -11.4370 H       1  UNL1        0.1630
     26  C         20.7520  -21.7100  -11.9610 C.2     1  UNL1        0.3130
     27  N         21.5440  -20.9630  -12.8050 N.am    1  UNL1       -0.3190
     28  H         21.1370  -20.0720  -13.0810 H       1  UNL1        0.1690
     29  O         20.9510  -22.8160  -11.4800 O.2     1  UNL1       -0.2620
     30  C         22.8240  -21.2740  -13.2950 C.2     1  UNL1        0.0350
     31  C         23.1930  -20.7120  -14.5190 C.2     1  UNL1        0.0300
     32  C         24.4560  -20.9610  -15.0630 C.2     1  UNL1        0.0090
     33  C         25.3780  -21.7770  -14.3930 C.2     1  UNL1       -0.0560
     34  C         26.7280  -22.0200  -15.0070 C.3     1  UNL1        0.0490
     35  C         25.0070  -22.3630  -13.1650 C.2     1  UNL1       -0.0540
     36  C         23.7340  -22.0950  -12.6250 C.2     1  UNL1        0.0370
     37  C         25.9610  -23.2350  -12.3910 C.3     1  UNL1        0.0490
@<TRIPOS>BOND
     1    32    31    1
     2    32    33    2
     3    34    33    1
     4    31    30    2
     5    33    35    1
     6    30    27    1
     7    30    36    1
     8    35    36    2
     9    35    37    1
    10    28    27    1
    11    27    26   am
    12    26    23    1
    13    26    29    2
    14    23    24    2
    15    23    22   am
    16    25    22    1
    17    22    21    1
    18    21    19    1
    19    18    19    2
    20    18    17    1
    21    19    20    1
    22    13    12    1
    23    14    12    2
    24    14    15    1
    25    17    16    2
    26    12    11    1
    27    20    16    1
    28    15     9    2
    29    11    10    2
    30    16     1    1
    31     9    10    1
    32     9     7    1
    33     8     7    1
    34     7     5   am
    35     1     2    2
    36     5     2    1
    37     5     6    2
    38     2     3    1
    39     3     4    3
