@<TRIPOS>MOLECULE
18541_out_ligand_01.pdbqt
 29 32 0 0 0
SMALL
GASTEIGER

@<TRIPOS>ATOM
      1  N         25.2110  -22.0720  -11.4240 N.ar    1  UNL1       -0.2830
      2  C         25.2630  -21.3440  -12.5940 C.ar    1  UNL1        0.3310
      3  O         26.2950  -20.8750  -13.0690 O.2     1  UNL1       -0.2460
      4  N         24.0780  -21.1480  -13.2460 N.ar    1  UNL1       -0.2740
      5  C         22.8480  -21.5970  -12.8530 C.ar    1  UNL1        0.2630
      6  O         21.8350  -21.4140  -13.5160 O.2     1  UNL1       -0.2670
      7  C         22.8060  -22.3280  -11.5870 C.ar    1  UNL1        0.0790
      8  C         21.5920  -22.7980  -11.0730 C.2     1  UNL1        0.0390
      9  C         21.6060  -23.5020   -9.8730 C.2     1  UNL1        0.0510
     10  C         22.8190  -23.6610   -9.2200 C.2     1  UNL1        0.1360
     11  N         24.0040  -23.2150   -9.7130 N.2     1  UNL1       -0.2410
     12  C         23.9900  -22.5500  -10.8950 C.ar    1  UNL1        0.1490
     13  H         24.1270  -20.6300  -14.1110 H       1  UNL1        0.1730
     14  C         20.3710  -24.0030   -9.2340 C.2     1  UNL1        0.2590
     15  O         20.4730  -25.1080   -8.7070 O.2     1  UNL1       -0.2670
     16  N         19.2110  -23.2090   -9.2910 N.am    1  UNL1       -0.3130
     17  C         19.0370  -22.2000  -10.3450 C.3     1  UNL1        0.1330
     18  C         18.1170  -23.3740   -8.3620 C.2     1  UNL1        0.0430
     19  C         17.6220  -22.1690  -10.8950 C.3     1  UNL1        0.0250
     20  C         16.6650  -21.8210   -9.7740 C.3     1  UNL1        0.0420
     21  C         16.8940  -22.7050   -8.5760 C.2     1  UNL1       -0.0310
     22  C         15.8430  -22.8250   -7.6450 C.2     1  UNL1        0.0160
     23  C         15.9800  -23.6070   -6.4970 C.2     1  UNL1       -0.0610
     24  C         14.8410  -23.7610   -5.5340 C.3     1  UNL1        0.0480
     25  C         17.1810  -24.2830   -6.2910 C.2     1  UNL1        0.0090
     26  C         18.2350  -24.1570   -7.2050 C.2     1  UNL1        0.0310
     27  C         26.4390  -22.2900  -10.6600 C.3     1  UNL1        0.1350
     28  C         27.1150  -23.6110  -11.0320 C.3     1  UNL1        0.0160
     29  C         27.1200  -24.5820   -9.8630 C.3     1  UNL1        0.0060
@<TRIPOS>BOND
     1    13     4    1
     2     6     5    2
     3     4     5   ar
     4     4     2   ar
     5     3     2    2
     6     5     7   ar
     7     2     1   ar
     8     7     8    2
     9     7    12   ar
    10     1    12   ar
    11     1    27    1
    12     8     9    1
    13    28    27    1
    14    28    29    1
    15    12    11    2
    16    19    17    1
    17    19    20    1
    18    17    16    1
    19     9    14    1
    20     9    10    2
    21    20    21    1
    22    11    10    1
    23    16    14   am
    24    16    18    1
    25    14    15    2
    26    21    18    2
    27    21    22    1
    28    18    26    1
    29    22    23    2
    30    26    25    2
    31    23    25    1
    32    23    24    1
