@<TRIPOS>MOLECULE
1859_out_ligand_01.pdbqt
 33 37 0 0 0
SMALL
GASTEIGER

@<TRIPOS>ATOM
      1  C         22.6820  -22.4520  -11.7010 C.2     1  UNL1        0.0900
      2  C         22.3930  -21.6080  -12.7720 C.2     1  UNL1        0.0380
      3  C         21.1310  -21.0210  -12.8690 C.2     1  UNL1        0.0040
      4  C         20.1600  -21.2850  -11.8990 C.2     1  UNL1        0.0150
      5  C         20.4530  -22.1430  -10.8310 C.2     1  UNL1        0.0130
      6  C         21.7140  -22.7440  -10.7420 C.2     1  UNL1        0.0530
      7  C         19.4420  -22.4540   -9.7890 C.ar    1  UNL1        0.1420
      8  N         19.6960  -22.2210   -8.5370 N.ar    1  UNL1       -0.2220
      9  C         18.6910  -22.5400   -7.6790 C.ar    1  UNL1        0.1160
     10  S         18.8520  -22.3130   -5.9950 S.2     1  UNL1       -0.0730
     11  C         17.4550  -23.0590   -8.0090 C.ar    1  UNL1        0.0750
     12  C         17.2760  -22.8940   -5.7060 C.ar    1  UNL1       -0.0080
     13  C         16.6250  -23.2750   -6.8640 C.ar    1  UNL1       -0.0260
     14  C         16.7130  -22.9890   -4.3200 C.3     1  UNL1        0.0510
     15  C         15.2190  -23.7980   -6.8520 C.3     1  UNL1        0.0410
     16  C         14.7620  -24.1850   -5.4360 C.3     1  UNL1        0.0090
     17  C         15.1770  -23.1620   -4.3540 C.3     1  UNL1       -0.0140
     18  C         14.4630  -21.8200   -4.5380 C.3     1  UNL1        0.0100
     19  C         17.1850  -23.2880   -9.4130 C.ar    1  UNL1        0.2600
     20  O         16.1210  -23.7100   -9.8560 O.2     1  UNL1       -0.2670
     21  N         18.2410  -22.9780  -10.2400 N.ar    1  UNL1       -0.3070
     22  H         18.0480  -23.0810  -11.2250 H       1  UNL1        0.1700
     23  O         23.9210  -23.0300  -11.6470 O.2     1  UNL1       -0.2290
     24  S         25.1730  -22.1070  -11.1360 S.3     1  UNL1        0.3030
     25  O         24.6570  -21.0490  -10.2870 O.3     1  UNL1       -0.1930
     26  O         26.2480  -22.9700  -10.6830 O.3     1  UNL1       -0.1930
     27  C         25.7360  -21.3480  -12.6450 C.2     1  UNL1        0.0860
     28  C         25.9080  -22.1460  -13.7790 C.2     1  UNL1        0.0260
     29  C         26.3500  -21.5640  -14.9670 C.2     1  UNL1        0.0080
     30  C         26.6120  -20.1890  -15.0290 C.2     1  UNL1       -0.0620
     31  C         27.1210  -19.5690  -16.2990 C.3     1  UNL1        0.0480
     32  C         26.4540  -19.4050  -13.8770 C.2     1  UNL1        0.0080
     33  C         26.0130  -19.9800  -12.6850 C.2     1  UNL1        0.0260
@<TRIPOS>BOND
     1    31    30    1
     2    30    29    2
     3    30    32    1
     4    29    28    1
     5    32    33    2
     6    28    27    2
     7     3     2    1
     8     3     4    2
     9     2     1    2
    10    33    27    1
    11    27    24    1
    12     4     5    1
    13     1    23    1
    14     1     6    1
    15    23    24    1
    16    22    21    1
    17    24    26    1
    18    24    25    1
    19     5     6    2
    20     5     7    1
    21    21     7   ar
    22    21    19   ar
    23    20    19    2
    24     7     8   ar
    25    19    11   ar
    26     8     9   ar
    27    11     9   ar
    28    11    13   ar
    29     9    10   ar
    30    13    15    1
    31    13    12   ar
    32    15    16    1
    33    10    12   ar
    34    12    14    1
    35    16    17    1
    36    18    17    1
    37    17    14    1
