@<TRIPOS>MOLECULE
18905_out_ligand_01.pdbqt
 31 34 0 0 0
SMALL
GASTEIGER

@<TRIPOS>ATOM
      1  C         18.4240  -22.6670   -9.8150 C.ar    1  UNL1        0.1700
      2  N         19.5060  -23.2530   -9.2500 N.ar    1  UNL1       -0.1630
      3  N         20.5380  -22.8340   -9.9900 N.ar    1  UNL1       -0.2380
      4  C         20.1840  -22.0630  -11.0600 C.ar    1  UNL1        0.1450
      5  C         18.8210  -21.9050  -10.9590 C.ar    1  UNL1        0.1150
      6 CL         17.8430  -21.0090  -12.0230 Cl      1  UNL1       -0.0770
      7  N         21.1100  -21.6430  -11.9560 N.pl3   1  UNL1       -0.3640
      8  C         22.5430  -21.8360  -11.7270 C.3     1  UNL1        0.1250
      9  C         22.7600  -23.1570  -10.9560 C.3     1  UNL1        0.0670
     10  C         21.9030  -23.2190   -9.6810 C.3     1  UNL1        0.2210
     11  H         20.8760  -20.9180  -12.6360 H       1  UNL1        0.1620
     12  C         17.0810  -22.8790   -9.2300 C.2     1  UNL1        0.2740
     13  O         16.2200  -23.5670   -9.7770 O.2     1  UNL1       -0.2660
     14  N         16.8450  -22.2670   -8.0140 N.am    1  UNL1       -0.3510
     15  H         17.6090  -21.8060   -7.5410 H       1  UNL1        0.1630
     16  C         15.6310  -22.4990   -7.2660 C.3     1  UNL1        0.1630
     17  C         15.9330  -22.7580   -5.8180 C.2     1  UNL1       -0.0230
     18  C         17.1020  -23.4160   -5.4250 C.2     1  UNL1        0.0120
     19  C         17.3570  -23.6230   -4.0720 C.2     1  UNL1        0.0200
     20  C         16.4300  -23.1600   -3.1530 C.2     1  UNL1        0.1160
     21  N         15.2920  -22.5180   -3.4930 N.2     1  UNL1       -0.2730
     22  C         15.0710  -22.3320   -4.8130 C.2     1  UNL1        0.1240
     23  C         22.4470  -22.3360   -8.5790 C.3     1  UNL1        0.4090
     24  F         21.6030  -22.2200   -7.5330 F       1  UNL1       -0.1690
     25  F         23.5980  -22.8660   -8.0890 F       1  UNL1       -0.1690
     26  F         22.7480  -21.0900   -9.0050 F       1  UNL1       -0.1690
     27  C         23.3370  -21.8600  -13.0130 C.2     1  UNL1        0.0050
     28  C         23.1490  -21.1040  -14.1560 C.2     1  UNL1        0.0170
     29  C         24.0980  -21.4100  -15.1730 C.2     1  UNL1        0.0080
     30  C         24.9780  -22.3920  -14.7780 C.2     1  UNL1        0.0500
     31  S         24.6610  -22.9370  -13.1890 S.3     1  UNL1       -0.1040
@<TRIPOS>BOND
     1    29    30    2
     2    29    28    1
     3    30    31    1
     4    28    27    2
     5    31    27    1
     6    27     8    1
     7    11     7    1
     8     6     5    1
     9     7     8    1
    10     7     4    1
    11     8     9    1
    12     4     5   ar
    13     4     3   ar
    14     5     1   ar
    15     9    10    1
    16     3    10    1
    17     3     2   ar
    18     1     2   ar
    19     1    12    1
    20    13    12    2
    21    10    23    1
    22    12    14   am
    23    26    23    1
    24    23    25    1
    25    23    24    1
    26    14    15    1
    27    14    16    1
    28    16    17    1
    29    17    18    2
    30    17    22    1
    31    18    19    1
    32    22    21    2
    33    19    20    2
    34    21    20    1
