@<TRIPOS>MOLECULE
1899_out_ligand_01.pdbqt
 33 36 0 0 0
SMALL
GASTEIGER

@<TRIPOS>ATOM
      1  C         19.9180  -22.8510   -9.8480 C.2     1  UNL1        0.1030
      2  C         20.4300  -22.3290  -11.0370 C.2     1  UNL1        0.0510
      3  C         21.7240  -21.7940  -11.0700 C.2     1  UNL1       -0.0320
      4  C         22.4980  -21.7690   -9.9020 C.2     1  UNL1        0.0140
      5  C         21.9810  -22.2650   -8.7050 C.2     1  UNL1        0.0410
      6  C         20.6960  -22.8080   -8.6900 C.2     1  UNL1        0.1120
      7  C         22.2770  -21.2740  -12.3220 C.3     1  UNL1        0.0320
      8  C         23.3320  -21.7490  -13.0160 C.ar    1  UNL1        0.0820
      9  C         24.1610  -22.9420  -12.6360 C.ar    1  UNL1        0.1620
     10  C         23.7060  -20.9960  -14.2790 C.ar    1  UNL1        0.2830
     11  N         23.8950  -23.6970  -11.6110 N.pl3   1  UNL1       -0.2810
     12  N         25.2380  -23.2010  -13.4600 N.ar    1  UNL1       -0.1900
     13  H         24.6200  -24.4300  -11.5900 H       1  UNL1        0.1880
     14  N         26.1140  -24.2530  -13.2350 N.2     1  UNL1       -0.1690
     15  C         25.4910  -22.4110  -14.5520 C.ar    1  UNL1        0.2000
     16  C         27.0240  -24.2370  -14.1600 C.2     1  UNL1        0.1920
     17  S         26.9210  -22.9770  -15.3790 S.3     1  UNL1       -0.0410
     18  N         24.8320  -21.3930  -14.9730 N.ar    1  UNL1       -0.1820
     19  O         23.0230  -20.0550  -14.6700 O.2     1  UNL1       -0.2650
     20  O         18.6400  -23.3360   -9.7680 O.2     1  UNL1       -0.3490
     21  C         17.7090  -22.5850  -10.5570 C.3     1  UNL1        0.1710
     22  C         16.3830  -22.5260   -9.8230 C.3     1  UNL1        0.0340
     23  O         20.1840  -23.2440   -7.4660 O.3     1  UNL1       -0.2720
     24  C         19.6490  -22.2210   -6.7100 C.2     1  UNL1        0.3000
     25  O         20.0810  -21.0940   -6.5350 O.2     1  UNL1       -0.2590
     26  C         18.3790  -22.7180   -6.1430 C.2     1  UNL1        0.0610
     27  C         17.7230  -23.7810   -6.7870 C.2     1  UNL1        0.0210
     28  C         16.5070  -24.2550   -6.2940 C.2     1  UNL1        0.0250
     29  C         15.9420  -23.6660   -5.1640 C.2     1  UNL1        0.0350
     30 CL         14.4430  -24.2530   -4.5570 Cl      1  UNL1       -0.0840
     31  C         16.5840  -22.6100   -4.5210 C.2     1  UNL1        0.0480
     32  C         17.8050  -22.1310   -5.0090 C.2     1  UNL1        0.0510
     33 CL         18.5580  -20.8500   -4.1320 Cl      1  UNL1       -0.0830
@<TRIPOS>BOND
     1    17    15    1
     2    17    16    1
     3    18    15   ar
     4    18    10   ar
     5    19    10    2
     6    15    12   ar
     7    10     8   ar
     8    16    14    2
     9    12    14    1
    10    12     9   ar
    11     8     9   ar
    12     8     7    1
    13     9    11    1
    14     7     3    1
    15    11    13    1
    16     3     2    1
    17     3     4    2
    18     2     1    2
    19    21    22    1
    20    21    20    1
    21     4     5    1
    22     1    20    1
    23     1     6    1
    24     5     6    2
    25     6    23    1
    26    23    24    1
    27    27    28    1
    28    27    26    2
    29    24    25    2
    30    24    26    1
    31    28    29    2
    32    26    32    1
    33    29    30    1
    34    29    31    1
    35    32    31    2
    36    32    33    1
