@<TRIPOS>MOLECULE
19135_out_ligand_01.pdbqt
 36 40 0 0 0
SMALL
GASTEIGER

@<TRIPOS>ATOM
      1  C         21.1200  -21.6220  -11.9610 C.2     1  UNL1        0.0810
      2  C         21.3650  -22.3960  -10.8940 C.2     1  UNL1        0.1130
      3  N         22.5710  -23.0090  -10.5990 N.pl3   1  UNL1       -0.3310
      4  C         23.6520  -22.9010  -11.4980 C.2     1  UNL1        0.1440
      5  N         24.8130  -23.5610  -11.2370 N.2     1  UNL1       -0.2350
      6  C         25.8490  -23.4310  -12.1070 C.2     1  UNL1        0.0330
      7  C         27.1190  -24.1600  -11.7760 C.3     1  UNL1        0.0700
      8  C         25.7660  -22.6720  -13.2660 C.2     1  UNL1        0.0280
      9  C         24.5750  -22.0150  -13.5470 C.2     1  UNL1        0.0210
     10  C         23.5080  -22.1300  -12.6550 C.2     1  UNL1        0.0610
     11  C         22.2230  -21.4520  -12.9390 C.2     1  UNL1        0.2010
     12  O         22.0940  -20.7910  -13.9640 O.2     1  UNL1       -0.2860
     13  C         22.7900  -23.8010   -9.3760 C.3     1  UNL1        0.2330
     14  C         21.4920  -24.0120   -8.5900 C.2     1  UNL1        0.2400
     15  O         20.9260  -25.1040   -8.5950 O.2     1  UNL1       -0.2710
     16  N         21.0620  -22.8700   -7.9380 N.am    1  UNL1       -0.3260
     17  H         21.7070  -22.0800   -7.9860 H       1  UNL1        0.1690
     18  C         19.9080  -22.6960   -7.1530 C.2     1  UNL1        0.0370
     19  C         19.8350  -21.5260   -6.3810 C.2     1  UNL1        0.0320
     20  C         18.7220  -21.2660   -5.5790 C.2     1  UNL1        0.0420
     21  C         17.6670  -22.1720   -5.5470 C.2     1  UNL1        0.1020
     22  C         17.7400  -23.3510   -6.2950 C.2     1  UNL1        0.1040
     23  O         16.5960  -21.8450   -4.7550 O.2     1  UNL1       -0.3460
     24  C         18.8490  -23.6060   -7.1060 C.2     1  UNL1        0.0690
     25  O         16.7500  -24.3030   -6.2880 O.2     1  UNL1       -0.3460
     26  C         15.8590  -24.1210   -5.1830 C.3     1  UNL1        0.2020
     27  C         15.4580  -22.6600   -5.0540 C.3     1  UNL1        0.2020
     28  C         19.7610  -21.0390  -12.1000 C.2     1  UNL1        0.1970
     29  O         19.5450  -20.1210  -12.8890 O.2     1  UNL1       -0.2860
     30  C         18.6370  -21.5910  -11.3030 C.2     1  UNL1        0.0150
     31  C         18.6640  -22.8890  -10.7810 C.2     1  UNL1        0.0160
     32  C         17.5620  -23.3820  -10.0750 C.2     1  UNL1        0.0070
     33  C         16.4170  -22.5940   -9.9030 C.2     1  UNL1       -0.0620
     34  C         15.2460  -23.1090   -9.1180 C.3     1  UNL1        0.0480
     35  C         16.3920  -21.3000  -10.4350 C.2     1  UNL1        0.0070
     36  C         17.4910  -20.8030  -11.1410 C.2     1  UNL1        0.0160
@<TRIPOS>BOND
     1    12    11    2
     2     9     8    2
     3     9    10    1
     4     8     6    1
     5    11    10    1
     6    11     1    1
     7    29    28    2
     8    10     4    2
     9     6     7    1
    10     6     5    2
    11    28     1    1
    12    28    30    1
    13     1     2    2
    14     4     5    1
    15     4     3    1
    16    30    36    2
    17    30    31    1
    18    36    35    1
    19     2     3    1
    20    31    32    2
    21     3    13    1
    22    35    33    2
    23    32    33    1
    24    33    34    1
    25    13    14    1
    26    15    14    2
    27    14    16   am
    28    17    16    1
    29    16    18    1
    30    18    24    2
    31    18    19    1
    32    24    22    1
    33    19    20    2
    34    22    25    1
    35    22    21    2
    36    25    26    1
    37    20    21    1
    38    21    23    1
    39    26    27    1
    40    27    23    1
