@<TRIPOS>MOLECULE
19171_out_ligand_01.pdbqt
 31 34 0 0 0
SMALL
GASTEIGER

@<TRIPOS>ATOM
      1  C         20.8390  -21.8510  -10.4360 C.2     1  UNL1        0.0320
      2  C         20.1530  -21.1550  -11.4320 C.2     1  UNL1        0.0200
      3  C         18.7610  -21.0770  -11.3910 C.2     1  UNL1        0.0380
      4  C         18.0340  -21.6790  -10.3550 C.2     1  UNL1        0.0760
      5  C         18.7130  -22.3390   -9.3210 C.2     1  UNL1        0.0040
      6  C         20.1200  -22.4250   -9.3780 C.2     1  UNL1        0.0280
      7  C         18.0000  -22.9250   -8.1260 C.3     1  UNL1        0.3140
      8  N         17.1580  -24.0710   -8.4640 N.3     1  UNL1        0.0990
      9  C         16.1950  -23.8020   -9.5450 C.3     1  UNL1        0.2990
     10  C         15.7890  -22.3280   -9.7090 C.3     1  UNL1        0.2060
     11  O         16.6830  -21.5430  -10.5010 O.2     1  UNL1       -0.3490
     12  C         22.3230  -21.9300  -10.5170 C.2     1  UNL1        0.2510
     13  N         22.8330  -22.8900  -11.3590 N.am    1  UNL1       -0.3530
     14  H         22.2160  -23.3810  -11.9920 H       1  UNL1        0.1630
     15  O         23.0130  -21.1470   -9.8750 O.2     1  UNL1       -0.2680
     16  C         24.2530  -23.0240  -11.5960 C.3     1  UNL1        0.1610
     17  C         24.5470  -22.9670  -13.0730 C.2     1  UNL1       -0.0410
     18  C         24.1350  -21.8620  -13.8290 C.2     1  UNL1        0.0090
     19  C         24.3820  -21.8080  -15.2020 C.2     1  UNL1        0.0070
     20  C         25.0510  -22.8570  -15.8430 C.2     1  UNL1       -0.0620
     21  C         25.3040  -22.7920  -17.3200 C.3     1  UNL1        0.0480
     22  C         25.4560  -23.9660  -15.0920 C.2     1  UNL1        0.0070
     23  C         25.2050  -24.0210  -13.7180 C.2     1  UNL1        0.0090
     24  C         16.5750  -24.7310   -7.2870 C.3     1  UNL1        0.3110
     25  C         16.2600  -23.8500   -6.0960 C.2     1  UNL1       -0.0270
     26  C         17.0750  -23.8700   -4.9520 C.2     1  UNL1        0.0090
     27  C         16.7910  -23.0530   -3.8530 C.2     1  UNL1        0.0040
     28  C         15.6840  -22.2090   -3.8840 C.2     1  UNL1        0.0420
     29  C         14.8680  -22.1930   -5.0080 C.2     1  UNL1        0.1170
     30  F         13.7990  -21.3880   -5.0370 F       1  UNL1       -0.2060
     31  C         15.1420  -23.0030   -6.1070 C.2     1  UNL1        0.0510
@<TRIPOS>BOND
     1    21    20    1
     2    20    19    2
     3    20    22    1
     4    19    18    1
     5    22    23    2
     6    18    17    2
     7    23    17    1
     8    17    16    1
     9    14    13    1
    10    16    13    1
    11     2     3    1
    12     2     1    2
    13     3     4    2
    14    13    12   am
    15    12     1    1
    16    12    15    2
    17    11     4    1
    18    11    10    1
    19     1     6    1
    20     4     5    1
    21    10     9    1
    22     9     8    1
    23     6     5    2
    24     5     7    1
    25     8     7    1
    26     8    24    1
    27    24    25    1
    28    31    25    2
    29    31    29    1
    30    25    26    1
    31    30    29    1
    32    29    28    2
    33    26    27    2
    34    28    27    1
