@<TRIPOS>MOLECULE
19416_out_ligand_01.pdbqt
 41 45 0 0 0
SMALL
GASTEIGER

@<TRIPOS>ATOM
      1  N         22.8750  -21.6680  -12.6140 N.ar    1  UNL1       -0.2900
      2  C         22.7540  -22.3650  -11.4200 C.ar    1  UNL1        0.3320
      3  O         21.6390  -22.6600  -10.9810 O.2     1  UNL1       -0.2460
      4  N         23.9190  -22.7650  -10.7920 N.ar    1  UNL1       -0.2610
      5  C         25.1980  -22.5030  -11.2590 C.ar    1  UNL1        0.2640
      6  O         26.2230  -22.8520  -10.6790 O.2     1  UNL1       -0.2670
      7  C         25.3030  -21.7830  -12.5390 C.ar    1  UNL1        0.0590
      8  C         26.5720  -21.5260  -13.0800 C.2     1  UNL1        0.0190
      9  C         26.6890  -20.8800  -14.3070 C.2     1  UNL1        0.0010
     10  C         25.5410  -20.4970  -14.9900 C.2     1  UNL1        0.0020
     11  C         24.2760  -20.7520  -14.4450 C.2     1  UNL1        0.0310
     12  C         24.1390  -21.3960  -13.2050 C.ar    1  UNL1        0.0550
     13  C         23.7900  -23.5900   -9.5950 C.3     1  UNL1        0.1750
     14  C         22.6200  -23.1450   -8.7350 C.2     1  UNL1       -0.0400
     15  C         21.4780  -23.9480   -8.6140 C.2     1  UNL1        0.0100
     16  C         20.3730  -23.5020   -7.8830 C.2     1  UNL1        0.0170
     17  C         20.4010  -22.2530   -7.2510 C.2     1  UNL1        0.0320
     18  C         21.5390  -21.4480   -7.3630 C.2     1  UNL1        0.0170
     19  C         22.6410  -21.8940   -8.0990 C.2     1  UNL1        0.0100
     20  C         19.1790  -21.7940   -6.5320 C.2     1  UNL1        0.2510
     21  O         19.2460  -20.8430   -5.7620 O.2     1  UNL1       -0.2680
     22  N         18.0200  -22.4860   -6.7890 N.am    1  UNL1       -0.3510
     23  H         17.9760  -23.1340   -7.5640 H       1  UNL1        0.1630
     24  C         16.7530  -22.1020   -6.2100 C.3     1  UNL1        0.1870
     25  C         16.5260  -22.9190   -4.9930 C.2     1  UNL1        0.0700
     26  C         15.4060  -23.4950   -4.4320 C.2     1  UNL1        0.0360
     27  C         15.8370  -24.1370   -3.2470 C.2     1  UNL1        0.0270
     28  C         17.1960  -23.9270   -3.1700 C.2     1  UNL1        0.1420
     29  O         17.6240  -23.1860   -4.2240 O.2     1  UNL1       -0.3250
     30  C         21.6350  -21.2990  -13.3150 C.3     1  UNL1        0.2370
     31  C         20.4840  -20.9720  -12.3510 C.2     1  UNL1        0.2400
     32  O         20.4560  -19.8910  -11.7680 O.2     1  UNL1       -0.2710
     33  N         19.6000  -22.0210  -12.1650 N.am    1  UNL1       -0.3260
     34  H         19.8420  -22.8970  -12.6170 H       1  UNL1        0.1690
     35  C         18.4090  -22.0330  -11.4140 C.2     1  UNL1        0.0350
     36  C         17.4580  -21.0100  -11.4370 C.2     1  UNL1        0.0320
     37  C         16.2950  -21.1120  -10.6650 C.2     1  UNL1        0.0440
     38  C         16.0830  -22.2390   -9.8790 C.2     1  UNL1        0.1160
     39  F         14.9680  -22.3310   -9.1430 F       1  UNL1       -0.2060
     40  C         17.0140  -23.2680   -9.8470 C.2     1  UNL1        0.0440
     41  C         18.1780  -23.1620  -10.6140 C.2     1  UNL1        0.0320
@<TRIPOS>BOND
     1    10    11    2
     2    10     9    1
     3    11    12    1
     4     9     8    2
     5    30     1    1
     6    30    31    1
     7    12     1   ar
     8    12     7   ar
     9     8     7    1
    10    34    33    1
    11     1     2   ar
    12     7     5   ar
    13    31    33   am
    14    31    32    2
    15    33    35    1
    16    36    35    2
    17    36    37    1
    18     2     3    2
    19     2     4   ar
    20    35    41    1
    21     5     4   ar
    22     5     6    2
    23     4    13    1
    24    37    38    2
    25    41    40    2
    26    38    40    1
    27    38    39    1
    28    13    14    1
    29    14    15    2
    30    14    19    1
    31    15    16    1
    32    19    18    2
    33    16    17    2
    34    23    22    1
    35    18    17    1
    36    17    20    1
    37    22    20   am
    38    22    24    1
    39    20    21    2
    40    24    25    1
    41    25    26    2
    42    25    29    1
    43    26    27    1
    44    29    28    1
    45    27    28    2
