@<TRIPOS>MOLECULE
19510_out_ligand_01.pdbqt
 32 35 0 0 0
SMALL
GASTEIGER

@<TRIPOS>ATOM
      1  C         22.6840  -22.2770   -9.6100 C.2     1  UNL1        0.0170
      2  C         21.5410  -22.9610  -10.0430 C.2     1  UNL1        0.0170
      3  C         20.4180  -23.0720   -9.2160 C.2     1  UNL1        0.0180
      4  C         20.4170  -22.5000   -7.9370 C.2     1  UNL1        0.0320
      5  C         21.5460  -21.7980   -7.5040 C.2     1  UNL1        0.0180
      6  C         22.6720  -21.6980   -8.3320 C.2     1  UNL1        0.0170
      7  C         23.8770  -22.1570  -10.4430 C.ar    1  UNL1        0.1800
      8  O         24.5800  -20.9850  -10.3530 O.2     1  UNL1       -0.2940
      9  C         25.6140  -21.1410  -11.2320 C.ar    1  UNL1        0.0770
     10  C         26.5570  -20.0160  -11.3650 C.3     1  UNL1        0.0790
     11  C         25.4840  -22.3800  -11.8260 C.ar    1  UNL1        0.0760
     12  N         24.3940  -23.0320  -11.2840 N.ar    1  UNL1       -0.2250
     13  C         26.3110  -23.0290  -12.8780 C.3     1  UNL1        0.1410
     14  S         25.3530  -24.1290  -13.9780 S.3     1  UNL1       -0.1240
     15  C         25.1800  -23.1570  -15.4680 C.2     1  UNL1        0.0000
     16  C         24.5680  -23.7630  -16.5730 C.2     1  UNL1        0.0180
     17  C         24.3970  -23.0600  -17.7690 C.2     1  UNL1        0.0010
     18  C         24.8300  -21.7400  -17.8690 C.2     1  UNL1        0.0000
     19  C         25.4250  -21.1210  -16.7710 C.2     1  UNL1        0.0010
     20  C         25.5910  -21.8240  -15.5730 C.2     1  UNL1        0.0180
     21  C         19.1870  -22.6460   -7.1010 C.2     1  UNL1        0.2520
     22  O         18.6990  -21.6610   -6.5550 O.2     1  UNL1       -0.2680
     23  N         18.6440  -23.9120   -7.0050 N.am    1  UNL1       -0.3520
     24  H         18.9350  -24.6160   -7.6690 H       1  UNL1        0.1630
     25  C         17.3960  -24.1580   -6.2840 C.3     1  UNL1        0.0880
     26  C         17.6660  -24.2730   -4.7740 C.3     1  UNL1        0.0250
     27  C         17.5160  -22.9310   -4.0720 C.3     1  UNL1        0.0020
     28  C         16.1020  -22.3680   -4.2160 C.3     1  UNL1        0.0050
     29  C         15.3640  -22.8500   -5.4800 C.3     1  UNL1       -0.0130
     30  C         14.2250  -21.8840   -5.8090 C.3     1  UNL1        0.0100
     31  C         16.3640  -23.0520   -6.6410 C.3     1  UNL1        0.0080
     32  C         15.6880  -23.3900   -7.9750 C.3     1  UNL1        0.0120
@<TRIPOS>BOND
     1    18    17    2
     2    18    19    1
     3    17    16    1
     4    19    20    2
     5    16    15    2
     6    20    15    1
     7    15    14    1
     8    14    13    1
     9    13    11    1
    10    11    12   ar
    11    11     9   ar
    12    10     9    1
    13    12     7   ar
    14     9     8   ar
    15     7     8   ar
    16     7     1    1
    17     2     1    2
    18     2     3    1
    19     1     6    1
    20     3     4    2
    21     6     5    2
    22    32    31    1
    23     4     5    1
    24     4    21    1
    25    24    23    1
    26    21    23   am
    27    21    22    2
    28    23    25    1
    29    31    25    1
    30    31    29    1
    31    25    26    1
    32    30    29    1
    33    29    28    1
    34    26    27    1
    35    28    27    1
