@<TRIPOS>MOLECULE
19595_out_ligand_01.pdbqt
 38 41 0 0 0
SMALL
GASTEIGER

@<TRIPOS>ATOM
      1  C         18.4700  -22.7020   -9.7420 C.2     1  UNL1        0.0580
      2  C         17.5420  -22.2450  -10.6950 C.2     1  UNL1        0.0190
      3  C         17.9140  -21.3070  -11.6520 C.2     1  UNL1        0.0010
      4  C         19.2120  -20.8170  -11.6540 C.2     1  UNL1        0.0020
      5  C         20.1460  -21.2810  -10.7190 C.2     1  UNL1        0.0300
      6  C         19.8170  -22.2510   -9.7560 C.2     1  UNL1        0.0460
      7  N         20.7900  -22.7740   -8.8820 N.pl3   1  UNL1       -0.3800
      8  C         21.6530  -21.8720   -8.1090 C.3     1  UNL1        0.1250
      9  C         22.9720  -21.5490   -8.8110 C.3     1  UNL1        0.0450
     10  C         23.3810  -22.6270   -9.8150 C.3     1  UNL1        0.0960
     11  C         22.9240  -23.9960   -9.3380 C.3     1  UNL1        0.0450
     12  C         21.3970  -24.0480   -9.3430 C.3     1  UNL1        0.1250
     13  N         24.8380  -22.6040   -9.9780 N.3     1  UNL1       -0.3100
     14  H         25.4610  -22.6780   -9.1770 H       1  UNL1        0.1720
     15  S         25.5250  -22.9880  -11.4550 S.O2    1  UNL1        0.2590
     16  O         24.4630  -23.4070  -12.3430 O.2     1  UNL1       -0.2010
     17  O         26.6600  -23.8350  -11.1700 O.2     1  UNL1       -0.2010
     18  C         26.1370  -21.4120  -11.9880 C.2     1  UNL1        0.0790
     19  C         26.3360  -20.3880  -11.0570 C.2     1  UNL1        0.0250
     20  C         26.8330  -19.1570  -11.4870 C.2     1  UNL1        0.0020
     21  C         27.1210  -18.9540  -12.8360 C.2     1  UNL1        0.0000
     22  C         26.9080  -19.9750  -13.7640 C.2     1  UNL1        0.0020
     23  C         26.4110  -21.2090  -13.3430 C.2     1  UNL1        0.0250
     24  C         17.9160  -23.6100   -8.6950 C.2     1  UNL1        0.2540
     25  O         18.6300  -24.4360   -8.1360 O.2     1  UNL1       -0.2680
     26  N         16.5700  -23.4750   -8.4450 N.am    1  UNL1       -0.3530
     27  H         16.1440  -22.6160   -8.7800 H       1  UNL1        0.1630
     28  C         15.9320  -24.2000   -7.3790 C.3     1  UNL1        0.1610
     29  C         16.1040  -23.4750   -6.0700 C.2     1  UNL1       -0.0400
     30  C         15.0950  -23.5260   -5.1010 C.2     1  UNL1        0.0090
     31  C         15.2280  -22.8330   -3.9000 C.2     1  UNL1        0.0010
     32  C         16.3700  -22.0740   -3.6590 C.2     1  UNL1        0.0160
     33  C         17.3960  -22.0060   -4.6130 C.2     1  UNL1        0.0480
     34  C         17.2470  -22.7030   -5.8220 C.2     1  UNL1        0.0250
     35  C         18.6210  -21.1660   -4.3560 C.3     1  UNL1        0.4170
     36  F         18.3640  -19.8270   -4.3430 F       1  UNL1       -0.1660
     37  F         19.1930  -21.4450   -3.1530 F       1  UNL1       -0.1660
     38  F         19.5980  -21.3450   -5.2870 F       1  UNL1       -0.1660
@<TRIPOS>BOND
     1    22    23    1
     2    22    21    2
     3    23    18    2
     4    21    20    1
     5    16    15    2
     6    18    15    1
     7    18    19    1
     8     4     3    2
     9     4     5    1
    10     3     2    1
    11    20    19    2
    12    15    17    2
    13    15    13    1
    14     5     6    2
    15     2     1    2
    16    13    10    1
    17    13    14    1
    18    10    11    1
    19    10     9    1
    20     6     1    1
    21     6     7    1
    22     1    24    1
    23    12    11    1
    24    12     7    1
    25     7     8    1
    26     9     8    1
    27    27    26    1
    28    24    26   am
    29    24    25    2
    30    26    28    1
    31    28    29    1
    32    29    34    2
    33    29    30    1
    34    34    33    1
    35    38    35    1
    36    30    31    2
    37    33    35    1
    38    33    32    2
    39    35    36    1
    40    35    37    1
    41    31    32    1
