@<TRIPOS>MOLECULE
19763_out_ligand_01.pdbqt
 34 38 0 0 0
SMALL
GASTEIGER

@<TRIPOS>ATOM
      1  C         20.9730  -22.7270  -10.1070 C.2     1  UNL1        0.0340
      2  C         20.4070  -21.8030  -10.9950 C.2     1  UNL1        0.0180
      3  C         21.1110  -21.4070  -12.1340 C.2     1  UNL1        0.0200
      4  C         22.3750  -21.9480  -12.3910 C.ar    1  UNL1        0.0590
      5  C         23.1460  -21.5530  -13.5840 C.ar    1  UNL1        0.2620
      6  O         22.6400  -20.7460  -14.3620 O.2     1  UNL1       -0.2670
      7  N         24.4130  -22.1310  -13.7580 N.ar    1  UNL1       -0.2860
      8  C         24.9320  -23.0940  -12.8940 C.ar    1  UNL1        0.1810
      9  S         26.3920  -23.9120  -13.0330 S.2     1  UNL1       -0.0400
     10  N         24.1730  -23.4280  -11.8060 N.ar    1  UNL1       -0.3320
     11  C         22.9250  -22.8800  -11.5220 C.ar    1  UNL1        0.0510
     12  C         22.2320  -23.2800  -10.3780 C.2     1  UNL1        0.0470
     13  H         24.5700  -24.1280  -11.1870 H       1  UNL1        0.1680
     14  C         20.1910  -23.1310   -8.9070 C.2     1  UNL1        0.2560
     15  O         20.3730  -24.2540   -8.4570 O.2     1  UNL1       -0.2670
     16  N         19.3040  -22.1750   -8.4490 N.am    1  UNL1       -0.3230
     17  H         19.1740  -21.3510   -9.0220 H       1  UNL1        0.1690
     18  C         18.4730  -22.2560   -7.3110 C.2     1  UNL1        0.0350
     19  C         18.9690  -21.6890   -6.1180 C.2     1  UNL1        0.0300
     20  C         18.2260  -21.7170   -4.9320 C.2     1  UNL1        0.0100
     21  C         16.9890  -22.3320   -4.9520 C.2     1  UNL1       -0.0520
     22  C         16.4900  -22.8990   -6.1270 C.2     1  UNL1       -0.0500
     23  C         15.9990  -22.4570   -3.8360 C.3     1  UNL1        0.0390
     24  C         17.2160  -22.8650   -7.3100 C.2     1  UNL1        0.0370
     25  C         15.1190  -23.4600   -5.9080 C.3     1  UNL1        0.0390
     26  C         15.0810  -23.5630   -4.3770 C.3     1  UNL1        0.0090
     27  C         25.1610  -21.6650  -14.9360 C.3     1  UNL1        0.1730
     28  C         25.8470  -20.3310  -14.7110 C.2     1  UNL1       -0.0380
     29  C         26.4810  -20.0490  -13.4910 C.2     1  UNL1        0.0090
     30  C         27.1110  -18.8200  -13.2780 C.2     1  UNL1        0.0020
     31  C         27.1200  -17.8570  -14.2850 C.2     1  UNL1        0.0190
     32  C         26.5030  -18.1300  -15.5020 C.2     1  UNL1        0.0110
     33 BR         26.5190  -16.8280  -16.8740 Br      1  UNL1       -0.0510
     34  C         25.8740  -19.3570  -15.7210 C.2     1  UNL1        0.0270
@<TRIPOS>BOND
     1    33    32    1
     2    34    32    1
     3    34    28    2
     4    32    31    2
     5    27    28    1
     6    27     7    1
     7    28    29    1
     8     6     5    2
     9    31    30    1
    10     7     5   ar
    11     7     8   ar
    12     5     4   ar
    13    29    30    2
    14     9     8    2
    15     8    10   ar
    16     4     3    2
    17     4    11   ar
    18     3     2    1
    19    10    11   ar
    20    10    13    1
    21    11    12    2
    22     2     1    2
    23    12     1    1
    24     1    14    1
    25    17    16    1
    26    14    15    2
    27    14    16   am
    28    16    18    1
    29    18    24    2
    30    18    19    1
    31    24    22    1
    32    22    25    1
    33    22    21    2
    34    19    20    2
    35    25    26    1
    36    21    20    1
    37    21    23    1
    38    26    23    1
