@<TRIPOS>MOLECULE
19880_out_ligand_01.pdbqt
 37 40 0 0 0
SMALL
GASTEIGER

@<TRIPOS>ATOM
      1  C         22.3710  -22.4300  -10.4550 C.2     1  UNL1        0.0330
      2  C         22.9450  -22.7870   -9.2350 C.2     1  UNL1        0.0170
      3  C         24.2480  -23.2930   -9.1990 C.2     1  UNL1        0.0090
      4  C         25.0000  -23.4690  -10.3780 C.2     1  UNL1       -0.0390
      5  C         26.3880  -24.0310  -10.2450 C.3     1  UNL1        0.0500
      6  C         24.4120  -23.1050  -11.6030 C.2     1  UNL1        0.0860
      7  C         23.1050  -22.5900  -11.6340 C.2     1  UNL1        0.0420
      8  C         20.9850  -21.9020  -10.5530 C.2     1  UNL1        0.2520
      9  N         20.0400  -22.5370   -9.7830 N.am    1  UNL1       -0.3480
     10  H         20.3440  -23.2100   -9.0910 H       1  UNL1        0.1630
     11  O         20.7510  -20.9400  -11.2760 O.2     1  UNL1       -0.2680
     12  C         18.6730  -22.0430   -9.6550 C.3     1  UNL1        0.1170
     13  C         17.7830  -22.5150  -10.8240 C.3     1  UNL1        0.0250
     14  C         17.3860  -21.3880  -11.7710 C.3     1  UNL1        0.0070
     15  C         18.1510  -22.4790   -8.2920 C.2     1  UNL1       -0.0350
     16  C         19.0080  -22.9020   -7.2610 C.2     1  UNL1        0.0100
     17  C         18.5050  -23.2300   -6.0000 C.2     1  UNL1        0.0080
     18  C         17.1380  -23.1160   -5.7400 C.2     1  UNL1       -0.0520
     19  C         16.2680  -22.6920   -6.7570 C.2     1  UNL1       -0.0510
     20  C         16.5500  -23.4780   -4.4030 C.3     1  UNL1        0.0390
     21  C         16.7740  -22.3830   -8.0240 C.2     1  UNL1        0.0170
     22  C         14.7970  -22.6140   -6.4500 C.3     1  UNL1        0.0390
     23  C         14.5720  -21.9580   -5.0880 C.3     1  UNL1        0.0050
     24  C         15.4910  -22.4650   -3.9650 C.3     1  UNL1        0.0050
     25  S         25.2460  -23.2170  -13.1810 S.O2    1  UNL1        0.2630
     26  O         26.4750  -22.4590  -13.0630 O.2     1  UNL1       -0.2000
     27  O         25.2930  -24.5950  -13.6230 O.2     1  UNL1       -0.2000
     28  N         24.2490  -22.3290  -14.1860 N.pl3   1  UNL1       -0.2800
     29  H         23.3640  -21.9930  -13.7970 H       1  UNL1        0.1790
     30  C         24.6100  -22.0120  -15.5200 C.2     1  UNL1        0.0490
     31  C         24.4880  -23.0020  -16.5010 C.2     1  UNL1        0.0310
     32  C         24.8630  -22.7380  -17.8140 C.2     1  UNL1        0.0030
     33  C         25.3650  -21.4810  -18.1510 C.2     1  UNL1        0.0070
     34  C         25.5160  -20.4850  -17.1730 C.2     1  UNL1       -0.0540
     35  C         26.0710  -19.1490  -17.5910 C.3     1  UNL1        0.0490
     36  C         25.1580  -20.7550  -15.8310 C.2     1  UNL1       -0.0290
     37  C         25.3450  -19.6880  -14.7820 C.3     1  UNL1        0.0510
@<TRIPOS>BOND
     1    33    32    2
     2    33    34    1
     3    32    31    1
     4    35    34    1
     5    34    36    2
     6    31    30    2
     7    36    30    1
     8    36    37    1
     9    30    28    1
    10    28    29    1
    11    28    25    1
    12    27    25    2
    13    25    26    2
    14    25     6    1
    15    14    13    1
    16     7     6    1
    17     7     1    2
    18     6     4    2
    19    11     8    2
    20    13    12    1
    21     8     1    1
    22     8     9   am
    23     1     2    1
    24     4     5    1
    25     4     3    1
    26     9    12    1
    27     9    10    1
    28    12    15    1
    29     2     3    2
    30    15    21    2
    31    15    16    1
    32    21    19    1
    33    16    17    2
    34    19    22    1
    35    19    18    2
    36    22    23    1
    37    17    18    1
    38    18    20    1
    39    23    24    1
    40    20    24    1
