@<TRIPOS>MOLECULE
19940_out_ligand_01.pdbqt
 36 38 0 0 0
SMALL
GASTEIGER

@<TRIPOS>ATOM
      1  C         21.4590  -22.4890  -10.3950 C.2     1  UNL1        0.0330
      2  C         22.1610  -22.0250   -9.2750 C.2     1  UNL1        0.0170
      3  C         23.4920  -21.6190   -9.4030 C.2     1  UNL1        0.0090
      4  C         24.1420  -21.6750  -10.6450 C.2     1  UNL1       -0.0400
      5  C         25.5700  -21.2220  -10.7600 C.3     1  UNL1        0.0500
      6  C         23.4310  -22.1480  -11.7600 C.2     1  UNL1        0.0290
      7  C         22.1040  -22.5690  -11.6330 C.2     1  UNL1        0.0420
      8  C         20.0400  -22.9290  -10.3050 C.2     1  UNL1        0.2520
      9  N         19.0910  -21.9350  -10.3560 N.am    1  UNL1       -0.3490
     10  H         19.3590  -20.9920  -10.6010 H       1  UNL1        0.1630
     11  O         19.7700  -24.1220  -10.2250 O.2     1  UNL1       -0.2680
     12  C         17.6650  -22.2200  -10.3080 C.3     1  UNL1        0.1140
     13  C         16.8560  -21.0310  -10.8410 C.3     1  UNL1        0.0370
     14  C         17.3110  -22.6500   -8.8870 C.2     1  UNL1       -0.0290
     15  C         16.2690  -23.5690   -8.6420 C.2     1  UNL1       -0.0510
     16  C         16.0020  -23.9820   -7.3230 C.2     1  UNL1        0.0440
     17  C         15.4140  -24.1190   -9.7550 C.3     1  UNL1        0.0490
     18  C         16.7590  -23.5200   -6.2400 C.2     1  UNL1        0.0750
     19  C         17.8100  -22.6150   -6.4680 C.2     1  UNL1       -0.0210
     20  C         18.0690  -22.1970   -7.7890 C.2     1  UNL1        0.0200
     21  O         16.5520  -23.8980   -4.9390 O.2     1  UNL1       -0.3550
     22  C         15.2110  -24.0000   -4.4800 C.3     1  UNL1        0.2100
     23  C         18.6580  -22.0730   -5.3210 C.3     1  UNL1        0.0130
     24  C         17.7790  -21.4580   -4.2280 C.3     1  UNL1        0.0150
     25  C         19.7080  -21.0690   -5.8100 C.3     1  UNL1        0.0150
     26  N         24.0870  -22.2570  -13.0340 N.pl3   1  UNL1       -0.1810
     27  H         25.0990  -22.3190  -12.9070 H       1  UNL1        0.1460
     28  S         23.8400  -20.9150  -14.0650 S.O2    1  UNL1        0.2450
     29  O         22.4260  -20.6360  -14.1940 O.2     1  UNL1       -0.2060
     30  O         24.7900  -19.9060  -13.6500 O.2     1  UNL1       -0.2060
     31  C         24.4060  -21.5840  -15.6110 C.2     1  UNL1        0.0740
     32  C         24.2570  -22.9510  -15.8710 C.2     1  UNL1        0.0250
     33  C         24.6730  -23.4640  -17.1000 C.2     1  UNL1        0.0020
     34  C         25.2270  -22.6170  -18.0600 C.2     1  UNL1        0.0000
     35  C         25.3630  -21.2510  -17.7990 C.2     1  UNL1        0.0020
     36  C         24.9470  -20.7290  -16.5750 C.2     1  UNL1        0.0250
@<TRIPOS>BOND
     1    34    35    2
     2    34    33    1
     3    35    36    1
     4    33    32    2
     5    36    31    2
     6    32    31    1
     7    31    28    1
     8    29    28    2
     9    28    30    2
    10    28    26    1
    11    26    27    1
    12    26     6    1
    13     6     7    1
    14     6     4    2
    15     7     1    2
    16    13    12    1
    17     5     4    1
    18     4     3    1
    19    10     9    1
    20     1     8    1
    21     1     2    1
    22     9    12    1
    23     9     8   am
    24    12    14    1
    25     8    11    2
    26    17    15    1
    27     3     2    2
    28    14    15    2
    29    14    20    1
    30    15    16    1
    31    20    19    2
    32    16    18    2
    33    19    18    1
    34    19    23    1
    35    18    21    1
    36    25    23    1
    37    23    24    1
    38    21    22    1
