@<TRIPOS>MOLECULE
20020_out_ligand_01.pdbqt
 36 39 0 0 0
SMALL
GASTEIGER

@<TRIPOS>ATOM
      1  C         17.5900  -23.5790   -8.5700 C.2     1  UNL1        0.0860
      2  C         18.9640  -23.8690   -8.5020 C.2     1  UNL1        0.0420
      3  C         19.8510  -23.3380   -9.4430 C.2     1  UNL1        0.0330
      4  C         19.3620  -22.5020  -10.4500 C.2     1  UNL1        0.0170
      5  C         17.9950  -22.2200  -10.5230 C.2     1  UNL1        0.0090
      6  C         17.0860  -22.7520   -9.5910 C.2     1  UNL1       -0.0390
      7  C         15.6330  -22.3960   -9.7420 C.3     1  UNL1        0.0500
      8  C         21.2980  -23.6570   -9.3120 C.2     1  UNL1        0.2510
      9  O         21.6440  -24.7610   -8.9070 O.2     1  UNL1       -0.2680
     10  N         22.1800  -22.6680   -9.6920 N.am    1  UNL1       -0.3530
     11  H         21.8340  -21.8870  -10.2330 H       1  UNL1        0.1630
     12  C         23.6040  -22.9120   -9.7530 C.3     1  UNL1        0.1610
     13  C         24.1400  -22.6040  -11.1260 C.2     1  UNL1       -0.0410
     14  C         25.5050  -22.7360  -11.4130 C.2     1  UNL1        0.0090
     15  C         25.9950  -22.4290  -12.6840 C.2     1  UNL1        0.0090
     16  C         25.1340  -21.9830  -13.6980 C.2     1  UNL1       -0.0300
     17  C         23.7730  -21.8350  -13.4020 C.2     1  UNL1        0.0090
     18  C         23.2810  -22.1440  -12.1310 C.2     1  UNL1        0.0090
     19  C         25.6680  -21.6420  -15.0730 C.3     1  UNL1        0.3110
     20  N         25.9510  -22.7410  -16.0030 N.3     1  UNL1        0.0920
     21  C         24.9730  -23.8260  -16.0110 C.3     1  UNL1        0.2730
     22  C         24.0680  -23.5890  -17.2100 C.3     1  UNL1        0.0320
     23  C         24.8260  -22.6270  -18.1110 C.3     1  UNL1        0.0320
     24  C         26.1410  -22.3500  -17.3980 C.3     1  UNL1        0.2730
     25  S         16.5670  -24.3300   -7.3090 S.O2    1  UNL1        0.2630
     26  O         17.4530  -25.0510   -6.4180 O.2     1  UNL1       -0.2000
     27  O         15.4340  -25.0030   -7.9020 O.2     1  UNL1       -0.2000
     28  N         16.0290  -22.9870   -6.4370 N.pl3   1  UNL1       -0.2810
     29  H         15.5060  -22.3420   -7.0300 H       1  UNL1        0.1790
     30  C         16.8950  -22.4330   -5.4580 C.2     1  UNL1        0.0430
     31  C         16.6410  -22.6290   -4.1030 C.2     1  UNL1        0.0300
     32  C         17.4850  -22.0540   -3.1530 C.2     1  UNL1        0.0030
     33  C         18.5750  -21.2810   -3.5610 C.2     1  UNL1        0.0070
     34  C         18.8250  -21.0670   -4.9230 C.2     1  UNL1       -0.0600
     35  C         20.0130  -20.2640   -5.3620 C.3     1  UNL1        0.0480
     36  C         17.9810  -21.6600   -5.8700 C.2     1  UNL1        0.0370
@<TRIPOS>BOND
     1    23    24    1
     2    23    22    1
     3    24    20    1
     4    22    21    1
     5    21    20    1
     6    20    19    1
     7    19    16    1
     8    16    17    2
     9    16    15    1
    10    17    18    1
    11    15    14    2
    12    18    13    2
    13    14    13    1
    14    13    12    1
    15     5     4    2
    16     5     6    1
    17     4     3    1
    18    11    10    1
    19    12    10    1
    20     7     6    1
    21    10     8   am
    22     6     1    2
    23     3     8    1
    24     3     2    2
    25     8     9    2
    26     1     2    1
    27     1    25    1
    28    27    25    2
    29    25    28    1
    30    25    26    2
    31    29    28    1
    32    28    30    1
    33    36    30    2
    34    36    34    1
    35    30    31    1
    36    35    34    1
    37    34    33    2
    38    31    32    2
    39    33    32    1
