@<TRIPOS>MOLECULE
20038_out_ligand_01.pdbqt
 37 40 0 0 0
SMALL
GASTEIGER

@<TRIPOS>ATOM
      1  C         17.8560  -23.2210   -8.8870 C.2     1  UNL1        0.1020
      2  C         19.2520  -23.3560   -8.7690 C.2     1  UNL1        0.0440
      3  C         20.0970  -22.7870   -9.7270 C.2     1  UNL1        0.0330
      4  C         19.5460  -22.0710  -10.7920 C.2     1  UNL1        0.0190
      5  C         18.1590  -21.9430  -10.9110 C.2     1  UNL1        0.0260
      6  C         17.3050  -22.5220   -9.9620 C.2     1  UNL1        0.0570
      7 CL         15.6140  -22.2760  -10.1990 Cl      1  UNL1       -0.0830
      8  C         21.5790  -22.8980   -9.6350 C.2     1  UNL1        0.2510
      9  O         22.0850  -23.8950   -9.1360 O.2     1  UNL1       -0.2680
     10  N         22.2960  -21.8200  -10.1080 N.am    1  UNL1       -0.3530
     11  H         21.8150  -20.9500  -10.2950 H       1  UNL1        0.1630
     12  C         23.7230  -21.7190   -9.8890 C.3     1  UNL1        0.1610
     13  C         24.4750  -22.0760  -11.1450 C.2     1  UNL1       -0.0410
     14  C         23.9780  -23.0580  -12.0100 C.2     1  UNL1        0.0090
     15  C         24.6860  -23.4210  -13.1580 C.2     1  UNL1        0.0090
     16  C         25.9150  -22.8170  -13.4570 C.2     1  UNL1       -0.0300
     17  C         26.4280  -21.8590  -12.5700 C.2     1  UNL1        0.0090
     18  C         25.7120  -21.4840  -11.4320 C.2     1  UNL1        0.0090
     19  C         26.6970  -23.2490  -14.6820 C.3     1  UNL1        0.3110
     20  N         26.1850  -22.6950  -15.9480 N.3     1  UNL1        0.0920
     21  C         25.9470  -21.2420  -15.8560 C.3     1  UNL1        0.2720
     22  C         24.8970  -20.7200  -16.8470 C.3     1  UNL1        0.0300
     23  C         24.8850  -21.5380  -18.1290 C.3     1  UNL1        0.0030
     24  C         24.6390  -23.0180  -17.8300 C.3     1  UNL1        0.0300
     25  C         24.9870  -23.4100  -16.3890 C.3     1  UNL1        0.2720
     26  S         16.8440  -23.9830   -7.6430 S.O2    1  UNL1        0.2650
     27  O         17.7030  -24.8330   -6.8430 O.2     1  UNL1       -0.2000
     28  O         15.6800  -24.5490   -8.2880 O.2     1  UNL1       -0.2000
     29  N         16.3170  -22.6870   -6.7030 N.pl3   1  UNL1       -0.2800
     30  H         15.8360  -21.9890   -7.2670 H       1  UNL1        0.1790
     31  C         17.0490  -22.2500   -5.5540 C.2     1  UNL1        0.0480
     32  C         18.1680  -21.4180   -5.6950 C.2     1  UNL1        0.0300
     33  C         18.8710  -20.9700   -4.5770 C.2     1  UNL1        0.0020
     34  C         18.4830  -21.3730   -3.3050 C.2     1  UNL1        0.0010
     35  C         17.3990  -22.2370   -3.1530 C.2     1  UNL1        0.0090
     36  C         16.6800  -22.6980   -4.2720 C.2     1  UNL1       -0.0350
     37  C         15.5300  -23.6380   -4.0400 C.3     1  UNL1        0.0500
@<TRIPOS>BOND
     1    23    24    1
     2    23    22    1
     3    24    25    1
     4    22    21    1
     5    25    20    1
     6    20    21    1
     7    20    19    1
     8    19    16    1
     9    16    15    2
    10    16    17    1
    11    15    14    1
    12    17    18    2
    13    14    13    2
    14    18    13    1
    15    13    12    1
    16     5     4    2
    17     5     6    1
    18     4     3    1
    19    11    10    1
    20     7     6    1
    21    10    12    1
    22    10     8   am
    23     6     1    2
    24     3     8    1
    25     3     2    2
    26     8     9    2
    27     1     2    1
    28     1    26    1
    29    28    26    2
    30    26    27    2
    31    26    29    1
    32    30    29    1
    33    29    31    1
    34    32    31    2
    35    32    33    1
    36    31    36    1
    37    33    34    2
    38    36    37    1
    39    36    35    2
    40    34    35    1
