@<TRIPOS>MOLECULE
20039_out_ligand_01.pdbqt
 37 40 0 0 0
SMALL
GASTEIGER

@<TRIPOS>ATOM
      1  C         17.6580  -23.4350   -8.4560 C.2     1  UNL1        0.1020
      2  C         19.0410  -23.4820   -8.2010 C.2     1  UNL1        0.0440
      3  C         19.9340  -22.8100   -9.0420 C.2     1  UNL1        0.0330
      4  C         19.4360  -22.0780  -10.1260 C.2     1  UNL1        0.0190
      5  C         18.0620  -22.0340  -10.3770 C.2     1  UNL1        0.0260
      6  C         17.1640  -22.7130   -9.5450 C.2     1  UNL1        0.0570
      7 CL         15.4870  -22.5570   -9.9230 Cl      1  UNL1       -0.0830
      8  C         21.4070  -22.8170   -8.8110 C.2     1  UNL1        0.2510
      9  O         21.8910  -22.0560   -7.9800 O.2     1  UNL1       -0.2680
     10  N         22.1480  -23.6810   -9.5870 N.am    1  UNL1       -0.3530
     11  H         21.7270  -24.0970  -10.4050 H       1  UNL1        0.1630
     12  C         23.5950  -23.6530   -9.5690 C.3     1  UNL1        0.1610
     13  C         24.1200  -22.7930  -10.6880 C.2     1  UNL1       -0.0410
     14  C         25.4670  -22.4110  -10.7310 C.2     1  UNL1        0.0090
     15  C         25.9540  -21.6410  -11.7900 C.2     1  UNL1        0.0090
     16  C         25.1030  -21.2380  -12.8280 C.2     1  UNL1       -0.0300
     17  C         23.7580  -21.6290  -12.7900 C.2     1  UNL1        0.0090
     18  C         23.2720  -22.4000  -11.7320 C.2     1  UNL1        0.0090
     19  C         25.6320  -20.4220  -13.9900 C.3     1  UNL1        0.3110
     20  N         25.9350  -21.2310  -15.1800 N.3     1  UNL1        0.0920
     21  C         24.8510  -21.1180  -16.1670 C.3     1  UNL1        0.2720
     22  C         24.9160  -22.2230  -17.2200 C.3     1  UNL1        0.0300
     23  C         24.7550  -23.6050  -16.5900 C.3     1  UNL1        0.0030
     24  C         25.1770  -23.6250  -15.1210 C.3     1  UNL1        0.0300
     25  C         26.2950  -22.6200  -14.8520 C.3     1  UNL1        0.2720
     26  S         16.5780  -24.3240   -7.3640 S.O2    1  UNL1        0.2640
     27  O         15.4950  -24.8640   -8.1570 O.2     1  UNL1       -0.2000
     28  O         17.3980  -25.2080   -6.5600 O.2     1  UNL1       -0.2000
     29  N         15.9290  -23.1290   -6.3640 N.pl3   1  UNL1       -0.2810
     30  H         15.2290  -22.5700   -6.8530 H       1  UNL1        0.1790
     31  C         16.7660  -22.4700   -5.4200 C.2     1  UNL1        0.0430
     32  C         16.5040  -22.5210   -4.0520 C.2     1  UNL1        0.0300
     33  C         17.3610  -21.8860   -3.1530 C.2     1  UNL1        0.0030
     34  C         18.4800  -21.1950   -3.6210 C.2     1  UNL1        0.0070
     35  C         18.7520  -21.1360   -4.9930 C.2     1  UNL1       -0.0600
     36  C         19.9340  -20.3660   -5.5040 C.3     1  UNL1        0.0480
     37  C         17.8770  -21.7630   -5.8900 C.2     1  UNL1        0.0370
@<TRIPOS>BOND
     1    22    23    1
     2    22    21    1
     3    23    24    1
     4    21    20    1
     5    20    25    1
     6    20    19    1
     7    24    25    1
     8    19    16    1
     9    16    17    2
    10    16    15    1
    11    17    18    1
    12    15    14    2
    13    18    13    2
    14    14    13    1
    15    13    12    1
    16    11    10    1
    17     5     4    2
    18     5     6    1
    19     4     3    1
    20     7     6    1
    21    10    12    1
    22    10     8   am
    23     6     1    2
    24     3     8    1
    25     3     2    2
    26     8     9    2
    27     1     2    1
    28     1    26    1
    29    27    26    2
    30    26    28    2
    31    26    29    1
    32    30    29    1
    33    29    31    1
    34    37    31    2
    35    37    35    1
    36    36    35    1
    37    31    32    1
    38    35    34    2
    39    32    33    2
    40    34    33    1
