@<TRIPOS>MOLECULE
20061_out_ligand_01.pdbqt
 38 41 0 0 0
SMALL
GASTEIGER

@<TRIPOS>ATOM
      1  C         16.9740  -22.7750   -7.5550 C.2     1  UNL1        0.0860
      2  C         17.5560  -22.0030   -8.5790 C.2     1  UNL1        0.0420
      3  C         17.1300  -22.1510   -9.9020 C.2     1  UNL1        0.0330
      4  C         16.1280  -23.0800  -10.1980 C.2     1  UNL1        0.0170
      5  C         15.5460  -23.8430   -9.1820 C.2     1  UNL1        0.0090
      6  C         15.9610  -23.7110   -7.8460 C.2     1  UNL1       -0.0390
      7  C         15.2770  -24.5550   -6.8070 C.3     1  UNL1        0.0500
      8  C         17.7200  -21.3670  -11.0230 C.2     1  UNL1        0.2510
      9  O         16.9990  -20.6480  -11.7060 O.2     1  UNL1       -0.2680
     10  N         19.0810  -21.4740  -11.2020 N.am    1  UNL1       -0.3530
     11  H         19.6460  -21.8940  -10.4780 H       1  UNL1        0.1630
     12  C         19.7890  -20.6260  -12.1390 C.3     1  UNL1        0.1610
     13  C         21.1370  -21.2170  -12.4680 C.2     1  UNL1       -0.0410
     14  C         21.8590  -20.7570  -13.5780 C.2     1  UNL1        0.0090
     15  C         23.1240  -21.2730  -13.8690 C.2     1  UNL1        0.0090
     16  C         23.6890  -22.2660  -13.0590 C.2     1  UNL1       -0.0300
     17  C         22.9630  -22.7320  -11.9520 C.2     1  UNL1        0.0090
     18  C         21.7010  -22.2110  -11.6580 C.2     1  UNL1        0.0090
     19  C         25.0660  -22.8200  -13.3590 C.3     1  UNL1        0.3110
     20  N         26.1510  -22.0270  -12.7620 N.3     1  UNL1        0.0960
     21  C         26.8660  -21.1910  -13.7540 C.3     1  UNL1        0.2990
     22  C         26.4050  -19.7240  -13.7610 C.3     1  UNL1        0.1980
     23  O         26.5850  -19.0710  -12.4960 O.3     1  UNL1       -0.3880
     24  C         26.5240  -19.9750  -11.3840 C.3     1  UNL1        0.1980
     25  C         25.6260  -21.1900  -11.6610 C.3     1  UNL1        0.2990
     26  S         17.5750  -22.4970   -5.8880 S.O2    1  UNL1        0.2630
     27  O         18.1110  -23.7440   -5.3840 O.2     1  UNL1       -0.2000
     28  O         16.5380  -21.7960   -5.1580 O.2     1  UNL1       -0.2000
     29  N         18.8870  -21.4570   -6.1210 N.pl3   1  UNL1       -0.2810
     30  H         19.0950  -20.9050   -5.2910 H       1  UNL1        0.1790
     31  C         19.9840  -21.9120   -6.9060 C.2     1  UNL1        0.0430
     32  C         21.1680  -21.1800   -6.9090 C.2     1  UNL1        0.0300
     33  C         22.2780  -21.6590   -7.6060 C.2     1  UNL1        0.0090
     34  C         22.2160  -22.8730   -8.3080 C.2     1  UNL1       -0.0560
     35  C         23.4390  -23.3680   -9.0310 C.3     1  UNL1        0.0490
     36  C         21.0130  -23.6070   -8.3120 C.2     1  UNL1       -0.0540
     37  C         19.9050  -23.1150   -7.6040 C.2     1  UNL1        0.0370
     38  C         20.8920  -24.9110   -9.0520 C.3     1  UNL1        0.0490
@<TRIPOS>BOND
     1    15    14    1
     2    15    16    2
     3    22    21    1
     4    22    23    1
     5    21    20    1
     6    14    13    2
     7    19    16    1
     8    19    20    1
     9    16    17    1
    10    20    25    1
    11    23    24    1
    12    13    12    1
    13    13    18    1
    14    12    10    1
    15    17    18    2
    16     9     8    2
    17    25    24    1
    18    10     8   am
    19    10    11    1
    20     8     3    1
    21     4     3    2
    22     4     5    1
    23     3     2    1
    24     5     6    2
    25    38    36    1
    26    35    34    1
    27     2     1    2
    28    36    34    2
    29    36    37    1
    30    34    33    1
    31     6     1    1
    32     6     7    1
    33    33    32    2
    34    37    31    2
    35     1    26    1
    36    32    31    1
    37    31    29    1
    38    29    26    1
    39    29    30    1
    40    26    27    2
    41    26    28    2
