@<TRIPOS>MOLECULE
20104_out_ligand_01.pdbqt
 38 41 0 0 0
SMALL
GASTEIGER

@<TRIPOS>ATOM
      1  C         17.7040  -23.5630   -8.6290 C.2     1  UNL1        0.1020
      2  C         19.0630  -23.9250   -8.5260 C.2     1  UNL1        0.0440
      3  C         20.0030  -23.4200   -9.4290 C.2     1  UNL1        0.0330
      4  C         19.5910  -22.5380  -10.4290 C.2     1  UNL1        0.0190
      5  C         18.2420  -22.1930  -10.5430 C.2     1  UNL1        0.0260
      6  C         17.2870  -22.7090   -9.6530 C.2     1  UNL1        0.0570
      7 CL         15.6650  -22.1950   -9.9230 Cl      1  UNL1       -0.0830
      8  C         21.4440  -23.7710   -9.3350 C.2     1  UNL1        0.2510
      9  O         21.7830  -24.7830   -8.7350 O.2     1  UNL1       -0.2680
     10  N         22.3180  -22.8910   -9.9370 N.am    1  UNL1       -0.3530
     11  H         21.9840  -21.9920  -10.2540 H       1  UNL1        0.1630
     12  C         23.7510  -23.0260   -9.7810 C.3     1  UNL1        0.1610
     13  C         24.5560  -22.4610  -10.9280 C.2     1  UNL1       -0.0400
     14  C         25.2120  -21.2330  -10.7520 C.2     1  UNL1        0.0090
     15  C         26.0000  -20.6900  -11.7680 C.2     1  UNL1        0.0010
     16  C         26.1500  -21.3680  -12.9770 C.2     1  UNL1        0.0090
     17  C         25.5180  -22.6000  -13.1780 C.2     1  UNL1       -0.0300
     18  C         24.7260  -23.1360  -12.1470 C.2     1  UNL1        0.0170
     19  C         25.6530  -23.3330  -14.4970 C.3     1  UNL1        0.3110
     20  N         24.6430  -22.9420  -15.4960 N.3     1  UNL1        0.0920
     21  C         24.5490  -21.4810  -15.6290 C.3     1  UNL1        0.2720
     22  C         25.2940  -20.9220  -16.8390 C.3     1  UNL1        0.0300
     23  C         24.7600  -21.5140  -18.1430 C.3     1  UNL1        0.0030
     24  C         24.1860  -22.9170  -17.9490 C.3     1  UNL1        0.0300
     25  C         24.8580  -23.6350  -16.7800 C.3     1  UNL1        0.2720
     26  S         16.6050  -24.2850   -7.4330 S.O2    1  UNL1        0.2650
     27  O         17.4400  -25.0480   -6.5220 O.2     1  UNL1       -0.2000
     28  O         15.4920  -24.9280   -8.0900 O.2     1  UNL1       -0.2000
     29  N         16.0760  -22.9660   -6.5310 N.pl3   1  UNL1       -0.2800
     30  H         15.0670  -22.9090   -6.4380 H       1  UNL1        0.1790
     31  C         16.8970  -22.3960   -5.5210 C.2     1  UNL1        0.0490
     32  C         16.6240  -22.6070   -4.1620 C.2     1  UNL1       -0.0350
     33  C         17.5010  -22.0640   -3.2090 C.2     1  UNL1        0.0090
     34  C         15.4750  -23.4460   -3.6760 C.3     1  UNL1        0.0500
     35  C         18.6030  -21.3000   -3.6000 C.2     1  UNL1        0.0070
     36  C         18.8510  -21.0590   -4.9540 C.2     1  UNL1       -0.0600
     37  C         20.0510  -20.2680   -5.3840 C.3     1  UNL1        0.0480
     38  C         17.9990  -21.6230   -5.9080 C.2     1  UNL1        0.0370
@<TRIPOS>BOND
     1    23    24    1
     2    23    22    1
     3    24    25    1
     4    22    21    1
     5    25    20    1
     6    21    20    1
     7    20    19    1
     8    19    17    1
     9    17    16    2
    10    17    18    1
    11    16    15    1
    12    18    13    2
    13    15    14    2
    14    13    14    1
    15    13    12    1
    16     5     4    2
    17     5     6    1
    18     4     3    1
    19    11    10    1
    20    10    12    1
    21    10     8   am
    22     7     6    1
    23     6     1    2
    24     3     8    1
    25     3     2    2
    26     8     9    2
    27     1     2    1
    28     1    26    1
    29    28    26    2
    30    26    29    1
    31    26    27    2
    32    29    30    1
    33    29    31    1
    34    38    31    2
    35    38    36    1
    36    31    32    1
    37    37    36    1
    38    36    35    2
    39    32    34    1
    40    32    33    2
    41    35    33    1
