@<TRIPOS>MOLECULE
20246_out_ligand_01.pdbqt
 34 37 0 0 0
SMALL
GASTEIGER

@<TRIPOS>ATOM
      1  C         24.2720  -21.8640  -10.6940 C.2     1  UNL1        0.2400
      2  O         23.4420  -21.4670  -11.5090 O.2     1  UNL1       -0.2710
      3  N         24.0120  -22.5510   -9.5200 N.am    1  UNL1       -0.3260
      4  H         24.8140  -22.8510   -8.9640 H       1  UNL1        0.1690
      5  C         22.7410  -22.8910   -9.0080 C.2     1  UNL1        0.0340
      6  C         22.0650  -24.0680   -9.3380 C.2     1  UNL1        0.0300
      7  C         20.8060  -24.3410   -8.7960 C.2     1  UNL1        0.0190
      8  C         20.1930  -23.4160   -7.9490 C.2     1  UNL1        0.0320
      9  C         20.8610  -22.2410   -7.5990 C.2     1  UNL1        0.0190
     10  C         22.1360  -21.9880   -8.1190 C.2     1  UNL1        0.0300
     11  C         18.8580  -23.7470   -7.3930 C.2     1  UNL1        0.2520
     12  O         18.0850  -24.4520   -8.0320 O.2     1  UNL1       -0.2680
     13  N         18.5630  -23.1760   -6.1690 N.am    1  UNL1       -0.3520
     14  H         19.1480  -22.4070   -5.8640 H       1  UNL1        0.1630
     15  C         17.2070  -23.2430   -5.6330 C.3     1  UNL1        0.0840
     16  C         17.2220  -23.0590   -4.1080 C.3     1  UNL1        0.0250
     17  C         15.9940  -22.3290   -3.5670 C.3     1  UNL1        0.0020
     18  C         14.7360  -22.6860   -4.3470 C.3     1  UNL1        0.0000
     19  C         14.8520  -22.3180   -5.8280 C.3     1  UNL1        0.0020
     20  C         16.2960  -22.2190   -6.3230 C.3     1  UNL1        0.0250
     21  C         25.7370  -21.5820  -10.9260 C.3     1  UNL1        0.2330
     22  N         26.0000  -21.2140  -12.3020 N.pl3   1  UNL1       -0.3250
     23  C         26.2340  -19.9380  -12.7540 C.2     1  UNL1        0.2130
     24  N         26.2740  -19.8900  -14.0710 N.2     1  UNL1       -0.2230
     25  C         26.0720  -21.1810  -14.4650 C.ar    1  UNL1        0.1670
     26  C         25.9570  -22.0250  -13.4020 C.ar    1  UNL1        0.1510
     27  N         25.9800  -21.6340  -15.7590 N.ar    1  UNL1       -0.2860
     28  C         25.8130  -23.4350  -13.5380 C.ar    1  UNL1        0.2820
     29  N         25.6170  -23.8330  -14.8610 N.ar    1  UNL1       -0.2690
     30  O         25.9020  -24.1930  -12.5760 O.2     1  UNL1       -0.2650
     31  C         25.3630  -25.2420  -15.1220 C.3     1  UNL1        0.1640
     32  C         25.7460  -22.9920  -15.9930 C.ar    1  UNL1        0.3320
     33  O         25.6640  -23.4470  -17.1390 O.2     1  UNL1       -0.2460
     34  C         26.1230  -20.7050  -16.8630 C.3     1  UNL1        0.1630
@<TRIPOS>BOND
     1    33    32    2
     2    34    27    1
     3    32    27   ar
     4    32    29   ar
     5    27    25   ar
     6    31    29    1
     7    29    28   ar
     8    25    24    1
     9    25    26   ar
    10    24    23    2
    11    28    26   ar
    12    28    30    2
    13    26    22    1
    14    23    22    1
    15    22    21    1
    16     2     1    2
    17    21     1    1
    18     1     3   am
    19     3     5    1
    20     3     4    1
    21     6     5    2
    22     6     7    1
    23     5    10    1
    24     7     8    2
    25    10     9    2
    26    12    11    2
    27     8     9    1
    28     8    11    1
    29    11    13   am
    30    20    19    1
    31    20    15    1
    32    13    14    1
    33    13    15    1
    34    19    18    1
    35    15    16    1
    36    18    17    1
    37    16    17    1
