@<TRIPOS>MOLECULE
2025_out_ligand_01.pdbqt
 34 37 0 0 0
SMALL
GASTEIGER

@<TRIPOS>ATOM
      1  S         17.7890  -23.5920  -10.2860 S.3     1  UNL1       -0.0800
      2  C         18.0250  -22.0140  -10.9580 C.ar    1  UNL1        0.2030
      3  N         17.0370  -21.1650  -11.1250 N.ar    1  UNL1       -0.1350
      4  N         17.6070  -19.9970  -11.5360 N.ar    1  UNL1        0.0190
      5  N         18.9180  -20.1210  -11.6450 N.ar    1  UNL1        0.0030
      6  N         19.2220  -21.4150  -11.3340 N.ar    1  UNL1       -0.2170
      7  C         20.5640  -21.8760  -11.4630 C.2     1  UNL1        0.0570
      8  C         21.3250  -21.4340  -12.5640 C.2     1  UNL1        0.0320
      9  C         22.6480  -21.8580  -12.7440 C.2     1  UNL1        0.0190
     10  C         23.2340  -22.7320  -11.8270 C.2     1  UNL1        0.0320
     11  C         22.4730  -23.1980  -10.7490 C.2     1  UNL1        0.0190
     12  C         21.1490  -22.7750  -10.5670 C.2     1  UNL1        0.0320
     13  C         24.6320  -23.2190  -11.9690 C.2     1  UNL1        0.2490
     14  N         24.9040  -24.0760  -12.9990 N.am    1  UNL1       -0.3660
     15  H         24.2870  -24.1850  -13.7900 H       1  UNL1        0.1590
     16  H         25.8820  -24.2930  -13.1430 H       1  UNL1        0.1590
     17  O         25.5240  -22.8450  -11.2170 O.2     1  UNL1       -0.2680
     18  C         16.0630  -23.4260   -9.7290 C.3     1  UNL1        0.1850
     19  C         15.9790  -23.7470   -8.2430 C.2     1  UNL1        0.2310
     20  O         15.6810  -24.8780   -7.8670 O.2     1  UNL1       -0.2720
     21  N         16.2120  -22.6500   -7.4330 N.am    1  UNL1       -0.3260
     22  H         16.4190  -21.7700   -7.8980 H       1  UNL1        0.1690
     23  C         16.1520  -22.5780   -6.0170 C.2     1  UNL1        0.0450
     24  C         14.9630  -22.7740   -5.3020 C.2     1  UNL1        0.0300
     25  C         14.9420  -22.6950   -3.9070 C.2     1  UNL1        0.0020
     26  C         16.1080  -22.4230   -3.2030 C.2     1  UNL1        0.0010
     27  C         17.3000  -22.2270   -3.8960 C.2     1  UNL1        0.0140
     28  C         17.3450  -22.2980   -5.3020 C.2     1  UNL1        0.0010
     29  C         18.6360  -22.0790   -5.9710 C.2     1  UNL1       -0.0240
     30  C         19.1070  -22.9890   -6.9280 C.2     1  UNL1        0.0120
     31  C         20.3470  -22.7990   -7.5410 C.2     1  UNL1        0.0010
     32  C         21.1250  -21.6930   -7.2120 C.2     1  UNL1        0.0000
     33  C         20.6660  -20.7740   -6.2700 C.2     1  UNL1        0.0010
     34  C         19.4280  -20.9660   -5.6530 C.2     1  UNL1        0.0120
@<TRIPOS>BOND
     1    15    14    1
     2    16    14    1
     3    14    13   am
     4     9     8    1
     5     9    10    2
     6     8     7    2
     7    13    10    1
     8    13    17    2
     9    10    11    1
    10     5     4   ar
    11     5     6   ar
    12     4     3   ar
    13     7     6    1
    14     7    12    1
    15     6     2   ar
    16     3     2   ar
    17     2     1    1
    18    11    12    2
    19     1    18    1
    20    18    19    1
    21    19    20    2
    22    19    21   am
    23    22    21    1
    24    31    32    2
    25    31    30    1
    26    21    23    1
    27    32    33    1
    28    30    29    2
    29    33    34    2
    30    23    28    2
    31    23    24    1
    32    29    34    1
    33    29    28    1
    34    28    27    1
    35    24    25    2
    36    25    26    1
    37    27    26    2
