@<TRIPOS>MOLECULE
20425_out_ligand_01.pdbqt
 38 42 0 0 0
SMALL
GASTEIGER

@<TRIPOS>ATOM
      1  C         22.2970  -22.7880   -9.0460 C.2     1  UNL1        0.0810
      2  C         22.4170  -21.8050   -8.0860 C.2     1  UNL1        0.0370
      3  C         21.2030  -21.8030   -7.3590 C.2     1  UNL1        0.0390
      4  C         20.4050  -22.7860   -7.9140 C.2     1  UNL1        0.0970
      5  O         21.0840  -23.4010   -8.9360 O.2     1  UNL1       -0.3140
      6  C         19.0060  -23.3000   -7.6440 C.3     1  UNL1        0.1610
      7  O         19.1120  -24.7300   -7.7810 O.3     1  UNL1       -0.3730
      8  H         18.2610  -25.0050   -8.1710 H       1  UNL1        0.2120
      9  C         17.9650  -22.8660   -8.6940 C.2     1  UNL1       -0.0100
     10  C         16.6200  -23.2720   -8.5530 C.2     1  UNL1        0.0110
     11  C         15.6430  -22.8850   -9.4760 C.2     1  UNL1        0.0040
     12  C         15.9920  -22.0790  -10.5560 C.2     1  UNL1        0.0420
     13  C         17.3090  -21.6670  -10.7010 C.2     1  UNL1        0.1170
     14  F         17.6450  -20.8870  -11.7380 F       1  UNL1       -0.2060
     15  C         18.2900  -22.0450   -9.7880 C.2     1  UNL1        0.0530
     16  C         18.5530  -22.9870   -6.2070 C.2     1  UNL1       -0.0100
     17  C         17.8970  -23.9530   -5.4160 C.2     1  UNL1        0.0110
     18  C         17.4610  -23.6560   -4.1210 C.2     1  UNL1        0.0040
     19  C         17.6620  -22.3840   -3.5960 C.2     1  UNL1        0.0420
     20  C         18.2940  -21.4190   -4.3680 C.2     1  UNL1        0.1170
     21  F         18.4790  -20.1920   -3.8640 F       1  UNL1       -0.2060
     22  C         18.7330  -21.7040   -5.6570 C.2     1  UNL1        0.0530
     23  C         23.2090  -23.2850  -10.1180 C.3     1  UNL1        0.3380
     24  N         23.2150  -22.4050  -11.2900 N.3     1  UNL1        0.1030
     25  C         24.4120  -22.6020  -12.1200 C.3     1  UNL1        0.3150
     26  C         25.2540  -21.3480  -12.2540 C.2     1  UNL1        0.0060
     27  C         25.8790  -20.8080  -11.1190 C.2     1  UNL1        0.0120
     28  C         26.6770  -19.6710  -11.2240 C.2     1  UNL1        0.0030
     29  C         26.8740  -19.0630  -12.4660 C.2     1  UNL1        0.0390
     30  C         26.2720  -19.5820  -13.6160 C.2     1  UNL1        0.1020
     31  C         25.4350  -20.7110  -13.4980 C.2     1  UNL1        0.1090
     32  O         26.4440  -19.0610  -14.8720 O.2     1  UNL1       -0.3530
     33  C         27.0310  -17.7710  -14.9730 C.3     1  UNL1        0.2100
     34  O         24.8110  -21.2910  -14.5800 O.2     1  UNL1       -0.3520
     35  C         25.6500  -22.1930  -15.2980 C.3     1  UNL1        0.2100
     36  C         21.9570  -22.2680  -12.0530 C.3     1  UNL1        0.2240
     37  C         21.7210  -21.2600  -13.1500 C.3     1  UNL1        0.0380
     38  C         21.0360  -21.0930  -11.8300 C.3     1  UNL1        0.0380
@<TRIPOS>BOND
     1    35    34    1
     2    33    32    1
     3    32    30    1
     4    34    31    1
     5    30    31    1
     6    30    29    2
     7    31    26    2
     8    37    36    1
     9    37    38    1
    10    29    28    1
    11    26    25    1
    12    26    27    1
    13    25    24    1
    14    36    38    1
    15    36    24    1
    16    14    13    1
    17    24    23    1
    18    28    27    2
    19    13    12    2
    20    13    15    1
    21    12    11    1
    22    23     1    1
    23    15     9    2
    24    11    10    2
    25     1     5    1
    26     1     2    2
    27     5     4    1
    28     9    10    1
    29     9     6    1
    30     8     7    1
    31     2     3    1
    32     4     6    1
    33     4     3    2
    34     7     6    1
    35     6    16    1
    36    16    22    2
    37    16    17    1
    38    22    20    1
    39    17    18    2
    40    20    21    1
    41    20    19    2
    42    18    19    1
