@<TRIPOS>MOLECULE
20423_out_ligand_01.pdbqt
 38 42 0 0 0
SMALL
GASTEIGER

@<TRIPOS>ATOM
      1  C         23.0440  -22.8770   -8.8790 C.2     1  UNL1        0.0810
      2  C         22.9580  -21.7680   -8.0610 C.2     1  UNL1        0.0370
      3  C         21.6130  -21.6880   -7.6340 C.2     1  UNL1        0.0390
      4  C         20.9360  -22.7380   -8.2300 C.2     1  UNL1        0.0970
      5  O         21.8110  -23.4490   -9.0070 O.2     1  UNL1       -0.3140
      6  C         19.4700  -23.1420   -8.2500 C.3     1  UNL1        0.1610
      7  O         19.5490  -24.5460   -8.5640 O.3     1  UNL1       -0.3730
      8  H         18.7420  -24.7350   -9.0770 H       1  UNL1        0.2120
      9  C         18.7270  -23.0060   -6.9020 C.2     1  UNL1       -0.0100
     10  C         17.9230  -24.0440   -6.3830 C.2     1  UNL1        0.0110
     11  C         17.2790  -23.9180   -5.1450 C.2     1  UNL1        0.0040
     12  C         17.4310  -22.7560   -4.3960 C.2     1  UNL1        0.0420
     13  C         18.2350  -21.7340   -4.8810 C.2     1  UNL1        0.1170
     14  F         18.3850  -20.6150   -4.1600 F       1  UNL1       -0.2060
     15  C         18.8870  -21.8520   -6.1080 C.2     1  UNL1        0.0530
     16  C         18.6800  -22.4260   -9.3630 C.2     1  UNL1       -0.0100
     17  C         17.2660  -22.4070   -9.3490 C.2     1  UNL1        0.0110
     18  C         16.5370  -21.7720  -10.3600 C.2     1  UNL1        0.0040
     19  C         17.2080  -21.1410  -11.4070 C.2     1  UNL1        0.0420
     20  C         18.5960  -21.1730  -11.4430 C.2     1  UNL1        0.1170
     21  F         19.2420  -20.5770  -12.4540 F       1  UNL1       -0.2060
     22  C         19.3330  -21.8100  -10.4450 C.2     1  UNL1        0.0530
     23  C         24.1410  -23.5310   -9.6560 C.3     1  UNL1        0.3370
     24  N         24.4830  -22.8210  -10.8950 N.3     1  UNL1        0.1010
     25  C         23.4500  -22.9830  -11.9330 C.3     1  UNL1        0.3110
     26  C         23.9060  -22.5880  -13.3240 C.2     1  UNL1       -0.0300
     27  C         23.4180  -21.4290  -13.9430 C.2     1  UNL1        0.0090
     28  C         23.8550  -21.0640  -15.2190 C.2     1  UNL1        0.0070
     29  C         24.8060  -21.8380  -15.8920 C.2     1  UNL1       -0.0620
     30  C         25.2480  -21.4730  -17.2790 C.3     1  UNL1        0.0480
     31  C         25.2990  -22.9930  -15.2770 C.2     1  UNL1        0.0070
     32  C         24.8590  -23.3600  -14.0020 C.2     1  UNL1        0.0090
     33  C         24.8930  -21.4230  -10.6680 C.3     1  UNL1        0.3050
     34  C         26.3830  -20.9950  -10.7670 C.3     1  UNL1        0.1490
     35  C         27.1210  -21.3720  -12.0410 C.3     1  UNL1        0.0360
     36  C         26.7600  -20.2470  -12.9790 C.3     1  UNL1        0.0290
     37  C         26.7540  -19.0560  -12.0470 C.3     1  UNL1        0.1680
     38  O         26.4210  -19.5460  -10.7390 O.3     1  UNL1       -0.3840
@<TRIPOS>BOND
     1    30    29    1
     2    29    31    2
     3    29    28    1
     4    31    32    1
     5    28    27    2
     6    32    26    2
     7    27    26    1
     8    26    25    1
     9    36    37    1
    10    36    35    1
    11    21    20    1
    12    37    38    1
    13    35    34    1
    14    25    24    1
    15    20    19    2
    16    20    22    1
    17    19    18    1
    18    24    33    1
    19    24    23    1
    20    34    38    1
    21    34    33    1
    22    22    16    2
    23    18    17    2
    24    23     1    1
    25    16    17    1
    26    16     6    1
    27     8     7    1
    28     5     1    1
    29     5     4    1
    30     1     2    2
    31     7     6    1
    32     6     4    1
    33     6     9    1
    34     4     3    2
    35     2     3    1
    36     9    10    2
    37     9    15    1
    38    10    11    1
    39    15    13    2
    40    11    12    2
    41    13    12    1
    42    13    14    1
