@<TRIPOS>MOLECULE
2064_out_ligand_01.pdbqt
 45 48 0 0 0
SMALL
GASTEIGER

@<TRIPOS>ATOM
      1  C         21.8350  -22.4340  -11.0600 C.2     1  UNL1        0.2560
      2  O         20.7550  -22.3500  -11.6330 O.2     1  UNL1       -0.2670
      3  N         22.0370  -22.5750   -9.6980 N.am    1  UNL1       -0.3230
      4  H         22.9890  -22.4930   -9.3690 H       1  UNL1        0.1690
      5  C         21.0560  -22.7480   -8.6980 C.2     1  UNL1        0.0350
      6  C         20.2690  -23.9070   -8.7710 C.2     1  UNL1        0.0310
      7  C         19.2570  -24.1470   -7.8370 C.2     1  UNL1        0.0270
      8  C         19.0430  -23.2280   -6.8080 C.2     1  UNL1        0.0750
      9  C         19.8130  -22.0670   -6.7250 C.2     1  UNL1        0.0270
     10  C         20.8170  -21.8320   -7.6700 C.2     1  UNL1        0.0310
     11  S         17.7400  -23.5090   -5.6340 S.O2    1  UNL1        0.2450
     12  O         18.1290  -22.8890   -4.3840 O.2     1  UNL1       -0.2060
     13  O         17.3560  -24.9000   -5.7150 O.2     1  UNL1       -0.2060
     14  N         16.5090  -22.5220   -6.2910 N.pl3   1  UNL1       -0.1810
     15  H         15.6590  -22.7550   -5.7750 H       1  UNL1        0.1460
     16  C         16.3010  -22.7180   -7.6950 C.2     1  UNL1        0.0230
     17  C         15.5790  -23.8170   -8.1630 C.2     1  UNL1        0.0240
     18  C         15.4260  -24.0110   -9.5350 C.2     1  UNL1        0.0030
     19  C         16.0000  -23.1100  -10.4320 C.2     1  UNL1        0.0160
     20  C         16.7430  -22.0100   -9.9700 C.2     1  UNL1        0.0490
     21  C         16.8960  -21.8280   -8.5880 C.2     1  UNL1        0.0400
     22  C         17.3580  -21.0470  -10.9560 C.3     1  UNL1        0.4170
     23  F         17.3810  -21.5400  -12.2240 F       1  UNL1       -0.1660
     24  F         16.6690  -19.8710  -11.0240 F       1  UNL1       -0.1660
     25  F         18.6430  -20.7040  -10.6610 F       1  UNL1       -0.1660
     26  C         23.0800  -22.3530  -11.8790 C.2     1  UNL1        0.0320
     27  C         24.1800  -23.1870  -11.6440 C.2     1  UNL1        0.0170
     28  C         25.3340  -23.0670  -12.4250 C.2     1  UNL1        0.0100
     29  C         25.4050  -22.1160  -13.4540 C.2     1  UNL1       -0.0390
     30  C         24.2820  -21.3140  -13.7120 C.2     1  UNL1        0.0100
     31  C         23.1290  -21.4290  -12.9290 C.2     1  UNL1        0.0170
     32  C         26.6590  -21.9930  -14.2940 C.3     1  UNL1        0.1800
     33  N         26.3860  -21.8200  -15.7390 N.pl3   1  UNL1       -0.2720
     34  C         26.3650  -20.4850  -16.2720 C.2     1  UNL1        0.0450
     35  C         25.8420  -20.2670  -17.5430 C.2     1  UNL1        0.0310
     36  C         25.7450  -18.9700  -18.0470 C.2     1  UNL1        0.0090
     37  C         26.1560  -17.8670  -17.2780 C.2     1  UNL1       -0.0560
     38  C         26.0200  -16.4830  -17.8520 C.3     1  UNL1        0.0490
     39  C         26.6790  -18.0820  -15.9870 C.2     1  UNL1       -0.0540
     40  C         26.7720  -19.3940  -15.4940 C.2     1  UNL1        0.0370
     41  C         27.1110  -16.9330  -15.1150 C.3     1  UNL1        0.0490
     42  S         25.3660  -22.9570  -16.4850 S.O2    1  UNL1        0.2290
     43  C         25.5840  -24.4050  -15.4670 C.3     1  UNL1        0.1860
     44  O         25.9070  -23.2800  -17.7900 O.2     1  UNL1       -0.2060
     45  O         23.9900  -22.5300  -16.3460 O.2     1  UNL1       -0.2060
@<TRIPOS>BOND
     1    36    35    1
     2    36    37    2
     3    38    37    1
     4    44    42    2
     5    35    34    2
     6    37    39    1
     7    42    45    2
     8    42    33    1
     9    42    43    1
    10    34    33    1
    11    34    40    1
    12    39    40    2
    13    39    41    1
    14    33    32    1
    15    32    29    1
    16    30    29    2
    17    30    31    1
    18    29    28    1
    19    31    26    2
    20    28    27    2
    21    23    22    1
    22    26    27    1
    23    26     1    1
    24     2     1    2
    25     1     3   am
    26    24    22    1
    27    22    25    1
    28    22    20    1
    29    19    20    2
    30    19    18    1
    31    20    21    1
    32     3     4    1
    33     3     5    1
    34    18    17    2
    35     6     5    2
    36     6     7    1
    37     5    10    1
    38    21    16    2
    39    17    16    1
    40     7     8    2
    41    16    14    1
    42    10     9    2
    43     8     9    1
    44     8    11    1
    45    14    15    1
    46    14    11    1
    47    13    11    2
    48    11    12    2
