@<TRIPOS>MOLECULE
20666_out_ligand_01.pdbqt
 35 39 0 0 0
SMALL
GASTEIGER

@<TRIPOS>ATOM
      1  C         22.5190  -22.9280  -10.6470 C.ar    1  UNL1        0.1920
      2  N         23.2790  -23.6040   -9.8230 N.ar    1  UNL1       -0.1230
      3  N         22.4740  -24.1930   -8.9010 N.ar    1  UNL1       -0.1340
      4  C         21.2210  -23.8520   -9.1510 C.ar    1  UNL1        0.1350
      5  N         21.1930  -23.0530  -10.2840 N.ar    1  UNL1       -0.3060
      6  S         23.1030  -21.9850  -11.9720 S.3     1  UNL1       -0.0760
      7  C         24.9070  -22.2830  -11.9730 C.3     1  UNL1        0.1430
      8  C         25.7690  -21.0380  -11.8020 C.3     1  UNL1        0.0310
      9  C         25.3430  -23.1490  -13.1540 C.2     1  UNL1        0.2310
     10  O         25.0150  -24.3360  -13.2240 O.2     1  UNL1       -0.2720
     11  N         26.1560  -22.5580  -14.0870 N.am    1  UNL1       -0.3540
     12  H         26.2310  -21.5410  -14.0980 H       1  UNL1        0.1620
     13  C         26.6300  -23.2620  -15.2540 C.3     1  UNL1        0.1870
     14  C         25.8250  -22.8810  -16.4390 C.2     1  UNL1        0.0700
     15  C         25.6840  -21.7030  -17.1470 C.2     1  UNL1        0.0360
     16  C         24.7170  -21.9520  -18.1520 C.2     1  UNL1        0.0270
     17  C         24.3280  -23.2610  -17.9940 C.2     1  UNL1        0.1420
     18  O         24.9990  -23.8350  -16.9600 O.2     1  UNL1       -0.3250
     19  C         20.0650  -22.4420  -10.9810 C.3     1  UNL1        0.0930
     20  C         18.6770  -22.9980  -10.6170 C.3     1  UNL1        0.0260
     21  C         17.5890  -22.3870  -11.5010 C.3     1  UNL1        0.0020
     22  C         17.6130  -20.8620  -11.4350 C.3     1  UNL1        0.0000
     23  C         18.9870  -20.3010  -11.7940 C.3     1  UNL1        0.0020
     24  C         20.0930  -20.9070  -10.9310 C.3     1  UNL1        0.0260
     25  C         20.0760  -24.3100   -8.2980 C.3     1  UNL1        0.1200
     26  C         19.4810  -23.2540   -7.3800 C.2     1  UNL1       -0.0400
     27  C         20.3030  -22.1770   -6.9850 C.2     1  UNL1        0.0080
     28  C         19.8250  -21.1740   -6.1500 C.2     1  UNL1        0.0010
     29  C         18.5200  -21.2370   -5.6710 C.2     1  UNL1        0.0120
     30  C         17.6840  -22.3120   -6.0030 C.2     1  UNL1       -0.0250
     31  C         16.3830  -22.3580   -5.4770 C.2     1  UNL1        0.0120
     32  C         18.1560  -23.3500   -6.8530 C.2     1  UNL1       -0.0190
     33  C         15.5300  -23.4190   -5.7650 C.2     1  UNL1        0.0010
     34  C         15.9700  -24.4510   -6.5790 C.2     1  UNL1        0.0010
     35  C         17.2630  -24.4210   -7.1080 C.2     1  UNL1        0.0130
@<TRIPOS>BOND
     1    16    17    2
     2    16    15    1
     3    17    18    1
     4    15    14    2
     5    18    14    1
     6    14    13    1
     7    13    11    1
     8    12    11    1
     9    11     9   am
    10    10     9    2
    11     9     7    1
    12     7     6    1
    13     7     8    1
    14     6     1    1
    15    23    22    1
    16    23    24    1
    17    21    22    1
    18    21    20    1
    19    19    24    1
    20    19    20    1
    21    19     5    1
    22     1     5   ar
    23     1     2   ar
    24     5     4   ar
    25     2     3   ar
    26     4     3   ar
    27     4    25    1
    28    25    26    1
    29    26    27    2
    30    26    32    1
    31    35    32    1
    32    35    34    2
    33    27    28    1
    34    32    30    2
    35    34    33    1
    36    28    29    2
    37    30    29    1
    38    30    31    1
    39    33    31    2
