@<TRIPOS>MOLECULE
20855_out_ligand_01.pdbqt
 33 36 0 0 0
SMALL
GASTEIGER

@<TRIPOS>ATOM
      1  C         22.5210  -22.7920  -10.7670 C.ar    1  UNL1        0.1920
      2  N         23.3080  -23.5080   -9.9990 N.ar    1  UNL1       -0.1230
      3  N         22.5370  -24.1160   -9.0510 N.ar    1  UNL1       -0.1340
      4  C         21.2780  -23.7830   -9.2680 C.ar    1  UNL1        0.1350
      5  N         21.2110  -22.9780  -10.3930 N.ar    1  UNL1       -0.3060
      6  S         23.0600  -21.7650  -12.0470 S.3     1  UNL1       -0.0810
      7  C         24.8460  -21.7270  -11.7590 C.3     1  UNL1        0.1850
      8  C         25.6210  -21.5670  -13.0570 C.2     1  UNL1        0.2270
      9  N         24.9710  -22.0810  -14.1640 N.am    1  UNL1       -0.3560
     10  H         24.3910  -22.8940  -13.9550 H       1  UNL1        0.1620
     11  O         26.7110  -21.0030  -13.1010 O.2     1  UNL1       -0.2730
     12  C         25.5750  -22.0770  -15.4970 C.3     1  UNL1        0.0830
     13  C         25.0280  -20.9120  -16.3290 C.3     1  UNL1        0.0320
     14  C         25.3740  -23.4660  -16.1660 C.3     1  UNL1       -0.0000
     15  C         24.1430  -23.5000  -17.0730 C.3     1  UNL1        0.0110
     16  C         25.3160  -24.6200  -15.1580 C.3     1  UNL1        0.0110
     17  C         19.9980  -22.4630  -11.0150 C.3     1  UNL1        0.0930
     18  C         18.7190  -23.2090  -10.5830 C.3     1  UNL1        0.0260
     19  C         17.5060  -22.2880  -10.4540 C.3     1  UNL1        0.0020
     20  C         17.4290  -21.3030  -11.6130 C.3     1  UNL1        0.0000
     21  C         18.6770  -20.4210  -11.7280 C.3     1  UNL1        0.0020
     22  C         19.8750  -20.9340  -10.9280 C.3     1  UNL1        0.0260
     23  C         20.1200  -24.2360   -8.4290 C.3     1  UNL1        0.1200
     24  C         19.6210  -23.1960   -7.4340 C.2     1  UNL1       -0.0400
     25  C         20.4850  -22.1270   -7.1150 C.2     1  UNL1        0.0080
     26  C         20.0960  -21.1260   -6.2330 C.2     1  UNL1        0.0010
     27  C         18.8400  -21.1790   -5.6420 C.2     1  UNL1        0.0120
     28  C         17.9610  -22.2350   -5.9130 C.2     1  UNL1       -0.0250
     29  C         16.7020  -22.2580   -5.2900 C.2     1  UNL1        0.0120
     30  C         18.3400  -23.2720   -6.8070 C.2     1  UNL1       -0.0190
     31  C         15.8010  -23.2930   -5.5240 C.2     1  UNL1        0.0010
     32  C         16.1510  -24.3230   -6.3860 C.2     1  UNL1        0.0010
     33  C         17.4000  -24.3140   -7.0130 C.2     1  UNL1        0.0130
@<TRIPOS>BOND
     1    15    14    1
     2    13    12    1
     3    14    12    1
     4    14    16    1
     5    12     9    1
     6     9    10    1
     7     9     8   am
     8    11     8    2
     9     8     7    1
    10     6     7    1
    11     6     1    1
    12    21    20    1
    13    21    22    1
    14    20    19    1
    15    17    22    1
    16    17    18    1
    17    17     5    1
    18     1     5   ar
    19     1     2   ar
    20    18    19    1
    21     5     4   ar
    22     2     3   ar
    23     4     3   ar
    24     4    23    1
    25    23    24    1
    26    24    25    2
    27    24    30    1
    28    25    26    1
    29    33    30    1
    30    33    32    2
    31    30    28    2
    32    32    31    1
    33    26    27    2
    34    28    27    1
    35    28    29    1
    36    31    29    2
