@<TRIPOS>MOLECULE
20862_out_ligand_01.pdbqt
 34 37 0 0 0
SMALL
GASTEIGER

@<TRIPOS>ATOM
      1  C         22.6300  -22.7000  -11.0560 C.ar    1  UNL1        0.1920
      2  N         23.5220  -23.3260  -10.3260 N.ar    1  UNL1       -0.1230
      3  N         22.8660  -23.9390   -9.3030 N.ar    1  UNL1       -0.1340
      4  C         21.5800  -23.6510   -9.3940 C.ar    1  UNL1        0.1350
      5  N         21.3740  -22.8710  -10.5190 N.ar    1  UNL1       -0.3060
      6  S         23.0050  -21.7820  -12.4720 S.3     1  UNL1       -0.0810
      7  C         24.7670  -22.1650  -12.6580 C.3     1  UNL1        0.1850
      8  C         25.0640  -22.6870  -14.0510 C.2     1  UNL1        0.2350
      9  N         25.3250  -21.7150  -14.9970 N.am    1  UNL1       -0.2790
     10  C         24.8030  -21.7820  -16.2590 C.2     1  UNL1        0.3220
     11  H         25.2410  -20.7620  -14.6570 H       1  UNL1        0.1730
     12  N         24.8460  -23.0050  -16.8520 N.am    1  UNL1       -0.3430
     13  O         24.3100  -20.7870  -16.7820 O.2     1  UNL1       -0.2470
     14  H         25.2040  -23.7770  -16.2890 H       1  UNL1        0.1640
     15  O         25.1040  -23.8970  -14.2840 O.2     1  UNL1       -0.2720
     16  C         24.2730  -23.2760  -18.1480 C.3     1  UNL1        0.1200
     17  C         22.8710  -23.8460  -18.0160 C.3     1  UNL1        0.0260
     18  C         20.1170  -22.3810  -11.0740 C.3     1  UNL1        0.0930
     19  C         19.9250  -20.8610  -10.9500 C.3     1  UNL1        0.0260
     20  C         18.7090  -20.3890  -11.7550 C.3     1  UNL1        0.0020
     21  C         17.5510  -21.3900  -11.7670 C.3     1  UNL1        0.0000
     22  C         17.5990  -22.3470  -10.5800 C.3     1  UNL1        0.0020
     23  C         18.8910  -23.1720  -10.5740 C.3     1  UNL1        0.0260
     24  C         20.5500  -24.1410   -8.4210 C.3     1  UNL1        0.1200
     25  C         19.9590  -23.0960   -7.4810 C.2     1  UNL1       -0.0400
     26  C         20.7330  -21.9830   -7.1000 C.2     1  UNL1        0.0080
     27  C         20.2240  -21.0090   -6.2450 C.2     1  UNL1        0.0010
     28  C         18.9340  -21.1330   -5.7430 C.2     1  UNL1        0.0120
     29  C         18.1420  -22.2420   -6.0690 C.2     1  UNL1       -0.0250
     30  C         16.8480  -22.3500   -5.5270 C.2     1  UNL1        0.0120
     31  C         18.6470  -23.2520   -6.9290 C.2     1  UNL1       -0.0190
     32  C         16.0380  -23.4490   -5.8130 C.2     1  UNL1        0.0010
     33  C         16.5160  -24.4550   -6.6370 C.2     1  UNL1        0.0010
     34  C         17.8000  -24.3600   -7.1840 C.2     1  UNL1        0.0130
@<TRIPOS>BOND
     1    16    17    1
     2    16    12    1
     3    12    14    1
     4    12    10   am
     5    13    10    2
     6    10     9   am
     7     9    11    1
     8     9     8   am
     9    15     8    2
    10     8     7    1
    11     7     6    1
    12     6     1    1
    13    21    20    1
    14    21    22    1
    15    20    19    1
    16    18    19    1
    17    18    23    1
    18    18     5    1
    19     1     5   ar
    20     1     2   ar
    21    22    23    1
    22     5     4   ar
    23     2     3   ar
    24     4     3   ar
    25     4    24    1
    26    24    25    1
    27    25    26    2
    28    25    31    1
    29    34    31    1
    30    34    33    2
    31    26    27    1
    32    31    29    2
    33    33    32    1
    34    27    28    2
    35    29    28    1
    36    29    30    1
    37    32    30    2
