@<TRIPOS>MOLECULE
21048_out_ligand_01.pdbqt
 33 37 0 0 0
SMALL
GASTEIGER

@<TRIPOS>ATOM
      1  C         21.9450  -22.6410  -11.2740 C.ar    1  UNL1       -0.0180
      2  C         20.8610  -21.9160  -11.7530 C.ar    1  UNL1        0.0500
      3  N         21.3040  -21.1760  -12.8240 N.ar    1  UNL1       -0.3540
      4  C         22.6380  -21.4040  -13.0600 C.ar    1  UNL1        0.0430
      5  C         23.4830  -20.8730  -14.0410 C.2     1  UNL1        0.0300
      6  C         24.8160  -21.2950  -14.0450 C.2     1  UNL1        0.0020
      7  C         25.2820  -22.2130  -13.1050 C.2     1  UNL1        0.0010
      8  C         24.4220  -22.7330  -12.1320 C.2     1  UNL1        0.0140
      9  C         23.0710  -22.3210  -12.1040 C.ar    1  UNL1       -0.0010
     10  H         20.7280  -20.5430  -13.3610 H       1  UNL1        0.1660
     11  C         21.9480  -23.6130  -10.1300 C.3     1  UNL1        0.0510
     12  C         22.7910  -23.1100   -8.9600 C.3     1  UNL1        0.1070
     13  C         21.9840  -22.2310   -8.0290 C.2     1  UNL1        0.2180
     14  N         20.7370  -22.7430   -7.7570 N.am    1  UNL1       -0.3540
     15  H         20.3850  -23.4970   -8.3340 H       1  UNL1        0.1620
     16  O         22.4040  -21.1880   -7.5400 O.2     1  UNL1       -0.2740
     17  C         19.7440  -21.9920   -7.0190 C.3     1  UNL1        0.2030
     18  C         18.6790  -22.9310   -6.5910 C.ar    1  UNL1        0.1480
     19  N         18.4500  -24.1260   -7.1060 N.ar    1  UNL1       -0.1330
     20  N         17.4190  -24.7070   -6.4050 N.ar    1  UNL1       -0.1350
     21  C         17.0380  -23.8650   -5.4630 C.ar    1  UNL1        0.1260
     22  C         15.9930  -24.1040   -4.4440 C.3     1  UNL1        0.0930
     23  N         17.7850  -22.7240   -5.5740 N.ar    1  UNL1       -0.3140
     24  C         17.7330  -21.5550   -4.6690 C.3     1  UNL1        0.0930
     25  C         18.4730  -21.5170   -3.3500 C.3     1  UNL1        0.0280
     26  C         18.9050  -20.6180   -4.4660 C.3     1  UNL1        0.0280
     27  C         19.4710  -21.8600  -11.3110 C.2     1  UNL1       -0.0090
     28  C         18.9060  -22.9360  -10.6120 C.2     1  UNL1        0.0170
     29  C         17.5760  -22.8800  -10.1910 C.2     1  UNL1        0.0430
     30  C         16.8160  -21.7510  -10.4700 C.2     1  UNL1        0.1160
     31  F         15.5390  -21.6980  -10.0630 F       1  UNL1       -0.2060
     32  C         17.3580  -20.6750  -11.1630 C.2     1  UNL1        0.0430
     33  C         18.6890  -20.7280  -11.5840 C.2     1  UNL1        0.0170
@<TRIPOS>BOND
     1     6     5    1
     2     6     7    2
     3     5     4    2
     4    10     3    1
     5     7     8    1
     6     4     3   ar
     7     4     9   ar
     8     3     2   ar
     9     8     9    2
    10     9     1   ar
    11     2    27    1
    12     2     1   ar
    13    33    27    2
    14    33    32    1
    15    27    28    1
    16     1    11    1
    17    32    30    2
    18    28    29    2
    19    30    29    1
    20    30    31    1
    21    11    12    1
    22    12    13    1
    23    15    14    1
    24    13    14   am
    25    13    16    2
    26    14    17    1
    27    19    18   ar
    28    19    20   ar
    29    17    18    1
    30    18    23   ar
    31    20    21   ar
    32    23    21   ar
    33    23    24    1
    34    21    22    1
    35    24    26    1
    36    24    25    1
    37    26    25    1
