@<TRIPOS>MOLECULE
21787_out_ligand_01.pdbqt
 34 37 0 0 0
SMALL
GASTEIGER

@<TRIPOS>ATOM
      1  N         19.6490  -22.5820   -9.7710 N.ar    1  UNL1       -0.3060
      2  C         18.4710  -22.4280  -10.4840 C.ar    1  UNL1        0.1490
      3  N         18.7140  -21.7140  -11.5650 N.ar    1  UNL1       -0.1320
      4  N         20.0340  -21.3640  -11.5600 N.ar    1  UNL1       -0.1220
      5  C         20.5800  -21.8610  -10.4760 C.ar    1  UNL1        0.1920
      6  S         22.2280  -21.6260  -10.0130 S.3     1  UNL1       -0.0830
      7  C         22.9820  -23.1260  -10.7150 C.3     1  UNL1        0.1610
      8  C         23.5660  -22.7850  -12.0690 C.ar    1  UNL1        0.1170
      9  N         24.5450  -23.4720  -12.5640 N.ar    1  UNL1       -0.2340
     10  C         25.0380  -23.1020  -13.8280 C.ar    1  UNL1        0.0740
     11  C         26.1130  -23.8140  -14.3670 C.2     1  UNL1        0.0320
     12  C         24.4870  -22.0540  -14.5730 C.ar    1  UNL1        0.0610
     13  C         26.6240  -23.4830  -15.6260 C.2     1  UNL1        0.0020
     14  C         26.0590  -22.4360  -16.3600 C.2     1  UNL1        0.0010
     15  C         24.9860  -21.7160  -15.8350 C.2     1  UNL1        0.0190
     16  C         23.3530  -21.3230  -13.9800 C.ar    1  UNL1        0.2590
     17  O         22.7500  -20.4420  -14.5860 O.2     1  UNL1       -0.2670
     18  N         22.9980  -21.7140  -12.7150 N.ar    1  UNL1       -0.3100
     19  H         22.1890  -21.2460  -12.3250 H       1  UNL1        0.1700
     20  C         19.8000  -23.3310   -8.5280 C.3     1  UNL1        0.0850
     21  C         20.3660  -22.4790   -7.3890 C.3     1  UNL1        0.0320
     22  C         20.5510  -24.6550   -8.6910 C.3     1  UNL1        0.0320
     23  C         17.1360  -22.9530  -10.0900 C.3     1  UNL1        0.2030
     24  N         16.9540  -22.7350   -8.6710 N.am    1  UNL1       -0.3500
     25  C         16.2060  -23.5700   -7.8800 C.2     1  UNL1        0.2550
     26  O         15.6560  -24.5770   -8.3240 O.2     1  UNL1       -0.2680
     27  H         17.3820  -21.9010   -8.2740 H       1  UNL1        0.1630
     28  C         16.0850  -23.2330   -6.4340 C.2     1  UNL1        0.0700
     29  C         14.9670  -22.4910   -6.0150 C.2     1  UNL1        0.0200
     30  C         14.8000  -22.1570   -4.6670 C.2     1  UNL1        0.0010
     31  C         15.7480  -22.5630   -3.7260 C.2     1  UNL1        0.0030
     32  C         16.8610  -23.3000   -4.1320 C.2     1  UNL1        0.0430
     33  C         17.0240  -23.6300   -5.4780 C.2     1  UNL1        0.1320
     34  F         18.1090  -24.3400   -5.8230 F       1  UNL1       -0.2050
@<TRIPOS>BOND
     1    14    15    2
     2    14    13    1
     3    15    12    1
     4    13    11    2
     5    17    16    2
     6    12    16   ar
     7    12    10   ar
     8    11    10    1
     9    16    18   ar
    10    10     9   ar
    11    18    19    1
    12    18     8   ar
    13     9     8   ar
    14     8     7    1
    15     3     4   ar
    16     3     2   ar
    17     4     5   ar
    18     7     6    1
    19     2    23    1
    20     2     1   ar
    21     5     6    1
    22     5     1   ar
    23    23    24    1
    24     1    20    1
    25    22    20    1
    26    24    27    1
    27    24    25   am
    28    20    21    1
    29    26    25    2
    30    25    28    1
    31    28    29    2
    32    28    33    1
    33    29    30    1
    34    34    33    1
    35    33    32    2
    36    30    31    2
    37    32    31    1
