@<TRIPOS>MOLECULE
22034_out_ligand_01.pdbqt
 37 41 0 0 0
SMALL
GASTEIGER

@<TRIPOS>ATOM
      1  C         21.3770  -23.0420   -9.6640 C.2     1  UNL1        0.0840
      2  C         22.1430  -23.1530  -10.8270 C.2     1  UNL1        0.0550
      3  C         23.3360  -22.4360  -10.9420 C.2     1  UNL1        0.0350
      4  C         23.7470  -21.5980   -9.8960 C.2     1  UNL1        0.0180
      5  C         22.9840  -21.5090   -8.7270 C.2     1  UNL1        0.0100
      6  C         21.8020  -22.2480   -8.5880 C.2     1  UNL1       -0.0280
      7  C         20.9810  -22.1320   -7.3380 C.3     1  UNL1        0.0510
      8  O         20.2300  -23.7910   -9.5480 O.2     1  UNL1       -0.2910
      9  C         19.0270  -23.1340   -9.8190 C.2     1  UNL1        0.1830
     10  N         18.9080  -22.4260  -10.9580 N.2     1  UNL1       -0.2170
     11  C         17.7330  -21.8210  -11.1340 C.2     1  UNL1        0.2360
     12  N         16.6970  -21.8470  -10.2850 N.2     1  UNL1       -0.2410
     13  C         16.8480  -22.5500   -9.1550 C.2     1  UNL1        0.0750
     14  C         15.7970  -22.5980   -8.2490 C.2     1  UNL1        0.0720
     15  C         18.0230  -23.2390   -8.8490 C.2     1  UNL1        0.0490
     16  C         15.8850  -23.3110   -7.0450 C.2     1  UNL1        0.1030
     17  C         17.0660  -24.0060   -6.7380 C.2     1  UNL1        0.1020
     18  C         18.1300  -23.9670   -7.6400 C.2     1  UNL1        0.0570
     19  O         14.8790  -23.3910   -6.1150 O.2     1  UNL1       -0.3530
     20  C         14.5080  -22.1970   -5.4380 C.3     1  UNL1        0.2100
     21  O         17.0800  -24.6810   -5.5450 O.2     1  UNL1       -0.3530
     22  C         17.7300  -24.0660   -4.4410 C.3     1  UNL1        0.2100
     23  C         24.1280  -22.5700  -12.1970 C.2     1  UNL1        0.2560
     24  O         24.9750  -23.4530  -12.2600 O.2     1  UNL1       -0.2670
     25  N         23.8400  -21.6260  -13.1680 N.am    1  UNL1       -0.3230
     26  H         23.2140  -20.8770  -12.9070 H       1  UNL1        0.1690
     27  C         24.3950  -21.5330  -14.4620 C.2     1  UNL1        0.0350
     28  C         24.3740  -22.5670  -15.3960 C.2     1  UNL1        0.0290
     29  C         24.9390  -22.3880  -16.6590 C.2     1  UNL1        0.0030
     30  C         25.5290  -21.1710  -17.0030 C.2     1  UNL1        0.0140
     31  C         25.5600  -20.1120  -16.0860 C.2     1  UNL1        0.0010
     32  C         24.9870  -20.3110  -14.8180 C.2     1  UNL1        0.0430
     33  C         26.1710  -18.8390  -16.4480 C.2     1  UNL1        0.1040
     34  C         26.6330  -18.2590  -17.6120 C.2     1  UNL1        0.1560
     35  N         27.1210  -17.0010  -17.3610 N.2     1  UNL1       -0.2460
     36  C         26.9450  -16.8620  -16.0680 C.2     1  UNL1        0.2580
     37  O         26.3760  -17.9280  -15.4420 O.2     1  UNL1       -0.3020
@<TRIPOS>BOND
     1    34    35    1
     2    34    33    2
     3    35    36    2
     4    30    29    2
     5    30    31    1
     6    29    28    1
     7    33    31    1
     8    33    37    1
     9    31    32    2
    10    36    37    1
    11    28    27    2
    12    32    27    1
    13    27    25    1
    14    25    26    1
    15    25    23   am
    16    24    23    2
    17    23     3    1
    18    11    10    1
    19    11    12    2
    20    10     9    2
    21     3     2    1
    22     3     4    2
    23     2     1    2
    24    12    13    1
    25     4     5    1
    26     9     8    1
    27     9    15    1
    28     1     8    1
    29     1     6    1
    30    13    15    2
    31    13    14    1
    32    15    18    1
    33     5     6    2
    34     6     7    1
    35    14    16    2
    36    18    17    2
    37    16    17    1
    38    16    19    1
    39    17    21    1
    40    19    20    1
    41    21    22    1
