@<TRIPOS>MOLECULE
22208_out_ligand_01.pdbqt
 42 45 0 0 0
SMALL
GASTEIGER

@<TRIPOS>ATOM
      1  C         21.1160  -23.2940   -8.7690 C.2     1  UNL1        0.0220
      2  C         20.9980  -22.2290   -7.8730 C.2     1  UNL1        0.0260
      3  C         19.9720  -22.2240   -6.9280 C.2     1  UNL1        0.0260
      4  C         19.0810  -23.3010   -6.8790 C.2     1  UNL1        0.0740
      5  C         19.1990  -24.3720   -7.7710 C.2     1  UNL1        0.0260
      6  C         20.2300  -24.3720   -8.7130 C.2     1  UNL1        0.0260
      7  N         22.2130  -23.3070   -9.6860 N.pl3   1  UNL1       -0.1810
      8  H         23.0770  -23.6100   -9.2270 H       1  UNL1        0.1460
      9  S         22.5650  -21.7950  -10.3950 S.O2    1  UNL1        0.2450
     10  O         21.4320  -21.3130  -11.1540 O.2     1  UNL1       -0.2060
     11  O         23.1860  -21.0060   -9.3540 O.2     1  UNL1       -0.2060
     12  C         23.8220  -22.2780  -11.5530 C.2     1  UNL1        0.0760
     13  C         24.8890  -23.0700  -11.1180 C.2     1  UNL1        0.0270
     14  C         25.8710  -23.4800  -12.0280 C.2     1  UNL1        0.0390
     15  C         25.7960  -23.1020  -13.3740 C.2     1  UNL1        0.0840
     16  C         24.7230  -22.2880  -13.7880 C.2     1  UNL1        0.0670
     17  C         23.7210  -21.8980  -12.8900 C.2     1  UNL1        0.0440
     18  O         26.7040  -23.4650  -14.3310 O.2     1  UNL1       -0.3550
     19  C         26.7880  -24.8430  -14.6750 C.3     1  UNL1        0.2100
     20  C         24.5620  -21.8680  -15.1980 C.2     1  UNL1        0.2560
     21  O         23.8400  -22.5680  -15.9070 O.2     1  UNL1       -0.2670
     22  N         25.1920  -20.7030  -15.6430 N.am    1  UNL1       -0.3480
     23  C         24.9780  -20.3120  -17.0340 C.3     1  UNL1        0.1260
     24  C         25.6430  -19.6370  -14.7480 C.3     1  UNL1        0.1260
     25  C         26.1950  -19.5990  -17.6140 C.3     1  UNL1        0.0200
     26  C         26.6420  -18.4420  -16.7260 C.3     1  UNL1        0.0030
     27  C         26.8750  -18.9250  -15.2970 C.3     1  UNL1        0.0200
     28  S         17.7680  -23.3180   -5.6800 S.O2    1  UNL1        0.2450
     29  O         17.1880  -24.6450   -5.6720 O.2     1  UNL1       -0.2060
     30  O         18.2770  -22.6900   -4.4820 O.2     1  UNL1       -0.2060
     31  N         16.6350  -22.2940   -6.4430 N.pl3   1  UNL1       -0.1810
     32  H         16.9470  -21.3310   -6.2970 H       1  UNL1        0.1460
     33  C         16.4600  -22.5720   -7.8380 C.2     1  UNL1        0.0230
     34  C         15.6780  -23.6520   -8.2450 C.2     1  UNL1        0.0240
     35  C         15.4730  -23.8840   -9.6050 C.2     1  UNL1        0.0030
     36  C         16.0380  -23.0300  -10.5530 C.2     1  UNL1        0.0160
     37  C         16.8030  -21.9240  -10.1520 C.2     1  UNL1        0.0490
     38  C         17.0090  -21.7040   -8.7810 C.2     1  UNL1        0.0400
     39  C         17.4160  -21.0070  -11.1790 C.3     1  UNL1        0.4170
     40  F         18.7370  -20.7660  -10.9540 F       1  UNL1       -0.1660
     41  F         16.8140  -19.7850  -11.2010 F       1  UNL1       -0.1660
     42  F         17.3360  -21.4840  -12.4520 F       1  UNL1       -0.1660
@<TRIPOS>BOND
     1    25    23    1
     2    25    26    1
     3    23    22    1
     4    26    27    1
     5    21    20    2
     6    22    20   am
     7    22    24    1
     8    27    24    1
     9    20    16    1
    10    19    18    1
    11    18    15    1
    12    16    15    2
    13    16    17    1
    14    15    14    1
    15    17    12    2
    16    42    39    1
    17    14    13    2
    18    12    13    1
    19    12     9    1
    20    41    39    1
    21    39    40    1
    22    39    37    1
    23    10     9    2
    24    36    37    2
    25    36    35    1
    26     9     7    1
    27     9    11    2
    28    37    38    1
    29     7     8    1
    30     7     1    1
    31    35    34    2
    32    38    33    2
    33     1     6    2
    34     1     2    1
    35     6     5    1
    36    34    33    1
    37     2     3    2
    38    33    31    1
    39     5     4    2
    40     3     4    1
    41     4    28    1
    42    31    32    1
    43    31    28    1
    44    28    29    2
    45    28    30    2
