@<TRIPOS>MOLECULE
22645_out_ligand_01.pdbqt
 34 38 0 0 0
SMALL
GASTEIGER

@<TRIPOS>ATOM
      1  C         17.2160  -21.5660  -10.3110 C.3     1  UNL1        0.0500
      2  C         18.6660  -21.7710  -10.6600 C.2     1  UNL1       -0.0390
      3  C         19.1330  -21.2620  -11.8850 C.2     1  UNL1        0.0090
      4  C         20.4690  -21.4040  -12.2630 C.2     1  UNL1        0.0140
      5  C         21.3570  -22.0630  -11.4140 C.2     1  UNL1       -0.0030
      6  C         20.9340  -22.5470  -10.1770 C.2     1  UNL1        0.0390
      7  C         19.5870  -22.4100   -9.8030 C.2     1  UNL1        0.0860
      8  C         22.7770  -22.1970  -11.8200 C.ar    1  UNL1        0.0990
      9  N         23.0900  -21.7090  -12.9920 N.ar    1  UNL1       -0.1630
     10  N         24.4090  -21.8040  -13.3310 N.ar    1  UNL1       -0.1970
     11  C         25.0180  -21.3660  -14.4810 C.ar    1  UNL1        0.1480
     12  C         25.4160  -22.3520  -12.5760 C.ar    1  UNL1        0.1850
     13  C         24.2910  -20.6850  -15.5710 C.3     1  UNL1        0.0950
     14  N         26.3080  -21.6390  -14.4230 N.ar    1  UNL1       -0.1330
     15  N         26.5590  -22.2630  -13.2190 N.ar    1  UNL1       -0.1270
     16  C         25.0940  -22.9170  -11.2890 C.ar    1  UNL1        0.0260
     17  C         26.0580  -23.5150  -10.4730 C.2     1  UNL1        0.0160
     18  C         23.7500  -22.8680  -10.8840 C.ar    1  UNL1        0.0090
     19  C         25.6800  -24.0770   -9.2540 C.2     1  UNL1        0.0010
     20  C         24.3420  -24.0530   -8.8560 C.2     1  UNL1        0.0010
     21  C         23.3750  -23.4560   -9.6700 C.2     1  UNL1        0.0150
     22  S         19.1110  -23.0660   -8.2130 S.O2    1  UNL1        0.2600
     23  O         19.3090  -22.0350   -7.2210 O.2     1  UNL1       -0.2000
     24  O         19.6980  -24.3790   -8.0620 O.2     1  UNL1       -0.2000
     25  N         17.4620  -23.2530   -8.4010 N.3     1  UNL1       -0.3070
     26  H         16.9760  -22.4150   -8.7120 H       1  UNL1        0.1730
     27  C         16.7310  -24.2140   -7.5740 C.3     1  UNL1        0.1220
     28  C         15.5260  -24.7100   -8.3790 C.3     1  UNL1        0.0380
     29  C         16.3690  -23.5890   -6.2400 C.2     1  UNL1       -0.0350
     30  C         15.2100  -22.7980   -6.1520 C.2     1  UNL1        0.0090
     31  C         14.8190  -22.2300   -4.9390 C.2     1  UNL1        0.0010
     32  C         15.5730  -22.4510   -3.7910 C.2     1  UNL1        0.0000
     33  C         16.7150  -23.2470   -3.8550 C.2     1  UNL1        0.0010
     34  C         17.1070  -23.8180   -5.0690 C.2     1  UNL1        0.0090
@<TRIPOS>BOND
     1    13    11    1
     2    11    14   ar
     3    11    10   ar
     4    14    15   ar
     5    10     9   ar
     6    10    12   ar
     7    15    12   ar
     8     9     8   ar
     9    12    16   ar
    10     4     3    1
    11     4     5    2
    12     3     2    2
    13     8     5    1
    14     8    18   ar
    15     5     6    1
    16    16    18   ar
    17    16    17    1
    18    18    21    1
    19     2     1    1
    20     2     7    1
    21    17    19    2
    22     6     7    2
    23     7    22    1
    24    21    20    2
    25    19    20    1
    26    26    25    1
    27    25    22    1
    28    25    27    1
    29    28    27    1
    30    22    24    2
    31    22    23    2
    32    27    29    1
    33    29    30    2
    34    29    34    1
    35    30    31    1
    36    34    33    2
    37    31    32    2
    38    33    32    1
