@<TRIPOS>MOLECULE
22803_out_ligand_01.pdbqt
 36 39 0 0 0
SMALL
GASTEIGER

@<TRIPOS>ATOM
      1  N         23.7510  -22.3730  -13.2030 N.ar    1  UNL1       -0.1680
      2  C         23.0410  -21.3210  -13.7650 C.ar    1  UNL1        0.7250
      3  N         23.5370  -21.0110  -14.9510 N.ar    1  UNL1       -0.0420
      4  C         24.5480  -21.8870  -15.1630 C.ar    1  UNL1        0.1860
      5  C         24.7040  -22.7440  -14.1150 C.ar    1  UNL1        0.1660
      6  C         25.6880  -23.7660  -14.1060 C.ar    1  UNL1        0.2800
      7  O         25.8220  -24.5910  -13.2090 O.2     1  UNL1       -0.2650
      8  N         26.4740  -23.7540  -15.2350 N.ar    1  UNL1       -0.2730
      9  C         26.3510  -22.9180  -16.3310 C.ar    1  UNL1        0.3300
     10  O         27.1210  -23.0660  -17.2800 O.2     1  UNL1       -0.2460
     11  N         25.3490  -21.9540  -16.2820 N.ar    1  UNL1       -0.2860
     12  C         25.1500  -21.0350  -17.3870 C.3     1  UNL1        0.1630
     13  H         27.1880  -24.4620  -15.3020 H       1  UNL1        0.1730
     14  C         23.5730  -22.9430  -11.8740 C.3     1  UNL1        0.1820
     15  C         24.2850  -22.1190  -10.7880 C.3     1  UNL1        0.1610
     16  C         23.2700  -21.4450   -9.8490 C.3     1  UNL1        0.2090
     17  O         23.1610  -22.2070   -8.6430 O.2     1  UNL1       -0.3490
     18  C         21.9540  -22.7970   -8.3870 C.2     1  UNL1        0.0690
     19  C         21.8030  -24.0730   -8.9360 C.2     1  UNL1        0.0370
     20  C         20.6260  -24.7950   -8.7380 C.2     1  UNL1        0.0030
     21  C         19.5870  -24.2400   -7.9940 C.2     1  UNL1        0.0070
     22  C         19.7120  -22.9540   -7.4570 C.2     1  UNL1       -0.0590
     23  C         18.6010  -22.3680   -6.6350 C.3     1  UNL1        0.0480
     24  C         20.9070  -22.2420   -7.6490 C.2     1  UNL1        0.0430
     25  O         25.1300  -21.1000  -11.3360 O.3     1  UNL1       -0.3920
     26  H         26.0200  -21.4610  -11.5360 H       1  UNL1        0.2100
     27  N         21.9940  -20.7370  -13.1140 N.pl3   1  UNL1       -0.1070
     28  H         22.1810  -19.8810  -12.5970 H       1  UNL1        0.2080
     29  N         20.9280  -21.4150  -12.5820 N.2     1  UNL1       -0.1720
     30  C         20.0340  -20.6910  -11.9840 C.2     1  UNL1        0.1500
     31  C         18.8160  -21.2800  -11.3950 C.2     1  UNL1       -0.0170
     32  C         17.6560  -20.5200  -11.2220 C.2     1  UNL1        0.0130
     33  C         16.5220  -21.1050  -10.6550 C.2     1  UNL1        0.0010
     34  C         16.5470  -22.4420  -10.2620 C.2     1  UNL1        0.0000
     35  C         17.7050  -23.2030  -10.4390 C.2     1  UNL1        0.0010
     36  C         18.8420  -22.6230  -11.0050 C.2     1  UNL1        0.0130
@<TRIPOS>BOND
     1    12    11    1
     2    10     9    2
     3     9    11   ar
     4     9     8   ar
     5    11     4   ar
     6    13     8    1
     7     8     6   ar
     8     4     3   ar
     9     4     5   ar
    10     3     2   ar
    11     5     6   ar
    12     5     1   ar
    13     6     7    2
    14     2     1   ar
    15     2    27    1
    16     1    14    1
    17    27    28    1
    18    27    29    1
    19    29    30    2
    20    30    31    1
    21    14    15    1
    22    26    25    1
    23    31    32    2
    24    31    36    1
    25    25    15    1
    26    32    33    1
    27    36    35    2
    28    15    16    1
    29    33    34    2
    30    35    34    1
    31    16    17    1
    32    19    20    1
    33    19    18    2
    34    20    21    2
    35    17    18    1
    36    18    24    1
    37    21    22    1
    38    24    22    2
    39    22    23    1
