@<TRIPOS>MOLECULE
22813_out_ligand_01.pdbqt
 34 37 0 0 0
SMALL
GASTEIGER

@<TRIPOS>ATOM
      1  C         24.1460  -21.7950  -10.4210 C.ar    1  UNL1        0.7260
      2  N         25.1830  -20.9930  -10.5990 N.ar    1  UNL1       -0.0420
      3  C         25.1560  -20.6490  -11.9080 C.ar    1  UNL1        0.1860
      4  C         24.1180  -21.2360  -12.5680 C.ar    1  UNL1        0.1670
      5  C         23.8700  -21.0090  -13.9490 C.ar    1  UNL1        0.2800
      6  O         22.9290  -21.4690  -14.5860 O.2     1  UNL1       -0.2650
      7  N         24.8050  -20.1790  -14.5240 N.ar    1  UNL1       -0.2730
      8  C         25.8650  -19.5490  -13.8980 C.ar    1  UNL1        0.3300
      9  O         26.5870  -18.8020  -14.5600 O.2     1  UNL1       -0.2460
     10  N         26.0400  -19.8030  -12.5430 N.ar    1  UNL1       -0.2860
     11  C         27.1210  -19.1790  -11.8040 C.3     1  UNL1        0.1630
     12  N         23.4880  -22.0090  -11.6250 N.ar    1  UNL1       -0.1660
     13  H         24.6850  -19.9670  -15.5020 H       1  UNL1        0.1730
     14  N         23.7360  -22.3820   -9.2590 N.pl3   1  UNL1       -0.1070
     15  H         23.9490  -23.3680   -9.1400 H       1  UNL1        0.2080
     16  N         22.6020  -22.0390   -8.5660 N.2     1  UNL1       -0.1720
     17  C         21.7320  -22.9850   -8.3880 C.2     1  UNL1        0.1500
     18  C         20.4840  -22.7650   -7.6320 C.2     1  UNL1       -0.0170
     19  C         19.4340  -23.6790   -7.6910 C.2     1  UNL1        0.0150
     20  C         18.2680  -23.4410   -6.9590 C.2     1  UNL1        0.0370
     21  C         18.1390  -22.2930   -6.1710 C.2     1  UNL1        0.0680
     22  C         19.1970  -21.3830   -6.1130 C.2     1  UNL1        0.0370
     23  C         20.3690  -21.6170   -6.8440 C.2     1  UNL1        0.0150
     24  O         16.9480  -22.1930   -5.5100 O.2     1  UNL1       -0.3520
     25  C         15.7690  -22.7050   -6.1280 C.3     1  UNL1        0.1710
     26  C         14.7710  -23.1720   -5.0830 C.3     1  UNL1        0.0340
     27  C         22.3550  -22.8890  -11.8670 C.3     1  UNL1        0.1860
     28  C         21.0370  -22.1770  -11.6680 C.2     1  UNL1       -0.0390
     29  C         19.9200  -22.8790  -11.1850 C.2     1  UNL1        0.0120
     30  C         18.6990  -22.2280  -10.9960 C.2     1  UNL1        0.0430
     31  C         18.5890  -20.8770  -11.2910 C.2     1  UNL1        0.1160
     32  F         17.4180  -20.2540  -11.1090 F       1  UNL1       -0.2060
     33  C         19.6780  -20.1610  -11.7720 C.2     1  UNL1        0.0430
     34  C         20.9010  -20.8090  -11.9630 C.2     1  UNL1        0.0120
@<TRIPOS>BOND
     1    13     7    1
     2     6     5    2
     3     9     8    2
     4     7     5   ar
     5     7     8   ar
     6     5     4   ar
     7     8    10   ar
     8     4     3   ar
     9     4    12   ar
    10    10     3   ar
    11    10    11    1
    12    34    33    1
    13    34    28    2
    14     3     2   ar
    15    27    28    1
    16    27    12    1
    17    33    31    2
    18    28    29    1
    19    12     1   ar
    20    31    32    1
    21    31    30    1
    22    29    30    2
    23     2     1   ar
    24     1    14    1
    25    14    15    1
    26    14    16    1
    27    16    17    2
    28    17    18    1
    29    19    18    2
    30    19    20    1
    31    18    23    1
    32    20    21    2
    33    23    22    2
    34    21    22    1
    35    21    24    1
    36    25    24    1
    37    25    26    1
