@<TRIPOS>MOLECULE
22810_out_ligand_01.pdbqt
 36 40 0 0 0
SMALL
GASTEIGER

@<TRIPOS>ATOM
      1  C         25.7320  -20.5230  -16.0030 C.ar    1  UNL1        0.0990
      2  N         24.5960  -20.6170  -15.3790 N.ar    1  UNL1       -0.1610
      3  N         24.7710  -21.4190  -14.2620 N.ar    1  UNL1       -0.1890
      4  C         23.7430  -21.6980  -13.3810 C.ar    1  UNL1        0.1620
      5  N         22.5480  -21.2220  -13.5800 N.pl3   1  UNL1       -0.2810
      6  C         24.1100  -22.5810  -12.2230 C.ar    1  UNL1        0.0820
      7  C         23.2920  -22.9530  -11.2170 C.3     1  UNL1        0.0340
      8  C         25.5230  -23.1340  -12.1730 C.ar    1  UNL1        0.2830
      9  O         25.8570  -23.9210  -11.2940 O.2     1  UNL1       -0.2650
     10  N         26.4260  -22.7270  -13.1360 N.ar    1  UNL1       -0.1820
     11  C         26.0220  -21.9450  -14.0700 C.ar    1  UNL1        0.2010
     12  S         27.1000  -21.3990  -15.3330 S.2     1  UNL1       -0.0330
     13  H         22.5950  -20.6650  -14.4460 H       1  UNL1        0.1880
     14  C         21.9390  -22.5760  -10.9760 C.2     1  UNL1       -0.0110
     15  C         21.1710  -21.6640  -11.7190 C.2     1  UNL1        0.0380
     16  C         19.9380  -21.5490  -11.1060 C.2     1  UNL1        0.0140
     17  C         18.8330  -20.6260  -11.4890 C.3     1  UNL1        0.0680
     18  N         19.9230  -22.3970   -9.9990 N.pl3   1  UNL1       -0.3190
     19  C         21.1730  -23.0180   -9.9100 C.2     1  UNL1        0.0230
     20  C         21.5230  -24.0550   -8.8910 C.3     1  UNL1        0.0690
     21  C         18.8250  -22.5850   -9.1080 C.2     1  UNL1        0.0400
     22  C         17.6210  -23.1130   -9.5850 C.2     1  UNL1        0.0310
     23  C         16.5480  -23.3010   -8.7110 C.2     1  UNL1        0.0140
     24  C         16.6580  -22.9660   -7.3520 C.2     1  UNL1       -0.0260
     25  C         15.5860  -23.1510   -6.4640 C.2     1  UNL1        0.0120
     26  C         17.8740  -22.4310   -6.8680 C.2     1  UNL1       -0.0240
     27  C         15.7110  -22.8150   -5.1140 C.2     1  UNL1        0.0010
     28  C         16.9080  -22.2880   -4.6370 C.2     1  UNL1        0.0010
     29  C         17.9820  -22.0960   -5.5080 C.2     1  UNL1        0.0120
     30  C         18.9470  -22.2450   -7.7550 C.2     1  UNL1        0.0420
     31  C         25.9350  -19.7640  -17.2840 C.3     1  UNL1        0.0690
     32  C         26.9840  -18.6610  -17.1340 C.3     1  UNL1        0.0070
     33  C         26.7110  -17.7200  -15.9580 C.3     1  UNL1        0.0000
     34  C         26.7380  -16.2240  -16.2870 C.3     1  UNL1       -0.0000
     35  C         26.5560  -15.8680  -17.7650 C.3     1  UNL1       -0.0050
     36  C         25.1160  -15.5540  -18.1400 C.3     1  UNL1        0.0050
@<TRIPOS>BOND
     1    36    35    1
     2    35    34    1
     3    31    32    1
     4    31     1    1
     5    32    33    1
     6    34    33    1
     7     1     2   ar
     8     1    12   ar
     9     2     3   ar
    10    12    11   ar
    11    13     5    1
    12     3    11   ar
    13     3     4   ar
    14    11    10   ar
    15     5     4    1
    16     4     6   ar
    17    10     8   ar
    18     6     8   ar
    19     6     7    1
    20     8     9    2
    21    15    16    2
    22    15    14    1
    23    17    16    1
    24     7    14    1
    25    16    18    1
    26    14    19    2
    27    18    19    1
    28    18    21    1
    29    19    20    1
    30    22    21    2
    31    22    23    1
    32    21    30    1
    33    23    24    2
    34    30    26    2
    35    24    26    1
    36    24    25    1
    37    26    29    1
    38    25    27    2
    39    29    28    2
    40    27    28    1
