@<TRIPOS>MOLECULE
22857_out_ligand_01.pdbqt
 42 45 0 0 0
SMALL
GASTEIGER

@<TRIPOS>ATOM
      1  C         22.1890  -22.6330  -10.4070 C.ar    1  UNL1        0.1000
      2  N         22.3980  -23.6480   -9.5410 N.ar    1  UNL1       -0.1470
      3  N         21.3380  -24.2560   -8.9310 N.ar    1  UNL1       -0.1310
      4  C         20.0720  -23.8650   -9.1800 C.ar    1  UNL1        0.1610
      5  C         19.8050  -22.8050  -10.0800 C.ar    1  UNL1        0.0240
      6  C         18.4960  -22.3350  -10.3620 C.2     1  UNL1        0.0160
      7  C         18.2650  -21.2950  -11.2630 C.2     1  UNL1        0.0010
      8  C         19.3340  -20.6940  -11.9050 C.2     1  UNL1        0.0010
      9  C         20.6330  -21.1260  -11.6390 C.2     1  UNL1        0.0150
     10  C         20.8970  -22.1740  -10.7190 C.ar    1  UNL1        0.0090
     11  C         23.4270  -22.0840  -10.9750 C.2     1  UNL1       -0.0030
     12  C         24.5980  -21.9850  -10.2160 C.2     1  UNL1        0.0140
     13  C         25.7620  -21.4350  -10.7620 C.2     1  UNL1        0.0090
     14  C         25.7980  -20.9740  -12.0890 C.2     1  UNL1       -0.0390
     15  C         27.0720  -20.3520  -12.5870 C.3     1  UNL1        0.0500
     16  C         24.6420  -21.1300  -12.8720 C.2     1  UNL1        0.0860
     17  C         23.4670  -21.6630  -12.3110 C.2     1  UNL1        0.0390
     18  S         24.5530  -20.6750  -14.5960 S.O2    1  UNL1        0.2600
     19  O         25.2620  -19.4380  -14.8280 O.2     1  UNL1       -0.2000
     20  O         23.1650  -20.8300  -14.9820 O.2     1  UNL1       -0.2000
     21  N         25.3780  -21.9100  -15.3760 N.3     1  UNL1       -0.3040
     22  H         25.5030  -22.7320  -14.7820 H       1  UNL1        0.1730
     23  C         25.4050  -22.1220  -16.8490 C.3     1  UNL1        0.0540
     24  C         26.8530  -22.5440  -17.1940 C.3     1  UNL1        0.0410
     25  C         24.4760  -23.2790  -17.2460 C.3     1  UNL1        0.0410
     26  C         25.0510  -20.8300  -17.6250 C.3     1  UNL1        0.1940
     27  O         26.1600  -19.9360  -17.6920 O.3     1  UNL1       -0.3980
     28  H         26.9660  -20.4740  -17.5970 H       1  UNL1        0.2090
     29  N         18.9840  -24.5350   -8.5560 N.pl3   1  UNL1       -0.3390
     30  H         19.2720  -25.4870   -8.3610 H       1  UNL1        0.1670
     31  C         18.1190  -24.0430   -7.5510 C.2     1  UNL1        0.0330
     32  C         18.6660  -23.2720   -6.5100 C.2     1  UNL1        0.0310
     33  C         17.8760  -22.8330   -5.4420 C.2     1  UNL1        0.0270
     34  C         16.5310  -23.1970   -5.3910 C.2     1  UNL1        0.0740
     35  C         15.9710  -23.9820   -6.3990 C.2     1  UNL1        0.0270
     36  C         16.7720  -24.4170   -7.4590 C.2     1  UNL1        0.0310
     37  S         15.5130  -22.6680   -4.0410 S.O2    1  UNL1        0.2390
     38  O         14.5260  -21.7400   -4.5440 O.2     1  UNL1       -0.2060
     39  O         15.1670  -23.8240   -3.2490 O.2     1  UNL1       -0.2060
     40  N         16.5950  -21.7310   -3.1530 N.3     1  UNL1       -0.2250
     41  H         17.5550  -21.7800   -3.4980 H       1  UNL1        0.1360
     42  H         16.2490  -20.7720   -3.1130 H       1  UNL1        0.1360
@<TRIPOS>BOND
     1    27    26    1
     2    27    28    1
     3    26    23    1
     4    25    23    1
     5    24    23    1
     6    23    21    1
     7    21    22    1
     8    21    18    1
     9    20    18    2
    10    19    18    2
    11    18    16    1
    12    16    17    1
    13    16    14    2
    14    15    14    1
    15    17    11    2
    16    14    13    1
    17     8     9    2
    18     8     7    1
    19     9    10    1
    20     7     6    2
    21    11     1    1
    22    11    12    1
    23    13    12    2
    24    10     1   ar
    25    10     5   ar
    26     1     2   ar
    27     6     5    1
    28     5     4   ar
    29     2     3   ar
    30     4     3   ar
    31     4    29    1
    32    29    30    1
    33    29    31    1
    34    31    36    2
    35    31    32    1
    36    36    35    1
    37    32    33    2
    38    35    34    2
    39    33    34    1
    40    34    37    1
    41    38    37    2
    42    37    39    2
    43    37    40    1
    44    41    40    1
    45    40    42    1
