@<TRIPOS>MOLECULE
22940_out_ligand_01.pdbqt
 40 43 0 0 0
SMALL
GASTEIGER

@<TRIPOS>ATOM
      1  C         20.3420  -23.7660   -9.1450 C.ar    1  UNL1        0.1610
      2  N         21.6300  -24.1210   -8.9500 N.ar    1  UNL1       -0.1310
      3  N         22.6410  -23.5310   -9.6570 N.ar    1  UNL1       -0.1470
      4  C         22.3620  -22.5740  -10.5680 C.ar    1  UNL1        0.1000
      5  C         21.0450  -22.1560  -10.8270 C.ar    1  UNL1        0.0090
      6  C         20.7110  -21.1720  -11.7930 C.2     1  UNL1        0.0150
      7  C         19.3920  -20.7720  -12.0050 C.2     1  UNL1        0.0010
      8  C         18.3740  -21.3410  -11.2560 C.2     1  UNL1        0.0010
      9  C         18.6750  -22.3190  -10.3080 C.2     1  UNL1        0.0160
     10  C         20.0050  -22.7600  -10.0810 C.ar    1  UNL1        0.0240
     11  N         19.3060  -24.4140   -8.4170 N.pl3   1  UNL1       -0.3390
     12  H         19.6190  -25.3520   -8.1770 H       1  UNL1        0.1670
     13  C         18.4750  -23.8770   -7.4090 C.2     1  UNL1        0.0340
     14  C         17.2590  -24.4530   -7.0380 C.2     1  UNL1        0.0320
     15  C         16.4950  -23.9240   -5.9900 C.2     1  UNL1        0.0400
     16  C         16.9380  -22.8150   -5.2620 C.2     1  UNL1        0.0840
     17  C         18.1870  -22.2530   -5.5850 C.2     1  UNL1        0.0670
     18  C         18.9400  -22.7980   -6.6470 C.2     1  UNL1        0.0490
     19  O         16.2220  -22.2580   -4.2310 O.2     1  UNL1       -0.3550
     20  C         14.8010  -22.2700   -4.3320 C.3     1  UNL1        0.2100
     21  C         18.8120  -21.0890   -4.8810 C.2     1  UNL1        0.2520
     22  N         18.6010  -20.9470   -3.5410 N.am    1  UNL1       -0.3660
     23  H         18.9950  -20.1460   -3.0700 H       1  UNL1        0.1590
     24  H         17.9980  -21.5850   -3.0330 H       1  UNL1        0.1590
     25  O         19.5060  -20.2730   -5.4780 O.2     1  UNL1       -0.2680
     26  C         23.5540  -22.0290  -11.2300 C.2     1  UNL1       -0.0030
     27  C         24.6060  -21.4720  -10.4900 C.2     1  UNL1        0.0140
     28  C         25.7440  -20.9680  -11.1270 C.2     1  UNL1        0.0090
     29  C         25.8750  -21.0170  -12.5250 C.2     1  UNL1       -0.0390
     30  C         27.1210  -20.4470  -13.1430 C.3     1  UNL1        0.0500
     31  C         24.8220  -21.5770  -13.2710 C.2     1  UNL1        0.0860
     32  C         23.6770  -22.0760  -12.6270 C.2     1  UNL1        0.0390
     33  S         24.8690  -21.6780  -15.0530 S.O2    1  UNL1        0.2590
     34  O         26.0320  -22.4410  -15.4490 O.2     1  UNL1       -0.2010
     35  O         23.5490  -22.0340  -15.5240 O.2     1  UNL1       -0.2010
     36  N         25.1240  -20.0860  -15.4880 N.3     1  UNL1       -0.3110
     37  H         24.4360  -19.4200  -15.1450 H       1  UNL1        0.1720
     38  C         25.9870  -19.7450  -16.6210 C.3     1  UNL1        0.0850
     39  C         26.4430  -18.2990  -16.4570 C.3     1  UNL1        0.0320
     40  C         25.2060  -19.9300  -17.9170 C.3     1  UNL1        0.0320
@<TRIPOS>BOND
     1    40    38    1
     2    38    39    1
     3    38    36    1
     4    35    33    2
     5    36    37    1
     6    36    33    1
     7    34    33    2
     8    33    31    1
     9    31    32    1
    10    31    29    2
    11    30    29    1
    12    32    26    2
    13    29    28    1
    14     7     6    2
    15     7     8    1
    16     6     5    1
    17     8     9    2
    18    26     4    1
    19    26    27    1
    20    28    27    2
    21     5     4   ar
    22     5    10   ar
    23     4     3   ar
    24     9    10    1
    25    10     1   ar
    26     3     2   ar
    27     1     2   ar
    28     1    11    1
    29    11    12    1
    30    11    13    1
    31    13    14    2
    32    13    18    1
    33    14    15    1
    34    18    17    2
    35    15    16    2
    36    17    16    1
    37    17    21    1
    38    25    21    2
    39    16    19    1
    40    21    22   am
    41    20    19    1
    42    22    23    1
    43    22    24    1
