@<TRIPOS>MOLECULE
22986_out_ligand_01.pdbqt
 32 36 0 0 0
SMALL
GASTEIGER

@<TRIPOS>ATOM
      1  N         21.7430  -23.1070   -9.9790 N.pl3   1  UNL1       -0.3530
      2  C         21.0730  -23.8320   -9.0250 C.2     1  UNL1        0.1030
      3  C         19.7330  -23.5400   -9.1330 C.2     1  UNL1       -0.0070
      4  C         19.5890  -22.5450  -10.1460 C.2     1  UNL1        0.0020
      5  C         18.4890  -21.8360  -10.6780 C.2     1  UNL1        0.0140
      6  C         18.6930  -20.9040  -11.7010 C.2     1  UNL1        0.0010
      7  C         19.9700  -20.6710  -12.1990 C.2     1  UNL1        0.0020
      8  C         21.0750  -21.3610  -11.6940 C.2     1  UNL1        0.0300
      9  C         20.8640  -22.2950  -10.6670 C.2     1  UNL1        0.0450
     10  C         18.6940  -24.0620   -8.3060 C.3     1  UNL1        0.0340
     11  C         18.2640  -23.6710   -7.0890 C.ar    1  UNL1        0.0820
     12  C         18.8350  -22.5690   -6.2390 C.ar    1  UNL1        0.1620
     13  C         17.0900  -24.4570   -6.5260 C.ar    1  UNL1        0.2830
     14  N         19.8910  -21.8770   -6.5540 N.pl3   1  UNL1       -0.2810
     15  N         18.1690  -22.3270   -5.0520 N.ar    1  UNL1       -0.1900
     16  H         20.0440  -21.2140   -5.7810 H       1  UNL1        0.1880
     17  N         18.5560  -21.3290   -4.1690 N.2     1  UNL1       -0.1690
     18  C         17.0840  -23.0820   -4.6910 C.ar    1  UNL1        0.2000
     19  C         17.7490  -21.3420   -3.1530 C.2     1  UNL1        0.1920
     20  S         16.4600  -22.5310   -3.1550 S.3     1  UNL1       -0.0410
     21  N         16.5450  -24.0610   -5.3200 N.ar    1  UNL1       -0.1820
     22  O         16.6320  -25.4200   -7.1300 O.2     1  UNL1       -0.2650
     23  C         23.1720  -23.2290  -10.2300 C.3     1  UNL1        0.1550
     24  C         23.9160  -21.9110  -10.0360 C.3     1  UNL1        0.1960
     25  O         25.1910  -21.9940  -10.6770 O.2     1  UNL1       -0.3500
     26  C         25.3850  -21.2190  -11.7850 C.2     1  UNL1        0.0680
     27  C         26.3310  -20.2050  -11.6300 C.2     1  UNL1        0.0370
     28  C         26.6250  -19.3350  -12.6820 C.2     1  UNL1        0.0090
     29  C         25.9630  -19.4610  -13.9070 C.2     1  UNL1       -0.0620
     30  C         26.3000  -18.5520  -15.0510 C.3     1  UNL1        0.0480
     31  C         25.0220  -20.4850  -14.0650 C.2     1  UNL1        0.0090
     32  C         24.7300  -21.3560  -13.0090 C.2     1  UNL1        0.0370
@<TRIPOS>BOND
     1    30    29    1
     2    31    29    2
     3    31    32    1
     4    29    28    1
     5    32    26    2
     6    28    27    2
     7     7     6    2
     8     7     8    1
     9    26    27    1
    10    26    25    1
    11     6     5    1
    12     8     9    2
    13     5     4    2
    14    25    24    1
    15     9     4    1
    16     9     1    1
    17    23    24    1
    18    23     1    1
    19     4     3    1
    20     1     2    1
    21     3     2    2
    22     3    10    1
    23    10    11    1
    24    22    13    2
    25    11    13   ar
    26    11    12   ar
    27    14    12    1
    28    14    16    1
    29    13    21   ar
    30    12    15   ar
    31    21    18   ar
    32    15    18   ar
    33    15    17    1
    34    18    20    1
    35    17    19    2
    36    20    19    1
