@<TRIPOS>MOLECULE
23012_out_ligand_01.pdbqt
 31 34 0 0 0
SMALL
GASTEIGER

@<TRIPOS>ATOM
      1  C         18.9920  -22.0860   -7.5520 C.2     1  UNL1        0.1020
      2  C         20.3470  -22.2620   -7.8460 C.2     1  UNL1        0.0510
      3  C         20.7430  -23.0740   -8.9230 C.2     1  UNL1       -0.0320
      4  C         19.7790  -23.7170   -9.7090 C.2     1  UNL1        0.0140
      5  C         18.4250  -23.5530   -9.4250 C.2     1  UNL1        0.0410
      6  C         18.0490  -22.7570   -8.3440 C.2     1  UNL1        0.1120
      7  C         22.1640  -23.2830   -9.2140 C.3     1  UNL1        0.0320
      8  C         22.8550  -22.8820  -10.3010 C.ar    1  UNL1        0.0820
      9  C         22.2870  -22.1220  -11.4660 C.ar    1  UNL1        0.1620
     10  C         24.3260  -23.2550  -10.3440 C.ar    1  UNL1        0.2830
     11  N         21.0500  -21.7280  -11.5270 N.pl3   1  UNL1       -0.2810
     12  N         23.1770  -21.8570  -12.4900 N.ar    1  UNL1       -0.1900
     13  H         20.9400  -21.2410  -12.4280 H       1  UNL1        0.1880
     14  N         22.8090  -21.1710  -13.6390 N.2     1  UNL1       -0.1690
     15  C         24.4820  -22.2680  -12.4080 C.ar    1  UNL1        0.2000
     16  C         23.8460  -21.0770  -14.4120 C.2     1  UNL1        0.1920
     17  S         25.3480  -21.7890  -13.8490 S.3     1  UNL1       -0.0410
     18  N         25.0630  -22.9060  -11.4580 N.ar    1  UNL1       -0.1820
     19  O         24.8440  -23.8540   -9.4070 O.2     1  UNL1       -0.2650
     20  O         18.4890  -21.3040   -6.5450 O.2     1  UNL1       -0.3530
     21  C         19.3990  -20.8920   -5.5360 C.3     1  UNL1        0.2100
     22  O         16.6820  -22.5860   -8.1030 O.3     1  UNL1       -0.2720
     23  C         16.1240  -23.6670   -7.4560 C.2     1  UNL1        0.3010
     24  O         15.7660  -24.7340   -7.9370 O.2     1  UNL1       -0.2590
     25  C         16.0530  -23.3940   -6.0060 C.2     1  UNL1        0.0780
     26  C         15.0140  -22.5770   -5.5350 C.2     1  UNL1        0.0210
     27  C         14.9110  -22.2890   -4.1720 C.2     1  UNL1        0.0010
     28  C         15.8470  -22.8070   -3.2760 C.2     1  UNL1        0.0030
     29  C         16.8890  -23.6080   -3.7440 C.2     1  UNL1        0.0430
     30  C         16.9910  -23.8950   -5.1050 C.2     1  UNL1        0.1320
     31  F         18.0300  -24.6340   -5.5160 F       1  UNL1       -0.2050
@<TRIPOS>BOND
     1    16    17    1
     2    16    14    2
     3    17    15    1
     4    14    12    1
     5    12    15   ar
     6    12     9   ar
     7    13    11    1
     8    15    18   ar
     9    11     9    1
    10     9     8   ar
    11    18    10   ar
    12    10     8   ar
    13    10    19    2
    14     8     7    1
    15     4     5    2
    16     4     3    1
    17     5     6    1
    18     7     3    1
    19     3     2    2
    20     6    22    1
    21     6     1    2
    22    22    23    1
    23    24    23    2
    24     2     1    1
    25     1    20    1
    26    23    25    1
    27    20    21    1
    28    25    26    2
    29    25    30    1
    30    26    27    1
    31    31    30    1
    32    30    29    2
    33    27    28    2
    34    29    28    1
