@<TRIPOS>MOLECULE
23068_out_ligand_01.pdbqt
 31 34 0 0 0
SMALL
GASTEIGER

@<TRIPOS>ATOM
      1  N         23.6020  -21.9920  -11.5280 N.ar    1  UNL1       -0.1660
      2  C         24.2010  -21.6860  -10.3130 C.ar    1  UNL1        0.7260
      3  N         25.2060  -20.8440  -10.4920 N.ar    1  UNL1       -0.0420
      4  C         25.2170  -20.5710  -11.8190 C.ar    1  UNL1        0.1860
      5  C         24.2340  -21.2390  -12.4860 C.ar    1  UNL1        0.1670
      6  C         24.0320  -21.0930  -13.8860 C.ar    1  UNL1        0.2800
      7  O         23.1330  -21.6160  -14.5340 O.2     1  UNL1       -0.2650
      8  N         24.9580  -20.2560  -14.4680 N.ar    1  UNL1       -0.2730
      9  C         25.9610  -19.5450  -13.8360 C.ar    1  UNL1        0.3300
     10  O         26.6770  -18.8030  -14.5080 O.2     1  UNL1       -0.2460
     11  N         26.0900  -19.7200  -12.4620 N.ar    1  UNL1       -0.2860
     12  C         27.1130  -19.0110  -11.7180 C.3     1  UNL1        0.1630
     13  H         24.8670  -20.1010  -15.4600 H       1  UNL1        0.1730
     14  N         23.7720  -22.2310   -9.1370 N.pl3   1  UNL1       -0.1070
     15  H         23.8700  -23.2380   -9.0310 H       1  UNL1        0.2080
     16  N         22.7270  -21.7550   -8.3880 N.2     1  UNL1       -0.1720
     17  C         21.7800  -22.6030   -8.1240 C.2     1  UNL1        0.1500
     18  C         20.6110  -22.2370   -7.3000 C.2     1  UNL1       -0.0170
     19  C         19.4600  -23.0260   -7.3830 C.2     1  UNL1        0.0130
     20  C         18.3410  -22.6990   -6.6150 C.2     1  UNL1        0.0010
     21  C         18.3740  -21.5900   -5.7680 C.2     1  UNL1        0.0000
     22  C         19.5250  -20.8060   -5.6860 C.2     1  UNL1        0.0010
     23  C         20.6460  -21.1280   -6.4510 C.2     1  UNL1        0.0130
     24  C         22.5180  -22.9320  -11.7680 C.3     1  UNL1        0.1860
     25  C         21.1660  -22.2900  -11.5820 C.2     1  UNL1       -0.0390
     26  C         20.1320  -22.9890  -10.9420 C.2     1  UNL1        0.0090
     27  C         18.8760  -22.4020  -10.7650 C.2     1  UNL1        0.0070
     28  C         18.6230  -21.1110  -11.2340 C.2     1  UNL1       -0.0620
     29  C         17.2860  -20.4680  -11.0110 C.3     1  UNL1        0.0480
     30  C         19.6530  -20.4040  -11.8620 C.2     1  UNL1        0.0070
     31  C         20.9100  -20.9890  -12.0400 C.2     1  UNL1        0.0090
@<TRIPOS>BOND
     1    13     8    1
     2     7     6    2
     3    10     9    2
     4     8     6   ar
     5     8     9   ar
     6     6     5   ar
     7     9    11   ar
     8     5     4   ar
     9     5     1   ar
    10    11     4   ar
    11    11    12    1
    12    31    30    1
    13    31    25    2
    14    30    28    2
    15     4     3   ar
    16    24    25    1
    17    24     1    1
    18    25    26    1
    19     1     2   ar
    20    28    29    1
    21    28    27    1
    22    26    27    2
    23     3     2   ar
    24     2    14    1
    25    14    15    1
    26    14    16    1
    27    16    17    2
    28    17    18    1
    29    19    18    2
    30    19    20    1
    31    18    23    1
    32    20    21    2
    33    23    22    2
    34    21    22    1
