@<TRIPOS>MOLECULE
23075_out_ligand_01.pdbqt
 36 40 0 0 0
SMALL
GASTEIGER

@<TRIPOS>ATOM
      1  N         20.8740  -23.6230   -9.6480 N.pl3   1  UNL1       -0.3530
      2  C         22.2120  -23.3170   -9.6630 C.2     1  UNL1        0.1030
      3  C         22.3560  -22.1160  -10.3180 C.2     1  UNL1       -0.0070
      4  C         21.0670  -21.6890  -10.7480 C.2     1  UNL1        0.0020
      5  C         20.5890  -20.5810  -11.4800 C.2     1  UNL1        0.0140
      6  C         19.2200  -20.4580  -11.7410 C.2     1  UNL1        0.0010
      7  C         18.3260  -21.4180  -11.2810 C.2     1  UNL1        0.0020
      8  C         18.7700  -22.5280  -10.5570 C.2     1  UNL1        0.0300
      9  C         20.1490  -22.6490  -10.3060 C.2     1  UNL1        0.0450
     10  C         23.6140  -21.4960  -10.5620 C.3     1  UNL1        0.0340
     11  C         24.2590  -21.3370  -11.7350 C.ar    1  UNL1        0.0820
     12  C         23.7380  -21.7460  -13.0830 C.ar    1  UNL1        0.1620
     13  C         25.6350  -20.7060  -11.6690 C.ar    1  UNL1        0.2830
     14  N         22.5230  -22.1600  -13.2890 N.pl3   1  UNL1       -0.2810
     15  N         24.6400  -21.6300  -14.1240 N.ar    1  UNL1       -0.1890
     16  H         22.4460  -22.3670  -14.2940 H       1  UNL1        0.1880
     17  N         24.3320  -22.0040  -15.4230 N.ar    1  UNL1       -0.1610
     18  C         25.8940  -21.1210  -13.9100 C.ar    1  UNL1        0.2010
     19  C         25.3710  -21.7860  -16.1750 C.ar    1  UNL1        0.1020
     20  S         26.8010  -21.1150  -15.4020 S.2     1  UNL1       -0.0330
     21  N         26.4050  -20.6860  -12.8140 N.ar    1  UNL1       -0.1820
     22  O         26.0570  -20.2350  -10.6170 O.2     1  UNL1       -0.2650
     23  C         25.3730  -22.0870  -17.6570 C.3     1  UNL1        0.0380
     24  C         26.7650  -22.4660  -18.1520 C.3     1  UNL1        0.0160
     25  C         24.3370  -23.1490  -18.0150 C.3     1  UNL1        0.0160
     26  C         20.3260  -24.8260   -9.0460 C.3     1  UNL1        0.1550
     27  C         19.6010  -24.5250   -7.7380 C.3     1  UNL1        0.1960
     28  O         18.1980  -24.3610   -7.9530 O.2     1  UNL1       -0.3490
     29  C         17.4360  -23.7780   -6.9750 C.2     1  UNL1        0.0750
     30  C         16.2260  -23.2110   -7.4130 C.2     1  UNL1       -0.0290
     31  C         15.3700  -22.6040   -6.4830 C.2     1  UNL1        0.0100
     32  C         15.8330  -23.2570   -8.8650 C.3     1  UNL1        0.0510
     33  C         15.7150  -22.5480   -5.1330 C.2     1  UNL1        0.0070
     34  C         16.9290  -23.0830   -4.6940 C.2     1  UNL1       -0.0590
     35  C         17.2970  -23.0450   -3.2400 C.3     1  UNL1        0.0480
     36  C         17.7800  -23.7050   -5.6210 C.2     1  UNL1        0.0440
@<TRIPOS>BOND
     1    24    23    1
     2    25    23    1
     3    23    19    1
     4    19    17   ar
     5    19    20   ar
     6    17    15   ar
     7    20    18   ar
     8    16    14    1
     9    15    18   ar
    10    15    12   ar
    11    18    21   ar
    12    14    12    1
    13    12    11   ar
    14    21    13   ar
    15     6     5    1
    16     6     7    2
    17    11    13   ar
    18    11    10    1
    19    13    22    2
    20     5     4    2
    21     7     8    1
    22     4     3    1
    23     4     9    1
    24    10     3    1
    25     8     9    2
    26     3     2    2
    27     9     1    1
    28     2     1    1
    29     1    26    1
    30    26    27    1
    31    32    30    1
    32    28    27    1
    33    28    29    1
    34    30    29    2
    35    30    31    1
    36    29    36    1
    37    31    33    2
    38    36    34    2
    39    33    34    1
    40    34    35    1
