@<TRIPOS>MOLECULE
23454_out_ligand_01.pdbqt
 38 40 0 0 0
SMALL
GASTEIGER

@<TRIPOS>ATOM
      1  C         26.6580  -20.1020  -11.2400 C.3     1  UNL1        0.0690
      2  C         26.1380  -20.3130  -12.6410 C.ar    1  UNL1        0.0150
      3  N         26.3270  -19.2290  -13.4670 N.ar    1  UNL1       -0.3260
      4  C         25.9820  -19.1680  -14.7920 C.ar    1  UNL1        0.2670
      5  O         26.2320  -18.1700  -15.4600 O.2     1  UNL1       -0.2670
      6  C         25.2930  -20.3620  -15.3470 C.ar    1  UNL1        0.1180
      7  C         24.8980  -20.3010  -16.7140 C.1     1  UNL1        0.1050
      8  N         24.5750  -20.3140  -17.8300 N.1     1  UNL1       -0.1910
      9  C         25.0660  -21.4300  -14.5430 C.ar    1  UNL1       -0.0280
     10  C         24.2890  -22.6370  -15.0350 C.3     1  UNL1        0.0500
     11  C         25.5550  -21.4320  -13.1360 C.ar    1  UNL1       -0.0280
     12  H         26.7660  -18.3850  -13.1100 H       1  UNL1        0.1690
     13  C         25.3540  -22.6940  -12.2990 C.3     1  UNL1        0.0500
     14  C         25.2110  -22.4130  -10.8000 C.3     1  UNL1        0.1080
     15  C         23.8250  -21.9140  -10.4450 C.2     1  UNL1        0.2220
     16  O         23.6780  -21.0450   -9.5920 O.2     1  UNL1       -0.2730
     17  N         22.8160  -22.5680  -11.1290 N.am    1  UNL1       -0.3270
     18  H         23.0730  -23.4050  -11.6420 H       1  UNL1        0.1690
     19  C         21.4400  -22.2670  -11.0660 C.2     1  UNL1        0.0350
     20  C         20.8660  -21.6090  -12.1600 C.2     1  UNL1        0.0290
     21  C         19.5010  -21.2970  -12.1700 C.2     1  UNL1        0.0030
     22  C         18.7040  -21.6160  -11.0720 C.2     1  UNL1        0.0170
     23  C         19.2790  -22.2520   -9.9660 C.2     1  UNL1        0.0340
     24  C         20.6430  -22.5750   -9.9630 C.2     1  UNL1        0.0460
     25  C         18.4820  -22.5610   -8.7520 C.2     1  UNL1        0.2560
     26  O         17.5510  -23.3490   -8.8630 O.2     1  UNL1       -0.2670
     27  N         18.8770  -21.8730   -7.6170 N.am    1  UNL1       -0.3230
     28  H         19.5930  -21.1670   -7.7360 H       1  UNL1        0.1690
     29  C         18.3020  -21.9670   -6.3320 C.2     1  UNL1        0.0350
     30  C         18.8830  -21.4330   -5.1780 C.2     1  UNL1        0.0290
     31  C         18.2650  -21.5810   -3.9340 C.2     1  UNL1        0.0030
     32  C         17.0560  -22.2620   -3.8280 C.2     1  UNL1        0.0160
     33  C         16.4420  -22.7890   -4.9740 C.2     1  UNL1        0.0500
     34  C         17.0750  -22.6360   -6.2220 C.2     1  UNL1        0.0450
     35  C         15.1210  -23.5100   -4.8520 C.3     1  UNL1        0.4170
     36  F         14.0410  -22.6800   -4.9120 F       1  UNL1       -0.1660
     37  F         14.9370  -24.4350   -5.8340 F       1  UNL1       -0.1660
     38  F         15.0050  -24.1850   -3.6740 F       1  UNL1       -0.1660
@<TRIPOS>BOND
     1     8     7    3
     2     7     6    1
     3     5     4    2
     4     6     4   ar
     5     6     9   ar
     6    10     9    1
     7     4     3   ar
     8     9    11   ar
     9     3    12    1
    10     3     2   ar
    11    11     2   ar
    12    11    13    1
    13     2     1    1
    14    13    14    1
    15    21    20    1
    16    21    22    2
    17    20    19    2
    18    18    17    1
    19    17    19    1
    20    17    15   am
    21    22    23    1
    22    19    24    1
    23    14    15    1
    24    15    16    2
    25    23    24    2
    26    23    25    1
    27    26    25    2
    28    25    27   am
    29    28    27    1
    30    27    29    1
    31    29    34    2
    32    29    30    1
    33    34    33    1
    34    37    35    1
    35    30    31    2
    36    33    35    1
    37    33    32    2
    38    36    35    1
    39    35    38    1
    40    31    32    1
