@<TRIPOS>MOLECULE
23492_out_ligand_01.pdbqt
 34 37 0 0 0
SMALL
GASTEIGER

@<TRIPOS>ATOM
      1  N         20.5200  -23.2600   -9.5150 N.pl3   1  UNL1       -0.2830
      2  H         20.1560  -24.0300   -8.9310 H       1  UNL1        0.1280
      3  C         21.5560  -22.4880   -8.7890 C.3     1  UNL1        0.1950
      4  C         22.6770  -22.0160   -9.7290 C.2     1  UNL1        0.2350
      5  O         23.3440  -21.0200   -9.4670 O.2     1  UNL1       -0.2720
      6  N         22.8170  -22.8450  -10.8270 N.am    1  UNL1       -0.3260
      7  H         22.1320  -23.6020  -10.8390 H       1  UNL1        0.1690
      8  C         23.7000  -22.7300  -11.9120 C.2     1  UNL1        0.0370
      9  C         24.9710  -23.2940  -11.7580 C.2     1  UNL1        0.0320
     10  C         25.9000  -23.2470  -12.8010 C.2     1  UNL1        0.0420
     11  C         25.5670  -22.6390  -14.0120 C.2     1  UNL1        0.1020
     12  C         24.3180  -22.0210  -14.1520 C.2     1  UNL1        0.1040
     13  O         26.5410  -22.7070  -14.9780 O.2     1  UNL1       -0.3480
     14  C         23.3810  -22.0930  -13.1120 C.2     1  UNL1        0.0690
     15  O         23.8950  -21.3330  -15.2640 O.2     1  UNL1       -0.3480
     16  C         24.9370  -20.6080  -15.9160 C.3     1  UNL1        0.1780
     17  C         25.6800  -21.4950  -16.9020 C.3     1  UNL1        0.0530
     18  C         26.0160  -22.8490  -16.3000 C.3     1  UNL1        0.1780
     19  C         19.4370  -22.5120  -10.0360 C.2     1  UNL1        0.0240
     20  C         19.5940  -21.8090  -11.2430 C.2     1  UNL1        0.0240
     21  C         18.5270  -21.1230  -11.8290 C.2     1  UNL1        0.0020
     22  C         17.2740  -21.1420  -11.2310 C.2     1  UNL1        0.0010
     23  C         17.0900  -21.8270  -10.0310 C.2     1  UNL1        0.0190
     24  C         18.1650  -22.4930   -9.4140 C.2     1  UNL1        0.0530
     25  C         17.9540  -23.1720   -8.0940 C.2     1  UNL1        0.2580
     26  O         18.4640  -24.2740   -7.9090 O.2     1  UNL1       -0.2670
     27  N         17.2400  -22.4400   -7.1600 N.am    1  UNL1       -0.3230
     28  H         17.0400  -21.4740   -7.3850 H       1  UNL1        0.1690
     29  C         16.8430  -22.8500   -5.8690 C.2     1  UNL1        0.0350
     30  C         17.6690  -22.8020   -4.7450 C.2     1  UNL1        0.0290
     31  C         17.2030  -23.2430   -3.5020 C.2     1  UNL1        0.0020
     32  C         15.9070  -23.7360   -3.3720 C.2     1  UNL1        0.0000
     33  C         15.0760  -23.7930   -4.4860 C.2     1  UNL1        0.0020
     34  C         15.5420  -23.3540   -5.7290 C.2     1  UNL1        0.0290
@<TRIPOS>BOND
     1    17    18    1
     2    17    16    1
     3    18    13    1
     4    16    15    1
     5    15    12    1
     6    13    11    1
     7    12    11    2
     8    12    14    1
     9    11    10    1
    10    14     8    2
    11    10     9    2
    12     8     9    1
    13     8     6    1
    14    21    20    1
    15    21    22    2
    16    20    19    2
    17    22    23    1
    18     7     6    1
    19     6     4   am
    20    19     1    1
    21    19    24    1
    22    23    24    2
    23     4     5    2
    24     4     3    1
    25     1     2    1
    26     1     3    1
    27    24    25    1
    28    25    26    2
    29    25    27   am
    30    28    27    1
    31    27    29    1
    32    29    34    2
    33    29    30    1
    34    34    33    1
    35    30    31    2
    36    33    32    2
    37    31    32    1
