@<TRIPOS>MOLECULE
23612_out_ligand_01.pdbqt
 32 34 0 0 0
SMALL
GASTEIGER

@<TRIPOS>ATOM
      1  C         20.2130  -21.7380  -10.2280 C.2     1  UNL1        0.0240
      2  C         19.7820  -21.2980  -11.4810 C.2     1  UNL1        0.0240
      3  C         20.6690  -21.2720  -12.5580 C.2     1  UNL1        0.0030
      4  C         21.9900  -21.6830  -12.3840 C.2     1  UNL1        0.0250
      5  C         22.4190  -22.1070  -11.1240 C.2     1  UNL1        0.0810
      6  C         21.5310  -22.1560  -10.0440 C.2     1  UNL1        0.0490
      7  N         19.2920  -21.8010   -9.1320 N.pl3   1  UNL1       -0.1810
      8  H         19.7230  -21.5930   -8.2320 H       1  UNL1        0.1460
      9  S         18.4300  -23.2720   -9.0080 S.O2    1  UNL1        0.2460
     10  O         17.3160  -23.2620   -9.9310 O.2     1  UNL1       -0.2050
     11  O         19.3990  -24.3450   -9.0670 O.2     1  UNL1       -0.2050
     12  C         17.7890  -23.1220   -7.3130 C.ar    1  UNL1        0.0870
     13  C         18.5170  -22.3520   -6.3650 C.ar    1  UNL1       -0.0320
     14  C         17.9140  -22.0320   -5.1200 C.ar    1  UNL1       -0.0480
     15  C         19.9240  -21.8640   -6.6430 C.3     1  UNL1        0.0500
     16  C         16.6600  -22.5930   -4.7730 C.ar    1  UNL1       -0.0490
     17  C         18.6170  -21.1020   -4.1510 C.3     1  UNL1        0.0490
     18  C         16.0730  -22.3410   -3.4000 C.3     1  UNL1        0.0490
     19  C         15.9440  -23.3670   -5.7210 C.ar    1  UNL1       -0.0480
     20  C         16.5380  -23.7000   -6.9680 C.ar    1  UNL1       -0.0320
     21  C         14.5460  -23.8520   -5.3910 C.3     1  UNL1        0.0490
     22  C         15.8190  -24.6670   -7.8820 C.3     1  UNL1        0.0500
     23  S         24.0840  -22.6750  -10.9080 S.O2    1  UNL1        0.2640
     24  O         24.9630  -21.5760  -11.2620 O.2     1  UNL1       -0.2000
     25  O         24.2090  -23.3340   -9.6280 O.2     1  UNL1       -0.2000
     26  N         24.2830  -23.7850  -12.1330 N.3     1  UNL1       -0.2680
     27  H         23.5220  -24.4570  -12.1610 H       1  UNL1        0.1800
     28  C         25.2660  -23.7740  -13.1160 C.3     1  UNL1        0.1080
     29  N         26.3660  -24.4460  -13.0530 N.3     1  UNL1       -0.2760
     30  C         27.0750  -24.1440  -14.3130 C.3     1  UNL1        0.1510
     31  C         26.4520  -22.8620  -14.8380 C.3     1  UNL1        0.0290
     32  C         25.0280  -22.9640  -14.3480 C.3     1  UNL1        0.0800
@<TRIPOS>BOND
     1    31    32    1
     2    31    30    1
     3    32    28    1
     4    30    29    1
     5    28    29    1
     6    28    26    1
     7     3     4    2
     8     3     2    1
     9     4     5    1
    10    27    26    1
    11    26    23    1
    12     2     1    2
    13    24    23    2
    14     5    23    1
    15     5     6    2
    16    23    25    2
    17     1     6    1
    18     1     7    1
    19    10     9    2
    20     7     9    1
    21     7     8    1
    22    11     9    2
    23     9    12    1
    24    22    20    1
    25    12    20   ar
    26    12    13   ar
    27    20    19   ar
    28    15    13    1
    29    13    14   ar
    30    19    21    1
    31    19    16   ar
    32    14    16   ar
    33    14    17    1
    34    16    18    1
