@<TRIPOS>MOLECULE
23855_out_ligand_01.pdbqt
 32 37 0 0 0
SMALL
GASTEIGER

@<TRIPOS>ATOM
      1  C         24.4260  -22.0370  -12.5340 C.2     1  UNL1        0.1240
      2  N         24.2190  -21.4220  -13.7180 N.2     1  UNL1       -0.2290
      3  C         22.9880  -20.9820  -14.0150 C.2     1  UNL1        0.2350
      4  N         21.8880  -21.0810  -13.2690 N.2     1  UNL1       -0.2400
      5  C         22.0810  -21.6990  -12.0750 C.ar    1  UNL1        0.0920
      6  C         23.3240  -22.1830  -11.6810 C.ar    1  UNL1        0.0770
      7  S         23.2410  -22.9120  -10.1250 S.2     1  UNL1       -0.0640
      8  C         21.5810  -22.5820   -9.9790 C.ar    1  UNL1        0.1120
      9  N         20.9120  -22.9500   -8.8640 N.ar    1  UNL1       -0.2390
     10  C         19.5970  -22.6260   -8.8310 C.ar    1  UNL1        0.0750
     11  C         18.9650  -21.9960   -9.8900 C.ar    1  UNL1       -0.0210
     12  C         19.6920  -21.6390  -11.0340 C.ar    1  UNL1       -0.0340
     13  C         21.0620  -21.9300  -11.0900 C.ar    1  UNL1        0.0370
     14  C         18.8060  -20.9460  -12.0330 C.3     1  UNL1        0.0400
     15  C         17.4200  -21.3880  -11.5540 C.3     1  UNL1        0.0090
     16  C         17.5300  -21.5860  -10.0370 C.3     1  UNL1        0.0420
     17  N         25.6980  -22.4900  -12.1830 N.pl3   1  UNL1       -0.2760
     18  H         25.9220  -22.2810  -11.2140 H       1  UNL1        0.1290
     19  C         26.0740  -23.8300  -12.6240 C.3     1  UNL1        0.0980
     20  C         27.0730  -23.7740  -13.7860 C.3     1  UNL1        0.0530
     21  C         26.3900  -23.4400  -15.0900 C.2     1  UNL1       -0.0570
     22  C         25.2370  -24.1300  -15.4890 C.2     1  UNL1        0.0070
     23  C         24.5980  -23.8030  -16.6850 C.2     1  UNL1        0.0010
     24  C         25.1020  -22.7840  -17.4910 C.2     1  UNL1        0.0000
     25  C         26.2450  -22.0900  -17.1020 C.2     1  UNL1        0.0010
     26  C         26.8860  -22.4140  -15.9050 C.2     1  UNL1        0.0070
     27  C         18.9020  -23.0180   -7.5930 C.2     1  UNL1       -0.0070
     28  C         18.8230  -22.1290   -6.5080 C.2     1  UNL1        0.0140
     29  C         18.1710  -22.4860   -5.3240 C.2     1  UNL1        0.0010
     30  C         17.5760  -23.7400   -5.2090 C.2     1  UNL1        0.0000
     31  C         17.6280  -24.6320   -6.2770 C.2     1  UNL1        0.0010
     32  C         18.2810  -24.2720   -7.4590 C.2     1  UNL1        0.0140
@<TRIPOS>BOND
     1    24    25    2
     2    24    23    1
     3    25    26    1
     4    23    22    2
     5    26    21    2
     6    22    21    1
     7    21    20    1
     8     3     2    1
     9     3     4    2
    10    20    19    1
    11     2     1    2
    12     4     5    1
    13    19    17    1
    14     1    17    1
    15     1     6    1
    16    17    18    1
    17     5     6   ar
    18     5    13   ar
    19    14    15    1
    20    14    12    1
    21     6     7   ar
    22    15    16    1
    23    13    12   ar
    24    13     8   ar
    25    12    11   ar
    26     7     8   ar
    27    16    11    1
    28     8     9   ar
    29    11    10   ar
    30     9    10   ar
    31    10    27    1
    32    27    32    2
    33    27    28    1
    34    32    31    1
    35    28    29    2
    36    31    30    2
    37    29    30    1
