@<TRIPOS>MOLECULE
23998_out_ligand_01.pdbqt
 40 43 0 0 0
SMALL
GASTEIGER

@<TRIPOS>ATOM
      1  C         17.7200  -23.5240   -8.6020 C.2     1  UNL1        0.0860
      2  C         19.0620  -23.9420   -8.5410 C.2     1  UNL1        0.0420
      3  C         20.0120  -23.4240   -9.4270 C.2     1  UNL1        0.0330
      4  C         19.6080  -22.5140  -10.4070 C.2     1  UNL1        0.0170
      5  C         18.2720  -22.1070  -10.4770 C.2     1  UNL1        0.0090
      6  C         17.3080  -22.5970   -9.5770 C.2     1  UNL1       -0.0390
      7  C         15.8940  -22.1120   -9.7340 C.3     1  UNL1        0.0500
      8  C         21.4260  -23.8980   -9.3140 C.2     1  UNL1        0.2560
      9  O         21.6450  -24.9200   -8.6750 O.2     1  UNL1       -0.2670
     10  N         22.3620  -23.1030   -9.9420 N.am    1  UNL1       -0.3220
     11  H         22.0430  -22.2080  -10.3180 H       1  UNL1        0.1690
     12  C         23.7620  -23.3000  -10.0530 C.2     1  UNL1        0.0500
     13  C         24.5000  -23.9860   -9.0810 C.2     1  UNL1        0.0300
     14  C         25.8830  -24.1520   -9.2120 C.2     1  UNL1        0.0020
     15  C         26.5510  -23.6310  -10.3160 C.2     1  UNL1        0.0010
     16  C         25.8360  -22.9540  -11.3010 C.2     1  UNL1        0.0190
     17  C         24.4410  -22.7980  -11.1890 C.2     1  UNL1        0.0580
     18  C         23.6880  -22.0980  -12.2770 C.2     1  UNL1        0.2540
     19  O         22.4740  -22.2530  -12.3900 O.2     1  UNL1       -0.2680
     20  N         24.4320  -21.3370  -13.1530 N.am    1  UNL1       -0.3510
     21  H         25.4290  -21.4990  -13.2090 H       1  UNL1        0.1630
     22  C         23.8290  -20.7490  -14.3300 C.3     1  UNL1        0.1870
     23  C         24.3040  -21.4830  -15.5270 C.2     1  UNL1        0.0700
     24  C         24.6380  -22.8030  -15.7550 C.2     1  UNL1        0.0360
     25  C         25.0240  -22.8870  -17.1140 C.2     1  UNL1        0.0270
     26  C         24.9050  -21.6160  -17.6270 C.2     1  UNL1        0.1420
     27  O         24.4690  -20.7540  -16.6700 O.2     1  UNL1       -0.3250
     28  S         16.6070  -24.2650   -7.4100 S.O2    1  UNL1        0.2630
     29  O         17.4080  -25.1110   -6.5460 O.2     1  UNL1       -0.2000
     30  O         15.4490  -24.8060   -8.0830 O.2     1  UNL1       -0.2000
     31  N         16.1670  -22.9540   -6.4710 N.pl3   1  UNL1       -0.2800
     32  H         15.3120  -22.4660   -6.7350 H       1  UNL1        0.1790
     33  C         17.0160  -22.4100   -5.4750 C.2     1  UNL1        0.0490
     34  C         16.7320  -22.6180   -4.1180 C.2     1  UNL1       -0.0350
     35  C         17.5710  -22.0310   -3.1570 C.2     1  UNL1        0.0090
     36  C         15.6130  -23.5120   -3.6600 C.3     1  UNL1        0.0500
     37  C         18.6390  -21.2170   -3.5410 C.2     1  UNL1        0.0070
     38  C         18.8880  -20.9660   -4.8930 C.2     1  UNL1       -0.0600
     39  C         20.0430  -20.1050   -5.3140 C.3     1  UNL1        0.0480
     40  C         18.0710  -21.5730   -5.8560 C.2     1  UNL1        0.0370
@<TRIPOS>BOND
     1    26    25    2
     2    26    27    1
     3    25    24    1
     4    27    23    1
     5    24    23    2
     6    23    22    1
     7    22    20    1
     8    21    20    1
     9    20    18   am
    10    19    18    2
    11    18    17    1
    12    16    17    1
    13    16    15    2
    14    17    12    2
    15     5     4    2
    16     5     6    1
    17     4     3    1
    18    11    10    1
    19    15    14    1
    20    12    10    1
    21    12    13    1
    22    10     8   am
    23     7     6    1
    24     6     1    2
    25     3     8    1
    26     3     2    2
    27     8     9    2
    28    14    13    2
    29     1     2    1
    30     1    28    1
    31    30    28    2
    32    28    29    2
    33    28    31    1
    34    32    31    1
    35    31    33    1
    36    40    33    2
    37    40    38    1
    38    33    34    1
    39    39    38    1
    40    38    37    2
    41    34    36    1
    42    34    35    2
    43    37    35    1
