@<TRIPOS>MOLECULE
24053_out_ligand_01.pdbqt
 28 32 0 0 0
SMALL
GASTEIGER

@<TRIPOS>ATOM
      1  C         24.6520  -22.0850  -11.8570 C.2     1  UNL1        0.1440
      2  N         24.4920  -21.6460  -13.1240 N.2     1  UNL1       -0.2230
      3  C         23.2580  -21.3640  -13.5620 C.2     1  UNL1        0.2360
      4  N         22.1140  -21.4510  -12.8810 N.2     1  UNL1       -0.2400
      5  C         22.2600  -21.8870  -11.6020 C.ar    1  UNL1        0.0920
      6  C         23.5030  -22.2090  -11.0650 C.ar    1  UNL1        0.0820
      7  S         23.3580  -22.7220   -9.4300 S.2     1  UNL1       -0.0630
      8  C         21.6700  -22.5140   -9.4390 C.ar    1  UNL1        0.1120
      9  N         20.9500  -22.7760   -8.3280 N.ar    1  UNL1       -0.2390
     10  C         19.6160  -22.5650   -8.4250 C.ar    1  UNL1        0.0750
     11  C         19.0190  -22.1420   -9.6020 C.ar    1  UNL1       -0.0210
     12  C         19.8020  -21.8870  -10.7370 C.ar    1  UNL1       -0.0340
     13  C         21.1910  -22.0670  -10.6630 C.ar    1  UNL1        0.0370
     14  C         18.9440  -21.4160  -11.8790 C.3     1  UNL1        0.0400
     15  C         17.5640  -21.9040  -11.4320 C.3     1  UNL1        0.0090
     16  C         17.5730  -21.8800   -9.8970 C.3     1  UNL1        0.0420
     17  N         25.9130  -22.3990  -11.3820 N.pl3   1  UNL1       -0.3720
     18  H         26.6190  -21.6790  -11.4720 H       1  UNL1        0.1610
     19  C         26.3700  -23.7830  -11.3920 C.3     1  UNL1        0.1470
     20  C         27.1210  -24.1540  -10.1090 C.3     1  UNL1        0.1830
     21  O         26.2410  -24.7800   -9.1720 O.3     1  UNL1       -0.3990
     22  H         25.6130  -24.0880   -8.9010 H       1  UNL1        0.2090
     23  C         18.8610  -22.8380   -7.1900 C.2     1  UNL1       -0.0070
     24  C         18.8270  -21.8890   -6.1540 C.2     1  UNL1        0.0140
     25  C         18.1190  -22.1320   -4.9740 C.2     1  UNL1        0.0010
     26  C         17.4250  -23.3280   -4.8110 C.2     1  UNL1        0.0000
     27  C         17.4330  -24.2770   -5.8310 C.2     1  UNL1        0.0010
     28  C         18.1410  -24.0310   -7.0100 C.2     1  UNL1        0.0140
@<TRIPOS>BOND
     1     3     2    1
     2     3     4    2
     3     2     1    2
     4     4     5    1
     5    14    15    1
     6    14    12    1
     7     1    17    1
     8     1     6    1
     9     5     6   ar
    10     5    13   ar
    11    18    17    1
    12    15    16    1
    13    19    17    1
    14    19    20    1
    15     6     7   ar
    16    12    13   ar
    17    12    11   ar
    18    13     8   ar
    19    20    21    1
    20    16    11    1
    21    11    10   ar
    22     8     7   ar
    23     8     9   ar
    24    21    22    1
    25    10     9   ar
    26    10    23    1
    27    23    28    2
    28    23    24    1
    29    28    27    1
    30    24    25    2
    31    27    26    2
    32    25    26    1
