@<TRIPOS>MOLECULE
24553_out_ligand_01.pdbqt
 44 48 0 0 0
SMALL
GASTEIGER

@<TRIPOS>ATOM
      1  C         19.9980  -22.3240  -11.1470 C.2     1  UNL1        0.1030
      2  C         21.2130  -22.8460  -10.6900 C.2     1  UNL1        0.0510
      3  C         21.2810  -23.5300   -9.4700 C.2     1  UNL1       -0.0320
      4  C         20.1100  -23.7650   -8.7470 C.2     1  UNL1        0.0390
      5  C         18.8830  -23.2660   -9.2070 C.2     1  UNL1        0.1120
      6  C         18.8300  -22.5190  -10.3880 C.2     1  UNL1        0.1240
      7  C         22.5570  -24.0080   -8.9270 C.2     1  UNL1        0.0170
      8  C         23.7540  -23.4020   -9.0250 C.2     1  UNL1        0.0750
      9  C         24.0770  -22.1140   -9.6990 C.2     1  UNL1        0.2450
     10  O         23.3700  -21.1440   -9.4510 O.2     1  UNL1       -0.2680
     11  N         25.1210  -22.1820  -10.5880 N.am    1  UNL1       -0.3230
     12  H         25.5720  -23.0930  -10.7010 H       1  UNL1        0.1690
     13  C         25.7250  -21.1300  -11.3240 C.2     1  UNL1        0.0500
     14  C         26.3410  -20.0420  -10.6920 C.2     1  UNL1        0.0300
     15  C         26.9630  -19.0330  -11.4330 C.2     1  UNL1        0.0020
     16  C         26.9870  -19.0980  -12.8200 C.2     1  UNL1        0.0010
     17  C         26.3770  -20.1660  -13.4750 C.2     1  UNL1        0.0190
     18  C         25.7280  -21.1750  -12.7400 C.2     1  UNL1        0.0580
     19  C         25.0810  -22.3090  -13.4680 C.2     1  UNL1        0.2540
     20  O         23.8590  -22.3960  -13.4910 O.2     1  UNL1       -0.2680
     21  N         25.9130  -23.1980  -14.1100 N.am    1  UNL1       -0.3510
     22  H         26.8920  -22.9810  -14.2170 H       1  UNL1        0.1630
     23  C         25.3910  -24.3040  -14.8890 C.3     1  UNL1        0.1870
     24  C         24.9890  -23.7930  -16.2240 C.2     1  UNL1        0.0700
     25  C         23.7900  -23.7670  -16.9130 C.2     1  UNL1        0.0360
     26  C         24.0570  -23.1340  -18.1530 C.2     1  UNL1        0.0270
     27  C         25.3930  -22.8090  -18.1380 C.2     1  UNL1        0.1420
     28  O         25.9670  -23.2070  -16.9750 O.2     1  UNL1       -0.3250
     29  O         19.8550  -21.6450  -12.3310 O.2     1  UNL1       -0.3530
     30  C         20.9140  -20.7660  -12.6940 C.3     1  UNL1        0.2100
     31  S         17.4460  -23.5490   -8.1950 S.O2    1  UNL1        0.2510
     32  O         16.2900  -23.2600   -9.0260 O.2     1  UNL1       -0.2050
     33  O         17.5430  -24.8410   -7.5450 O.2     1  UNL1       -0.2050
     34  N         17.5790  -22.3200   -7.0210 N.pl3   1  UNL1       -0.1710
     35  C         18.9670  -21.8670   -6.6790 C.3     1  UNL1        0.1180
     36  C         18.8720  -21.2510   -5.2740 C.3     1  UNL1        0.0560
     37  C         17.6510  -21.9180   -4.7350 C.2     1  UNL1       -0.0350
     38  C         17.1890  -21.9030   -3.4270 C.2     1  UNL1        0.0090
     39  C         16.9220  -22.5260   -5.7600 C.2     1  UNL1        0.0310
     40  C         15.9610  -22.5060   -3.1540 C.2     1  UNL1        0.0010
     41  C         15.2110  -23.0880   -4.1850 C.2     1  UNL1        0.0020
     42  C         15.6820  -23.0850   -5.5030 C.2     1  UNL1        0.0250
     43  O         17.6330  -22.0460  -10.8620 O.2     1  UNL1       -0.3520
     44  C         17.5490  -20.6280  -10.6800 C.3     1  UNL1        0.2100
@<TRIPOS>BOND
     1    26    27    2
     2    26    25    1
     3    27    28    1
     4    28    24    1
     5    25    24    2
     6    24    23    1
     7    23    21    1
     8    22    21    1
     9    21    19   am
    10    20    19    2
    11    17    16    2
    12    17    18    1
    13    19    18    1
    14    16    15    1
    15    18    13    2
    16    30    29    1
    17    29     1    1
    18    15    14    2
    19    13    14    1
    20    13    11    1
    21     1     2    2
    22     1     6    1
    23    43    44    1
    24    43     6    1
    25    12    11    1
    26     2     3    1
    27    11     9   am
    28     6     5    2
    29     9    10    2
    30     9     8    1
    31     3     7    1
    32     3     4    2
    33     5     4    1
    34     5    31    1
    35    32    31    2
    36     8     7    2
    37    31    33    2
    38    31    34    1
    39    34    35    1
    40    34    39    1
    41    35    36    1
    42    39    42    1
    43    39    37    2
    44    42    41    2
    45    36    37    1
    46    37    38    1
    47    41    40    1
    48    38    40    2
