@<TRIPOS>MOLECULE
24651_out_ligand_01.pdbqt
 41 44 0 0 0
SMALL
GASTEIGER

@<TRIPOS>ATOM
      1  O         23.1800  -21.0980   -9.4740 O.2     1  UNL1       -0.2670
      2  C         23.2620  -22.0200  -10.2790 C.2     1  UNL1        0.2580
      3  N         22.2290  -22.6210  -10.9730 N.am    1  UNL1       -0.3230
      4  H         22.4570  -23.4720  -11.4760 H       1  UNL1        0.1690
      5  C         20.8630  -22.2730  -10.9380 C.2     1  UNL1        0.0360
      6  C         20.2520  -21.4180  -11.8540 C.2     1  UNL1        0.0310
      7  C         18.8880  -21.1200  -11.7460 C.2     1  UNL1        0.0280
      8  C         18.1100  -21.6780  -10.7280 C.2     1  UNL1        0.0570
      9 CL         16.4390  -21.2550  -10.7110 Cl      1  UNL1       -0.0830
     10  C         18.7120  -22.5490   -9.8210 C.2     1  UNL1        0.1030
     11  C         20.0860  -22.8360   -9.9220 C.2     1  UNL1        0.0560
     12  S         17.7970  -23.3100   -8.5050 S.O2    1  UNL1        0.2650
     13  O         16.5770  -23.8460   -9.0750 O.2     1  UNL1       -0.2000
     14  O         18.6880  -24.1760   -7.7660 O.2     1  UNL1       -0.2000
     15  N         17.3940  -22.0100   -7.5000 N.pl3   1  UNL1       -0.2790
     16  H         16.8060  -21.3310   -7.9910 H       1  UNL1        0.1790
     17  C         17.0710  -22.2450   -6.1210 C.2     1  UNL1        0.0640
     18  C         15.9140  -22.9450   -5.7690 C.2     1  UNL1        0.0320
     19  C         15.6010  -23.1690   -4.4250 C.2     1  UNL1        0.0020
     20  C         16.4510  -22.7110   -3.4220 C.2     1  UNL1        0.0020
     21  C         17.6250  -22.0380   -3.7610 C.2     1  UNL1        0.0260
     22  C         17.9390  -21.8150   -5.1030 C.2     1  UNL1        0.0610
     23 CL         19.4220  -21.0100   -5.4700 Cl      1  UNL1       -0.0820
     24  C         24.6060  -22.6070  -10.5230 C.2     1  UNL1        0.0540
     25  C         25.0890  -23.6380   -9.7040 C.2     1  UNL1        0.0190
     26  C         26.3470  -24.1900   -9.9520 C.2     1  UNL1        0.0010
     27  C         27.1200  -23.7210  -11.0130 C.2     1  UNL1        0.0020
     28  C         26.6390  -22.7030  -11.8380 C.2     1  UNL1        0.0250
     29  C         25.3770  -22.1520  -11.6060 C.2     1  UNL1        0.0380
     30  N         24.9510  -21.0500  -12.4220 N.pl3   1  UNL1       -0.1800
     31  H         25.6910  -20.3540  -12.5950 H       1  UNL1        0.1460
     32  S         24.2570  -21.4610  -13.9190 S.O2    1  UNL1        0.2450
     33  O         24.6750  -22.8120  -14.2220 O.2     1  UNL1       -0.2060
     34  O         22.8580  -21.0850  -13.9120 O.2     1  UNL1       -0.2060
     35  C         25.1280  -20.3880  -15.0380 C.2     1  UNL1        0.0750
     36  C         25.0940  -20.6640  -16.4110 C.2     1  UNL1        0.0280
     37  C         25.7710  -19.8240  -17.2950 C.2     1  UNL1        0.0440
     38  C         26.4620  -18.7210  -16.8010 C.2     1  UNL1        0.1160
     39  F         27.1120  -17.9170  -17.6520 F       1  UNL1       -0.2060
     40  C         26.4890  -18.4380  -15.4370 C.2     1  UNL1        0.0440
     41  C         25.8150  -19.2730  -14.5460 C.2     1  UNL1        0.0280
@<TRIPOS>BOND
     1    39    38    1
     2    37    38    2
     3    37    36    1
     4    38    40    1
     5    36    35    2
     6    40    41    2
     7    35    41    1
     8    35    32    1
     9    33    32    2
    10    32    34    2
    11    32    30    1
    12    31    30    1
    13    30    29    1
    14     6     7    1
    15     6     5    2
    16    28    29    1
    17    28    27    2
    18     7     8    2
    19    29    24    2
    20     4     3    1
    21    27    26    1
    22     3     5    1
    23     3     2   am
    24     5    11    1
    25     8     9    1
    26     8    10    1
    27    24     2    1
    28    24    25    1
    29     2     1    2
    30    26    25    2
    31    11    10    2
    32    10    12    1
    33    13    12    2
    34    12    14    2
    35    12    15    1
    36    16    15    1
    37    15    17    1
    38    17    18    2
    39    17    22    1
    40    18    19    1
    41    23    22    1
    42    22    21    2
    43    19    20    2
    44    21    20    1
