@<TRIPOS>MOLECULE
24995_out_ligand_01.pdbqt
 33 35 0 0 0
SMALL
GASTEIGER

@<TRIPOS>ATOM
      1  C         18.4490  -22.2950  -10.1270 C.2     1  UNL1       -0.0580
      2  C         19.0440  -23.3730   -9.4550 C.2     1  UNL1        0.0090
      3  C         20.4330  -23.5080   -9.4260 C.2     1  UNL1        0.0260
      4  C         21.2290  -22.5580  -10.0700 C.2     1  UNL1        0.0790
      5  C         20.6540  -21.4740  -10.7330 C.2     1  UNL1        0.0260
      6  C         19.2640  -21.3470  -10.7620 C.2     1  UNL1        0.0090
      7  C         16.9450  -22.1300  -10.1310 C.3     1  UNL1        0.0480
      8  C         16.2280  -23.4040   -9.6900 C.3     1  UNL1        0.1080
      9  C         16.3450  -23.6100   -8.1890 C.2     1  UNL1        0.2220
     10  N         16.3400  -22.4130   -7.4810 N.am    1  UNL1       -0.3260
     11  H         15.7340  -21.7190   -7.9030 H       1  UNL1        0.1690
     12  O         16.4100  -24.7390   -7.7070 O.2     1  UNL1       -0.2730
     13  C         16.4100  -22.3730   -6.0640 C.2     1  UNL1        0.0470
     14  C         17.6500  -22.2870   -5.3870 C.2     1  UNL1       -0.0310
     15  C         17.6540  -22.2490   -3.9790 C.2     1  UNL1        0.0090
     16  C         16.4670  -22.2560   -3.2540 C.2     1  UNL1        0.0010
     17  C         15.2500  -22.2900   -3.9230 C.2     1  UNL1        0.0090
     18  C         15.2010  -22.3470   -5.3290 C.2     1  UNL1       -0.0310
     19  C         18.9860  -22.1100   -6.0810 C.3     1  UNL1        0.0360
     20  C         19.6960  -20.8310   -5.6530 C.3     1  UNL1        0.0100
     21  C         13.8320  -22.4060   -5.9720 C.3     1  UNL1        0.0360
     22  C         13.1160  -21.0670   -5.9270 C.3     1  UNL1        0.0100
     23  S         22.9950  -22.7230  -10.0060 S.O2    1  UNL1        0.2590
     24  O         23.5820  -21.4110   -9.8490 O.2     1  UNL1       -0.2010
     25  O         23.2920  -23.8020   -9.0920 O.2     1  UNL1       -0.2010
     26  N         23.3520  -23.2880  -11.5390 N.3     1  UNL1       -0.3110
     27  H         23.3480  -24.3050  -11.6310 H       1  UNL1        0.1720
     28  C         24.1360  -22.4750  -12.4740 C.3     1  UNL1        0.0930
     29  C         25.0180  -23.3840  -13.3340 C.3     1  UNL1        0.0260
     30  C         25.7490  -22.5930  -14.4160 C.3     1  UNL1        0.0020
     31  C         24.7760  -21.7960  -15.2800 C.3     1  UNL1        0.0000
     32  C         23.8840  -20.8920  -14.4370 C.3     1  UNL1        0.0020
     33  C         23.1590  -21.6760  -13.3460 C.3     1  UNL1        0.0260
@<TRIPOS>BOND
     1    31    32    1
     2    31    30    1
     3    32    33    1
     4    30    29    1
     5    33    28    1
     6    29    28    1
     7    28    26    1
     8    27    26    1
     9    26    23    1
    10     6     5    1
    11     6     1    2
    12     5     4    2
    13     7     1    1
    14     7     8    1
    15     1     2    1
    16     4    23    1
    17     4     3    1
    18    23    24    2
    19    23    25    2
    20     8     9    1
    21     2     3    2
    22     9    12    2
    23     9    10   am
    24    11    10    1
    25    10    13    1
    26    19    20    1
    27    19    14    1
    28    13    14    2
    29    13    18    1
    30    21    22    1
    31    21    18    1
    32    14    15    1
    33    18    17    2
    34    15    16    2
    35    17    16    1
