@<TRIPOS>MOLECULE
25945_out_ligand_01.pdbqt
 38 42 0 0 0
SMALL
GASTEIGER

@<TRIPOS>ATOM
      1  C         20.8650  -22.7290  -10.5700 C.3     1  UNL1        0.1620
      2  C         21.1630  -23.0480   -9.1200 C.3     1  UNL1        0.0760
      3  C         22.3590  -22.2440   -8.7440 C.2     1  UNL1        0.2520
      4  O         22.8380  -21.9820   -7.6590 O.2     1  UNL1       -0.2820
      5  C         22.8970  -21.6460  -10.0370 C.2     1  UNL1        0.2950
      6  O         23.9600  -21.0680  -10.1550 O.2     1  UNL1       -0.2640
      7  N         21.9570  -21.8620  -11.0200 N.am    1  UNL1       -0.3320
      8  C         20.4610  -23.9530   -8.3940 C.2     1  UNL1        0.1950
      9  O         20.5250  -25.2130   -8.5010 O.2     1  UNL1       -0.2870
     10  C         19.5590  -23.3560   -7.3690 C.2     1  UNL1        0.0180
     11  C         19.7550  -22.0340   -6.9350 C.2     1  UNL1        0.0180
     12  C         18.9400  -21.4860   -5.9400 C.2     1  UNL1        0.0400
     13  C         17.9170  -22.2540   -5.3860 C.2     1  UNL1        0.1020
     14  C         17.7130  -23.5740   -5.8150 C.2     1  UNL1        0.1030
     15  O         17.1570  -21.6500   -4.4140 O.2     1  UNL1       -0.3460
     16  C         18.5170  -24.1160   -6.8160 C.2     1  UNL1        0.0550
     17  O         16.7390  -24.3930   -5.2940 O.2     1  UNL1       -0.3460
     18  C         16.2550  -23.8810   -4.0500 C.3     1  UNL1        0.2020
     19  C         15.9590  -22.3920   -4.1590 C.3     1  UNL1        0.2020
     20  C         19.5230  -22.0360  -10.8050 C.2     1  UNL1       -0.0280
     21  C         19.4780  -20.8250  -11.5190 C.2     1  UNL1        0.0100
     22  C         18.2590  -20.2050  -11.8040 C.2     1  UNL1        0.0030
     23  C         17.0680  -20.7890  -11.3830 C.2     1  UNL1        0.0370
     24  C         17.1030  -21.9970  -10.6900 C.2     1  UNL1        0.0690
     25  C         18.3160  -22.6110  -10.3800 C.2     1  UNL1        0.0460
     26  O         15.9110  -22.5260  -10.2710 O.2     1  UNL1       -0.3480
     27  C         16.0670  -23.1150   -8.9670 C.3     1  UNL1        0.2020
     28  C         15.3590  -24.4420   -8.8970 C.2     1  UNL1       -0.0110
     29  C         14.8140  -25.1280   -9.9110 C.2     1  UNL1        0.0090
     30  C         22.2420  -21.6690  -12.4290 C.3     1  UNL1        0.1290
     31  C         23.5900  -22.2700  -12.8340 C.3     1  UNL1        0.0400
     32  C         24.1880  -21.6020  -14.0600 C.3     1  UNL1        0.1310
     33  N         25.2150  -20.6110  -13.7190 N.pl3   1  UNL1       -0.3520
     34  C         26.0840  -20.6710  -12.6370 C.2     1  UNL1        0.1080
     35  C         26.8700  -19.5550  -12.6930 C.2     1  UNL1        0.1060
     36  N         26.4590  -18.8530  -13.7970 N.pl3   1  UNL1       -0.3610
     37  C         25.4910  -19.5110  -14.4420 C.3     1  UNL1        0.1820
     38  H         26.9090  -18.0190  -14.1720 H       1  UNL1        0.1660
@<TRIPOS>BOND
     1    37    36    1
     2    37    33    1
     3    38    36    1
     4    32    33    1
     5    32    31    1
     6    36    35    1
     7    33    34    1
     8    31    30    1
     9    35    34    2
    10    30     7    1
    11    22    21    1
    12    22    23    2
    13    21    20    2
    14    23    24    1
    15     7     1    1
    16     7     5   am
    17    20     1    1
    18    20    25    1
    19    24    25    2
    20    24    26    1
    21     1     2    1
    22    26    27    1
    23     6     5    2
    24     5     3    1
    25    29    28    2
    26     2     3    1
    27     2     8    1
    28    27    28    1
    29     3     4    2
    30     9     8    2
    31     8    10    1
    32    10    11    2
    33    10    16    1
    34    11    12    1
    35    16    14    2
    36    12    13    2
    37    14    13    1
    38    14    17    1
    39    13    15    1
    40    17    18    1
    41    15    19    1
    42    19    18    1
