@<TRIPOS>MOLECULE
26167_out_ligand_01.pdbqt
 35 38 0 0 0
SMALL
GASTEIGER

@<TRIPOS>ATOM
      1  C         21.5140  -23.5610   -9.5070 C.2     1  UNL1        0.2770
      2  O         22.0820  -24.4940   -8.9690 O.2     1  UNL1       -0.2660
      3  N         22.0350  -22.5870  -10.3340 N.am    1  UNL1       -0.3220
      4  H         21.3970  -21.8220  -10.5350 H       1  UNL1        0.1690
      5  C         23.3490  -22.4810  -10.8180 C.2     1  UNL1        0.0360
      6  C         24.1390  -21.4500  -10.2900 C.2     1  UNL1        0.0290
      7  C         25.4590  -21.2720  -10.7090 C.2     1  UNL1        0.0040
      8  C         26.0020  -22.1210  -11.6680 C.2     1  UNL1        0.0250
      9  C         25.2100  -23.1320  -12.2170 C.2     1  UNL1        0.0820
     10  C         23.8910  -23.3270  -11.7850 C.2     1  UNL1        0.0540
     11  S         25.9190  -24.2400  -13.4090 S.O2    1  UNL1        0.2640
     12  O         24.8860  -25.0760  -13.9800 O.2     1  UNL1       -0.2000
     13  O         27.0860  -24.8390  -12.7920 O.2     1  UNL1       -0.2000
     14  N         26.5330  -23.2300  -14.5820 N.3     1  UNL1       -0.2680
     15  H         27.4560  -22.8890  -14.3380 H       1  UNL1        0.1800
     16  C         25.9860  -22.9870  -15.8380 C.3     1  UNL1        0.1080
     17  N         26.6520  -23.0320  -16.9420 N.3     1  UNL1       -0.2760
     18  C         25.6800  -22.6700  -17.9920 C.3     1  UNL1        0.1510
     19  C         24.3080  -22.9260  -17.3900 C.3     1  UNL1        0.0290
     20  C         24.5300  -22.6520  -15.9250 C.3     1  UNL1        0.0800
     21  C         20.0180  -23.3500   -9.2700 C.ar    1  UNL1        0.1560
     22  N         19.5290  -23.9580   -8.2280 N.ar    1  UNL1       -0.1630
     23  N         18.1960  -23.8120   -7.9370 N.ar    1  UNL1       -0.2330
     24  C         17.3020  -23.0730   -8.7090 C.ar    1  UNL1        0.2740
     25  C         17.8700  -22.3600   -9.8700 C.ar    1  UNL1        0.0460
     26  O         16.0990  -22.9840   -8.4700 O.2     1  UNL1       -0.2660
     27  C         17.0450  -21.5550  -10.6660 C.2     1  UNL1        0.0180
     28  C         19.2260  -22.4800  -10.1570 C.ar    1  UNL1        0.0160
     29  C         17.5820  -20.8640  -11.7490 C.2     1  UNL1        0.0010
     30  C         18.9410  -20.9690  -12.0310 C.2     1  UNL1        0.0010
     31  C         19.7650  -21.7720  -11.2340 C.2     1  UNL1        0.0150
     32  C         17.6980  -24.5850   -6.8000 C.3     1  UNL1        0.1550
     33  C         18.0020  -23.8840   -5.4740 C.3     1  UNL1        0.0220
     34  C         17.5830  -22.4140   -5.4530 C.3     1  UNL1       -0.0030
     35  C         18.7560  -21.4470   -5.4880 C.3     1  UNL1        0.0050
@<TRIPOS>BOND
     1    18    19    1
     2    18    17    1
     3    19    20    1
     4    17    16    1
     5    20    16    1
     6    16    14    1
     7    14    15    1
     8    14    11    1
     9    12    11    2
    10    11    13    2
    11    11     9    1
    12     9    10    1
    13     9     8    2
    14    30    29    2
    15    30    31    1
    16    10     5    2
    17    29    27    1
    18     8     7    1
    19    31    28    2
    20     5     3    1
    21     5     6    1
    22     7     6    2
    23    27    25    2
    24     4     3    1
    25     3     1   am
    26    28    25   ar
    27    28    21   ar
    28    25    24   ar
    29     1    21    1
    30     1     2    2
    31    21    22   ar
    32    24    26    2
    33    24    23   ar
    34    22    23   ar
    35    23    32    1
    36    32    33    1
    37    35    34    1
    38    33    34    1
