@<TRIPOS>MOLECULE
26737_out_ligand_01.pdbqt
 32 35 0 0 0
SMALL
GASTEIGER

@<TRIPOS>ATOM
      1  C         24.1710  -21.7230  -10.4530 C.ar    1  UNL1        0.7260
      2  N         25.2050  -20.9240  -10.6540 N.ar    1  UNL1       -0.0420
      3  C         25.1470  -20.5770  -11.9630 C.ar    1  UNL1        0.1860
      4  C         24.0930  -21.1640  -12.5990 C.ar    1  UNL1        0.1670
      5  C         23.8140  -20.9350  -13.9730 C.ar    1  UNL1        0.2800
      6  O         22.8570  -21.3920  -14.5890 O.2     1  UNL1       -0.2650
      7  N         24.7370  -20.1060  -14.5690 N.ar    1  UNL1       -0.2730
      8  C         25.8130  -19.4780  -13.9680 C.ar    1  UNL1        0.3300
      9  O         26.5220  -18.7350  -14.6470 O.2     1  UNL1       -0.2460
     10  N         26.0190  -19.7330  -12.6180 N.ar    1  UNL1       -0.2860
     11  C         27.1210  -19.1160  -11.9040 C.3     1  UNL1        0.1630
     12  N         23.4850  -21.9360  -11.6410 N.ar    1  UNL1       -0.1660
     13  H         24.5950  -19.8930  -15.5440 H       1  UNL1        0.1730
     14  N         23.7850  -22.3090   -9.2820 N.pl3   1  UNL1       -0.1070
     15  H         24.0330  -23.2870   -9.1520 H       1  UNL1        0.2080
     16  N         22.6410  -21.9970   -8.5950 N.2     1  UNL1       -0.1720
     17  C         21.8150  -22.9760   -8.3880 C.2     1  UNL1        0.1500
     18  C         20.5580  -22.7950   -7.6370 C.2     1  UNL1       -0.0170
     19  C         20.3320  -21.6440   -6.8770 C.2     1  UNL1        0.0130
     20  C         19.1320  -21.4990   -6.1770 C.2     1  UNL1        0.0070
     21  C         18.1490  -22.4930   -6.2390 C.2     1  UNL1       -0.0620
     22  C         16.8740  -22.3500   -5.4590 C.3     1  UNL1        0.0480
     23  C         18.3920  -23.6510   -6.9920 C.2     1  UNL1        0.0070
     24  C         19.5900  -23.8000   -7.6930 C.2     1  UNL1        0.0130
     25  C         22.3520  -22.8210  -11.8600 C.3     1  UNL1        0.1860
     26  C         21.0360  -22.1200  -11.6150 C.2     1  UNL1       -0.0380
     27  C         20.9080  -20.7460  -11.8680 C.2     1  UNL1        0.0090
     28  C         19.6950  -20.0880  -11.6490 C.2     1  UNL1        0.0020
     29  C         18.5940  -20.7960  -11.1700 C.2     1  UNL1        0.0240
     30  C         18.7110  -22.1580  -10.9130 C.2     1  UNL1        0.0340
     31 CL         17.3530  -23.0340  -10.3200 Cl      1  UNL1       -0.0840
     32  C         19.9200  -22.8210  -11.1300 C.2     1  UNL1        0.0320
@<TRIPOS>BOND
     1    13     7    1
     2     9     8    2
     3     6     5    2
     4     7     5   ar
     5     7     8   ar
     6     5     4   ar
     7     8    10   ar
     8    10     3   ar
     9    10    11    1
    10     4     3   ar
    11     4    12   ar
    12     3     2   ar
    13    27    28    1
    14    27    26    2
    15    25    12    1
    16    25    26    1
    17    28    29    2
    18    12     1   ar
    19    26    32    1
    20    29    30    1
    21    32    30    2
    22    30    31    1
    23     2     1   ar
    24     1    14    1
    25    14    15    1
    26    14    16    1
    27    16    17    2
    28    17    18    1
    29    24    18    2
    30    24    23    1
    31    18    19    1
    32    23    21    2
    33    19    20    2
    34    21    20    1
    35    21    22    1
