@<TRIPOS>MOLECULE
26745_out_ligand_01.pdbqt
 34 37 0 0 0
SMALL
GASTEIGER

@<TRIPOS>ATOM
      1  C         24.1890  -21.8070  -10.4670 C.ar    1  UNL1        0.7260
      2  N         25.2310  -21.0060  -10.6260 N.ar    1  UNL1       -0.0420
      3  C         25.2030  -20.6310  -11.9300 C.ar    1  UNL1        0.1860
      4  C         24.1650  -21.2050  -12.6040 C.ar    1  UNL1        0.1670
      5  C         23.9320  -20.9640  -13.9890 C.ar    1  UNL1        0.2800
      6  O         22.9840  -21.3950  -14.6350 O.2     1  UNL1       -0.2650
      7  N         24.8830  -20.1450  -14.5530 N.ar    1  UNL1       -0.2730
      8  C         25.9020  -19.4770  -13.8960 C.ar    1  UNL1        0.3300
      9  O         26.5800  -18.6590  -14.5190 O.2     1  UNL1       -0.2460
     10  N         26.0870  -19.7730  -12.5480 N.ar    1  UNL1       -0.2860
     11  C         27.1210  -19.0900  -11.7960 C.3     1  UNL1        0.1630
     12  N         23.5030  -21.9580  -11.6650 N.ar    1  UNL1       -0.1660
     13  H         24.7450  -19.8890  -15.5220 H       1  UNL1        0.1730
     14  N         23.7960  -22.4430   -9.3240 N.pl3   1  UNL1       -0.1070
     15  H         24.5260  -22.7760   -8.7080 H       1  UNL1        0.2080
     16  N         22.6720  -22.1120   -8.6120 N.2     1  UNL1       -0.1720
     17  C         21.8360  -23.0710   -8.3690 C.2     1  UNL1        0.1500
     18  C         20.5500  -22.8180   -7.6810 C.2     1  UNL1       -0.0170
     19  C         19.4880  -23.7160   -7.7930 C.2     1  UNL1        0.0150
     20  C         18.2940  -23.4710   -7.1080 C.2     1  UNL1        0.0370
     21  C         18.1580  -22.3390   -6.3020 C.2     1  UNL1        0.0680
     22  C         19.2150  -21.4340   -6.2060 C.2     1  UNL1        0.0370
     23  C         20.4150  -21.6730   -6.8950 C.2     1  UNL1        0.0150
     24  O         16.9440  -22.2300   -5.6760 O.2     1  UNL1       -0.3520
     25  C         15.7920  -22.6220   -6.4300 C.3     1  UNL1        0.1710
     26  C         14.5570  -22.2860   -5.6050 C.3     1  UNL1        0.0340
     27  C         22.3610  -22.8330  -11.9210 C.3     1  UNL1        0.1860
     28  C         21.0400  -22.1220  -11.7040 C.2     1  UNL1       -0.0390
     29  C         20.9240  -20.7440  -11.9570 C.2     1  UNL1        0.0120
     30  C         19.7060  -20.0870  -11.7550 C.2     1  UNL1        0.0430
     31  C         18.6060  -20.7990  -11.2900 C.2     1  UNL1        0.1160
     32  F         17.4480  -20.1610  -11.0870 F       1  UNL1       -0.2060
     33  C         18.7010  -22.1580  -11.0220 C.2     1  UNL1        0.0430
     34  C         19.9170  -22.8180  -11.2250 C.2     1  UNL1        0.0120
@<TRIPOS>BOND
     1    13     7    1
     2     6     5    2
     3     7     5   ar
     4     7     8   ar
     5     9     8    2
     6     5     4   ar
     7     8    10   ar
     8     4     3   ar
     9     4    12   ar
    10    10     3   ar
    11    10    11    1
    12    29    30    1
    13    29    28    2
    14     3     2   ar
    15    27    28    1
    16    27    12    1
    17    30    31    2
    18    28    34    1
    19    12     1   ar
    20    31    32    1
    21    31    33    1
    22    34    33    2
    23     2     1   ar
    24     1    14    1
    25    14    15    1
    26    14    16    1
    27    16    17    2
    28    17    18    1
    29    19    18    2
    30    19    20    1
    31    18    23    1
    32    20    21    2
    33    23    22    2
    34    25    24    1
    35    25    26    1
    36    21    22    1
    37    21    24    1
