@<TRIPOS>MOLECULE
27096_out_ligand_01.pdbqt
 40 43 0 0 0
SMALL
GASTEIGER

@<TRIPOS>ATOM
      1  C         20.1680  -22.5720  -10.0850 C.2     1  UNL1        0.0320
      2  C         21.1010  -23.3440   -9.3790 C.2     1  UNL1        0.0190
      3  C         22.3900  -23.5290   -9.8860 C.2     1  UNL1        0.0310
      4  C         22.7480  -22.9460  -11.1000 C.2     1  UNL1        0.0420
      5  C         21.8170  -22.1970  -11.8220 C.2     1  UNL1        0.0310
      6  C         20.5270  -22.0080  -11.3160 C.2     1  UNL1        0.0190
      7  C         18.8060  -22.4020   -9.5070 C.2     1  UNL1        0.2520
      8  N         17.7740  -22.9930  -10.2000 N.am    1  UNL1       -0.3480
      9  H         17.9350  -23.3010  -11.1510 H       1  UNL1        0.1630
     10  O         18.6460  -21.7460   -8.4870 O.2     1  UNL1       -0.2680
     11  C         16.3800  -22.7930   -9.8090 C.3     1  UNL1        0.2260
     12  C         16.0810  -23.4370   -8.4480 C.2     1  UNL1        0.2390
     13  N         16.2510  -22.5440   -7.4000 N.am    1  UNL1       -0.3250
     14  H         16.2240  -21.5790   -7.7100 H       1  UNL1        0.1690
     15  O         15.6380  -24.5780   -8.3720 O.2     1  UNL1       -0.2710
     16  C         16.0750  -22.7740   -6.0170 C.2     1  UNL1        0.0460
     17  C         14.9660  -22.3140   -5.2740 C.2     1  UNL1       -0.0350
     18  C         14.9170  -22.5660   -3.8870 C.2     1  UNL1        0.0090
     19  C         13.7810  -21.5940   -5.8580 C.3     1  UNL1        0.0500
     20  C         15.9030  -23.3090   -3.2510 C.2     1  UNL1        0.0010
     21  C         16.9590  -23.8220   -3.9900 C.2     1  UNL1        0.0090
     22  C         17.0560  -23.5720   -5.3710 C.2     1  UNL1       -0.0350
     23  C         18.2470  -24.1390   -6.1000 C.3     1  UNL1        0.0500
     24  N         24.0430  -23.1690  -11.6380 N.pl3   1  UNL1       -0.2810
     25  H         24.4230  -24.1130  -11.5730 H       1  UNL1        0.1790
     26  S         25.2480  -22.0290  -11.2980 S.O2    1  UNL1        0.2630
     27  O         26.4720  -22.7830  -11.1280 O.2     1  UNL1       -0.2000
     28  O         24.7790  -21.1210  -10.2750 O.2     1  UNL1       -0.2000
     29  C         25.3840  -21.1460  -12.8330 C.2     1  UNL1        0.0820
     30  C         24.8120  -21.7140  -14.0000 C.2     1  UNL1        0.0280
     31  C         24.9060  -21.0540  -15.2310 C.2     1  UNL1        0.0330
     32  C         25.5760  -19.8540  -15.2380 C.ar    1  UNL1        0.0630
     33  N         25.8280  -18.9850  -16.2930 N.ar    1  UNL1       -0.3070
     34  C         26.1470  -19.3080  -14.0870 C.ar    1  UNL1        0.0640
     35  C         26.5610  -17.8900  -15.8120 C.ar    1  UNL1        0.3250
     36  H         25.5600  -19.0930  -17.2580 H       1  UNL1        0.1700
     37  O         26.9560  -16.9370  -16.4600 O.2     1  UNL1       -0.2470
     38  N         26.7480  -18.1040  -14.4370 N.ar    1  UNL1       -0.3060
     39  H         27.2500  -17.4690  -13.8380 H       1  UNL1        0.1700
     40  C         26.0760  -19.9280  -12.8640 C.2     1  UNL1        0.0570
@<TRIPOS>BOND
     1    36    33    1
     2    37    35    2
     3    33    35   ar
     4    33    32   ar
     5    35    38   ar
     6    32    31    2
     7    32    34   ar
     8    31    30    1
     9    38    34   ar
    10    38    39    1
    11    34    40    2
    12    30    29    2
    13    40    29    1
    14    29    26    1
    15     5     6    1
    16     5     4    2
    17    24    25    1
    18    24    26    1
    19    24     4    1
    20     6     1    2
    21    26    27    2
    22    26    28    2
    23     9     8    1
    24     4     3    1
    25     8    11    1
    26     8     7   am
    27     1     7    1
    28     1     2    1
    29     3     2    2
    30    11    12    1
    31     7    10    2
    32    12    15    2
    33    12    13   am
    34    14    13    1
    35    13    16    1
    36    23    22    1
    37    16    22    2
    38    16    17    1
    39    19    17    1
    40    22    21    1
    41    17    18    2
    42    21    20    2
    43    18    20    1
