@<TRIPOS>MOLECULE
27711_out_ligand_01.pdbqt
 34 36 0 0 0
SMALL
GASTEIGER

@<TRIPOS>ATOM
      1  C         20.9950  -22.8950  -10.6590 C.2     1  UNL1        0.0240
      2  C         21.0020  -21.8100  -11.5290 C.2     1  UNL1        0.0260
      3  C         19.8350  -21.0690  -11.7230 C.2     1  UNL1        0.0260
      4  C         18.6520  -21.4150  -11.0570 C.2     1  UNL1        0.0490
      5 CL         17.2900  -20.3860  -11.3300 Cl      1  UNL1       -0.0830
      6  C         18.6330  -22.5260  -10.2010 C.2     1  UNL1        0.0550
      7  C         19.8190  -23.2610  -10.0070 C.2     1  UNL1        0.0430
      8  C         17.4470  -23.0050   -9.4380 C.2     1  UNL1        0.2530
      9  O         16.3330  -22.5680   -9.7130 O.2     1  UNL1       -0.2680
     10  N         17.6620  -23.8920   -8.4150 N.am    1  UNL1       -0.3530
     11  H         18.6030  -24.1970   -8.1950 H       1  UNL1        0.1630
     12  C         16.5750  -24.3870   -7.6060 C.3     1  UNL1        0.1610
     13  C         16.4870  -23.6260   -6.3100 C.2     1  UNL1       -0.0400
     14  C         15.3270  -23.6750   -5.5290 C.2     1  UNL1        0.0090
     15  C         15.2400  -22.9410   -4.3450 C.2     1  UNL1        0.0010
     16  C         16.3110  -22.1470   -3.9340 C.2     1  UNL1        0.0160
     17  C         17.4840  -22.0810   -4.6990 C.2     1  UNL1        0.0480
     18  C         17.5570  -22.8180   -5.8930 C.2     1  UNL1        0.0250
     19  C         18.6340  -21.2000   -4.2730 C.3     1  UNL1        0.4170
     20  F         18.2540  -19.9210   -3.9930 F       1  UNL1       -0.1660
     21  F         19.5950  -21.1020   -5.2320 F       1  UNL1       -0.1660
     22  F         19.2650  -21.6510   -3.1530 F       1  UNL1       -0.1660
     23  N         22.1840  -23.6710  -10.4790 N.pl3   1  UNL1       -0.1810
     24  H         22.5800  -23.9800  -11.3690 H       1  UNL1        0.1460
     25  S         23.4130  -22.8780   -9.5990 S.O2    1  UNL1        0.2450
     26  O         24.1500  -23.8470   -8.8180 O.2     1  UNL1       -0.2060
     27  O         22.8080  -21.7100   -9.0000 O.2     1  UNL1       -0.2060
     28  C         24.4640  -22.3440  -10.9260 C.2     1  UNL1        0.0740
     29  C         25.2260  -21.1830  -10.7600 C.2     1  UNL1        0.0250
     30  C         26.0620  -20.7590  -11.7920 C.2     1  UNL1        0.0080
     31  C         26.1480  -21.4910  -12.9840 C.2     1  UNL1       -0.0620
     32  C         27.0260  -21.0160  -14.1060 C.3     1  UNL1        0.0480
     33  C         25.3600  -22.6400  -13.1440 C.2     1  UNL1        0.0080
     34  C         24.5190  -23.0700  -12.1160 C.2     1  UNL1        0.0250
@<TRIPOS>BOND
     1    32    31    1
     2    33    31    2
     3    33    34    1
     4    31    30    1
     5    34    28    2
     6    30    29    2
     7     3     2    1
     8     3     4    2
     9     2     1    2
    10    24    23    1
    11     5     4    1
    12     4     6    1
    13    28    29    1
    14    28    25    1
    15     1    23    1
    16     1     7    1
    17    23    25    1
    18     6     7    2
    19     6     8    1
    20     9     8    2
    21    25    27    2
    22    25    26    2
    23     8    10   am
    24    10    11    1
    25    10    12    1
    26    12    13    1
    27    13    18    2
    28    13    14    1
    29    18    17    1
    30    14    15    2
    31    21    19    1
    32    17    19    1
    33    17    16    2
    34    15    16    1
    35    19    20    1
    36    19    22    1
