@<TRIPOS>MOLECULE
27831_out_ligand_01.pdbqt
 37 40 0 0 0
SMALL
GASTEIGER

@<TRIPOS>ATOM
      1  C         21.1060  -22.1980  -11.4140 C.2     1  UNL1        0.0330
      2  C         20.3700  -21.2350  -12.1070 C.2     1  UNL1        0.0170
      3  C         19.0570  -20.9490  -11.7250 C.2     1  UNL1        0.0090
      4  C         18.4500  -21.6240  -10.6510 C.2     1  UNL1       -0.0390
      5  C         17.0390  -21.2540  -10.2840 C.3     1  UNL1        0.0500
      6  C         19.2030  -22.5960   -9.9590 C.2     1  UNL1        0.0810
      7  C         20.5210  -22.8850  -10.3460 C.2     1  UNL1        0.0420
      8  C         22.5000  -22.5370  -11.7960 C.2     1  UNL1        0.2520
      9  N         22.9710  -21.9520  -12.9480 N.am    1  UNL1       -0.3480
     10  H         22.3990  -21.2980  -13.4630 H       1  UNL1        0.1630
     11  O         23.1650  -23.2830  -11.0880 O.2     1  UNL1       -0.2680
     12  C         24.3140  -22.2140  -13.4500 C.3     1  UNL1        0.1230
     13  C         24.2810  -22.2770  -14.9780 C.3     1  UNL1        0.0680
     14  C         25.6930  -22.2090  -15.5880 C.3     1  UNL1        0.0690
     15  O         26.3580  -20.9960  -15.1680 O.2     1  UNL1       -0.3400
     16  C         26.2310  -20.6280  -13.8590 C.2     1  UNL1        0.0780
     17  C         27.1200  -19.6400  -13.4260 C.2     1  UNL1        0.0370
     18  C         25.2880  -21.1650  -12.9800 C.2     1  UNL1       -0.0020
     19  C         27.1040  -19.2090  -12.1010 C.2     1  UNL1        0.0030
     20  C         26.2010  -19.7700  -11.2030 C.2     1  UNL1        0.0010
     21  C         25.3040  -20.7470  -11.6370 C.2     1  UNL1        0.0120
     22  C         26.5540  -23.4370  -15.1890 C.3     1  UNL1        0.0340
     23  C         25.7700  -24.7300  -14.9860 C.3     1  UNL1        0.0080
     24  C         25.5750  -22.0590  -17.1310 C.3     1  UNL1        0.0340
     25  C         24.5140  -22.9160  -17.8070 C.3     1  UNL1        0.0080
     26  S         18.5450  -23.4710   -8.5450 S.O2    1  UNL1        0.2460
     27  O         19.5630  -24.3910   -8.0860 O.2     1  UNL1       -0.2060
     28  O         17.2120  -23.9230   -8.8810 O.2     1  UNL1       -0.2060
     29  N         18.3470  -22.1880   -7.4350 N.pl3   1  UNL1       -0.1810
     30  H         18.0600  -21.3680   -7.9780 H       1  UNL1        0.1460
     31  C         17.3860  -22.4640   -6.4040 C.2     1  UNL1        0.0230
     32  C         17.7860  -23.0890   -5.2230 C.2     1  UNL1        0.0240
     33  C         16.8560  -23.2990   -4.2020 C.2     1  UNL1        0.0020
     34  C         15.5350  -22.8760   -4.3590 C.2     1  UNL1        0.0070
     35  C         15.1310  -22.2370   -5.5390 C.2     1  UNL1       -0.0600
     36  C         13.7270  -21.7320   -5.6990 C.3     1  UNL1        0.0480
     37  C         16.0700  -22.0230   -6.5550 C.2     1  UNL1        0.0310
@<TRIPOS>BOND
     1    25    24    1
     2    24    14    1
     3    14    22    1
     4    14    15    1
     5    14    13    1
     6    22    23    1
     7    15    16    1
     8    13    12    1
     9    16    17    2
    10    16    18    1
    11    10     9    1
    12    12    18    1
    13    12     9    1
    14    17    19    1
    15    18    21    2
    16     9     8   am
    17     2     3    1
    18     2     1    2
    19    19    20    2
    20     8     1    1
    21     8    11    2
    22     3     4    2
    23    21    20    1
    24     1     7    1
    25     4     5    1
    26     4     6    1
    27     7     6    2
    28     6    26    1
    29    28    26    2
    30    26    27    2
    31    26    29    1
    32    30    29    1
    33    29    31    1
    34    37    31    2
    35    37    35    1
    36    31    32    1
    37    36    35    1
    38    35    34    2
    39    32    33    2
    40    34    33    1
