@<TRIPOS>MOLECULE
27986_out_ligand_01.pdbqt
 32 35 0 0 0
SMALL
GASTEIGER

@<TRIPOS>ATOM
      1  N         20.1690  -23.5500   -9.4850 N.ar    1  UNL1       -0.2740
      2  C         21.5100  -23.6310   -9.8080 C.ar    1  UNL1        0.3330
      3  O         22.2890  -24.3420   -9.1730 O.2     1  UNL1       -0.2460
      4  N         21.9390  -22.8710  -10.8900 N.ar    1  UNL1       -0.2650
      5  C         21.1450  -21.9730  -11.5870 C.ar    1  UNL1        0.2650
      6  O         21.5540  -21.2280  -12.4720 O.2     1  UNL1       -0.2670
      7  C         19.7320  -21.9200  -11.2110 C.ar    1  UNL1        0.0780
      8  C         18.8380  -21.0800  -11.8820 C.2     1  UNL1        0.0220
      9  C         17.5060  -21.0520  -11.4900 C.2     1  UNL1        0.0200
     10  C         17.1260  -21.8570  -10.4330 C.2     1  UNL1        0.1190
     11  N         17.9780  -22.6640   -9.7570 N.2     1  UNL1       -0.2420
     12  C         19.2760  -22.7030  -10.1680 C.ar    1  UNL1        0.1490
     13  C         19.6700  -24.3480   -8.3620 C.3     1  UNL1        0.2380
     14  C         18.9920  -23.4820   -7.2920 C.2     1  UNL1        0.2400
     15  N         17.7490  -23.9690   -6.9190 N.am    1  UNL1       -0.3260
     16  H         17.4570  -24.8250   -7.3880 H       1  UNL1        0.1690
     17  O         19.5510  -22.4930   -6.8280 O.2     1  UNL1       -0.2710
     18  C         16.8430  -23.4240   -5.9900 C.2     1  UNL1        0.0350
     19  C         17.1400  -23.6000   -4.6330 C.2     1  UNL1        0.0290
     20  C         16.2970  -23.0880   -3.6460 C.2     1  UNL1        0.0030
     21  C         15.1410  -22.3980   -4.0070 C.2     1  UNL1        0.0070
     22  C         14.8170  -22.2270   -5.3560 C.2     1  UNL1       -0.0600
     23  C         13.5900  -21.4600   -5.7540 C.3     1  UNL1        0.0480
     24  C         15.6810  -22.7320   -6.3420 C.2     1  UNL1        0.0360
     25  C         23.3580  -22.9330  -11.2430 C.3     1  UNL1        0.1420
     26  C         24.1570  -21.8150  -10.5640 C.3     1  UNL1        0.0590
     27  C         25.1580  -21.1960  -11.5070 C.2     1  UNL1       -0.0570
     28  C         26.1530  -20.3360  -11.0230 C.2     1  UNL1        0.0070
     29  C         27.0640  -19.7480  -11.9000 C.2     1  UNL1        0.0010
     30  C         26.9880  -20.0100  -13.2670 C.2     1  UNL1        0.0000
     31  C         25.9970  -20.8590  -13.7570 C.2     1  UNL1        0.0010
     32  C         25.0840  -21.4480  -12.8830 C.2     1  UNL1        0.0070
@<TRIPOS>BOND
     1    31    30    2
     2    31    32    1
     3    30    29    1
     4    32    27    2
     5     6     5    2
     6    29    28    2
     7     8     9    1
     8     8     7    2
     9     5     7   ar
    10     5     4   ar
    11    27    28    1
    12    27    26    1
    13     9    10    2
    14    25     4    1
    15    25    26    1
    16     7    12   ar
    17     4     2   ar
    18    10    11    1
    19    12    11    2
    20    12     1   ar
    21     2     1   ar
    22     2     3    2
    23     1    13    1
    24    13    14    1
    25    16    15    1
    26    14    15   am
    27    14    17    2
    28    15    18    1
    29    24    18    2
    30    24    22    1
    31    18    19    1
    32    23    22    1
    33    22    21    2
    34    19    20    2
    35    21    20    1
