@<TRIPOS>MOLECULE
28132_out_ligand_01.pdbqt
 33 37 0 0 0
SMALL
GASTEIGER

@<TRIPOS>ATOM
      1  C         21.9780  -21.7400  -12.2660 C.2     1  UNL1        0.0320
      2  C         22.1580  -22.7020  -11.2670 C.2     1  UNL1        0.0180
      3  C         21.1150  -22.9830  -10.3810 C.2     1  UNL1        0.0150
      4  C         19.9000  -22.2930  -10.4830 C.2     1  UNL1       -0.0070
      5  C         19.7390  -21.3100  -11.4680 C.2     1  UNL1        0.0150
      6  C         20.7790  -21.0280  -12.3550 C.2     1  UNL1        0.0180
      7  C         18.8140  -22.5880   -9.5660 C.ar    1  UNL1        0.0690
      8  N         17.6230  -23.0980   -9.9840 N.ar    1  UNL1       -0.2760
      9  N         16.7430  -23.2930   -9.0020 N.ar    1  UNL1       -0.1730
     10  H         17.3480  -23.3330  -10.9310 H       1  UNL1        0.1890
     11  C         17.3640  -22.8810   -7.8800 C.ar    1  UNL1        0.0960
     12  C         18.6940  -22.4340   -8.1920 C.ar    1  UNL1        0.0020
     13  C         16.6490  -22.9460   -6.5890 C.2     1  UNL1        0.0010
     14  C         19.7640  -21.8900   -7.3100 C.3     1  UNL1        0.0440
     15  C         19.5280  -22.0280   -5.8160 C.3     1  UNL1        0.0090
     16  C         18.2460  -21.3300   -5.3760 C.3     1  UNL1        0.0400
     17  C         17.0400  -22.2350   -5.4350 C.2     1  UNL1       -0.0450
     18  C         16.2570  -22.3410   -4.2630 C.2     1  UNL1        0.0080
     19  C         15.1210  -23.1450   -4.2160 C.2     1  UNL1        0.0010
     20  C         14.7400  -23.8580   -5.3410 C.2     1  UNL1        0.0010
     21  C         15.4940  -23.7560   -6.5100 C.2     1  UNL1        0.0140
     22  C         23.0740  -21.4050  -13.2000 C.2     1  UNL1        0.2530
     23  N         24.3870  -21.4040  -12.7340 N.am    1  UNL1       -0.3520
     24  C         24.8010  -21.8210  -11.3990 C.3     1  UNL1        0.1520
     25  O         22.7670  -21.1260  -14.3570 O.2     1  UNL1       -0.2670
     26  C         25.4290  -20.8580  -13.6110 C.3     1  UNL1        0.1310
     27  C         26.2130  -21.9230  -14.3860 C.3     1  UNL1        0.0790
     28  C         25.6040  -22.2370  -15.7280 C.2     1  UNL1        0.0350
     29  C         25.7940  -21.3760  -16.8090 C.2     1  UNL1        0.0270
     30  C         25.2190  -21.6990  -18.0350 C.2     1  UNL1        0.0030
     31  C         24.4680  -22.8640  -18.1500 C.2     1  UNL1        0.0190
     32  C         24.3180  -23.6580  -17.0260 C.2     1  UNL1        0.1170
     33  N         24.8690  -23.3740  -15.8250 N.2     1  UNL1       -0.2660
@<TRIPOS>BOND
     1    31    30    2
     2    31    32    1
     3    30    29    1
     4    32    33    2
     5    29    28    2
     6    33    28    1
     7    28    27    1
     8    27    26    1
     9    25    22    2
    10    26    23    1
    11    22    23   am
    12    22     1    1
    13    23    24    1
    14     6     1    2
    15     6     5    1
    16     1     2    1
    17     5     4    2
    18     2     3    2
    19    10     8    1
    20     4     3    1
    21     4     7    1
    22     8     7   ar
    23     8     9   ar
    24     7    12   ar
    25     9    11   ar
    26    12    11   ar
    27    12    14    1
    28    11    13    1
    29    14    15    1
    30    13    21    2
    31    13    17    1
    32    21    20    1
    33    15    16    1
    34    17    16    1
    35    17    18    2
    36    20    19    2
    37    18    19    1
