@<TRIPOS>MOLECULE
28148_out_ligand_01.pdbqt
 38 41 0 0 0
SMALL
GASTEIGER

@<TRIPOS>ATOM
      1  N         22.9360  -22.9040  -11.1520 N.3     1  UNL1        0.1040
      2  C         22.2290  -21.9720  -12.0570 C.3     1  UNL1        0.3590
      3  C         20.8230  -21.5790  -11.7060 C.2     1  UNL1        0.1740
      4  O         20.5590  -20.2340  -11.7320 O.2     1  UNL1       -0.3030
      5  C         19.2510  -20.1430  -11.3710 C.2     1  UNL1        0.1810
      6  C         18.7610  -21.4130  -11.1520 C.2     1  UNL1        0.1490
      7  N         19.7800  -22.3240  -11.3850 N.2     1  UNL1       -0.2190
      8  C         17.4180  -21.7980  -10.7160 C.2     1  UNL1        0.2720
      9  O         16.4020  -21.2710  -11.1600 O.2     1  UNL1       -0.2660
     10  N         17.3730  -22.7920   -9.7510 N.am    1  UNL1       -0.3550
     11  H         18.2050  -22.9270   -9.1990 H       1  UNL1        0.1620
     12  C         16.1050  -23.1630   -9.1450 C.3     1  UNL1        0.1290
     13  C         16.2960  -24.1820   -8.0260 C.3     1  UNL1        0.0790
     14  C         15.8460  -23.6270   -6.7040 C.2     1  UNL1        0.0350
     15  C         15.0830  -22.4590   -6.6430 C.2     1  UNL1        0.0270
     16  C         14.7000  -21.9720   -5.3970 C.2     1  UNL1        0.0030
     17  C         15.0910  -22.6570   -4.2480 C.2     1  UNL1        0.0190
     18  C         15.8540  -23.8020   -4.3980 C.2     1  UNL1        0.1170
     19  N         16.2390  -24.3010   -5.5940 N.2     1  UNL1       -0.2660
     20  C         22.9110  -22.4290   -9.7600 C.3     1  UNL1        0.3110
     21  C         21.7310  -22.9920   -8.9880 C.2     1  UNL1       -0.0290
     22  C         21.3250  -24.3200   -9.1730 C.2     1  UNL1        0.0090
     23  C         20.2450  -24.8340   -8.4580 C.2     1  UNL1        0.0010
     24  C         19.5590  -24.0280   -7.5510 C.2     1  UNL1        0.0160
     25  C         19.9440  -22.6960   -7.3480 C.2     1  UNL1        0.0480
     26  C         21.0380  -22.1900   -8.0650 C.2     1  UNL1        0.0250
     27  C         19.2010  -21.8350   -6.3560 C.3     1  UNL1        0.4170
     28  F         18.0690  -21.2720   -6.8630 F       1  UNL1       -0.1660
     29  F         19.9600  -20.7990   -5.8980 F       1  UNL1       -0.1660
     30  F         18.8070  -22.5240   -5.2490 F       1  UNL1       -0.1660
     31  C         24.3130  -23.1870  -11.5980 C.3     1  UNL1        0.3150
     32  C         25.0760  -21.9360  -11.9640 C.2     1  UNL1        0.0090
     33  C         25.6940  -21.1600  -10.9730 C.2     1  UNL1        0.0120
     34  C         26.3920  -19.9970  -11.3120 C.2     1  UNL1        0.0010
     35  C         26.4760  -19.5970  -12.6440 C.2     1  UNL1        0.0030
     36  C         25.8590  -20.3570  -13.6380 C.2     1  UNL1        0.0430
     37  C         25.1690  -21.5150  -13.2930 C.2     1  UNL1        0.1240
     38  F         24.5900  -22.2330  -14.2680 F       1  UNL1       -0.2050
@<TRIPOS>BOND
     1    38    37    1
     2    36    37    1
     3    36    35    2
     4    37    32    2
     5    35    34    1
     6     2     3    1
     7     2     1    1
     8    32    31    1
     9    32    33    1
    10     4     3    1
    11     4     5    1
    12     3     7    2
    13    31     1    1
    14     7     6    1
    15     5     6    2
    16    34    33    2
    17     9     8    2
    18     1    20    1
    19     6     8    1
    20     8    10   am
    21    20    21    1
    22    10    11    1
    23    10    12    1
    24    22    21    2
    25    22    23    1
    26    12    13    1
    27    21    26    1
    28    23    24    2
    29    26    25    2
    30    13    14    1
    31    24    25    1
    32    25    27    1
    33    28    27    1
    34    14    15    2
    35    14    19    1
    36    15    16    1
    37    27    29    1
    38    27    30    1
    39    19    18    2
    40    16    17    2
    41    18    17    1
