@<TRIPOS>MOLECULE
28165_out_ligand_01.pdbqt
 36 39 0 0 0
SMALL
GASTEIGER

@<TRIPOS>ATOM
      1  C         18.2210  -22.3330   -9.7520 C.2     1  UNL1        0.0580
      2  C         17.3420  -21.8300  -10.7300 C.2     1  UNL1        0.0190
      3  C         17.8210  -21.0790  -11.7970 C.2     1  UNL1        0.0010
      4  C         19.1830  -20.8170  -11.8930 C.2     1  UNL1        0.0020
      5  C         20.0670  -21.3280  -10.9380 C.2     1  UNL1        0.0300
      6  C         19.6210  -22.1120   -9.8560 C.2     1  UNL1        0.0460
      7  N         20.5370  -22.7100   -8.9630 N.pl3   1  UNL1       -0.3800
      8  C         21.0680  -23.9980   -9.4530 C.3     1  UNL1        0.1250
      9  C         22.2870  -23.7960  -10.3500 C.3     1  UNL1        0.0450
     10  C         23.1930  -22.6560   -9.8720 C.3     1  UNL1        0.0960
     11  C         22.9360  -22.3050   -8.4100 C.3     1  UNL1        0.0450
     12  C         21.4850  -21.8600   -8.2170 C.3     1  UNL1        0.1250
     13  N         24.5970  -23.0460  -10.0630 N.3     1  UNL1       -0.3100
     14  H         25.0540  -23.6710   -9.4010 H       1  UNL1        0.1720
     15  S         25.6400  -22.0630  -10.9290 S.O2    1  UNL1        0.2590
     16  O         26.9720  -22.5840  -10.7040 O.2     1  UNL1       -0.2010
     17  O         25.2960  -20.6860  -10.6490 O.2     1  UNL1       -0.2010
     18  C         25.1890  -22.4380  -12.6090 C.2     1  UNL1        0.0790
     19  C         24.4680  -21.5020  -13.3620 C.2     1  UNL1        0.0280
     20  C         24.1180  -21.8050  -14.6790 C.2     1  UNL1        0.0440
     21  C         24.5000  -23.0270  -15.2270 C.2     1  UNL1        0.1160
     22  F         24.1580  -23.3120  -16.4890 F       1  UNL1       -0.2060
     23  C         25.2320  -23.9540  -14.4880 C.2     1  UNL1        0.0440
     24  C         25.5850  -23.6600  -13.1700 C.2     1  UNL1        0.0280
     25  C         17.5760  -23.0550   -8.6080 C.2     1  UNL1        0.2540
     26  O         17.9680  -24.1650   -8.2630 O.2     1  UNL1       -0.2680
     27  N         16.5160  -22.4160   -8.0060 N.am    1  UNL1       -0.3530
     28  H         16.4070  -21.4290   -8.2340 H       1  UNL1        0.1630
     29  C         15.8860  -22.9390   -6.8220 C.3     1  UNL1        0.1610
     30  C         16.6480  -22.5570   -5.5810 C.2     1  UNL1       -0.0380
     31  C         16.1830  -22.9320   -4.3100 C.2     1  UNL1        0.0090
     32  C         16.8710  -22.5400   -3.1530 C.2     1  UNL1        0.0040
     33  C         18.0290  -21.7670   -3.2580 C.2     1  UNL1        0.0420
     34  C         18.4880  -21.3910   -4.5190 C.2     1  UNL1        0.1170
     35  F         19.5950  -20.6400   -4.6210 F       1  UNL1       -0.2060
     36  C         17.8110  -21.7740   -5.6740 C.2     1  UNL1        0.0510
@<TRIPOS>BOND
     1    22    21    1
     2    21    20    2
     3    21    23    1
     4    20    19    1
     5    23    24    2
     6    19    18    2
     7    24    18    1
     8    18    15    1
     9     4     3    2
    10     4     5    1
    11     3     2    1
    12     5     6    2
    13    15    16    2
    14    15    17    2
    15    15    13    1
    16     2     1    2
    17     9    10    1
    18     9     8    1
    19    13    10    1
    20    13    14    1
    21    10    11    1
    22     6     1    1
    23     6     7    1
    24     1    25    1
    25     8     7    1
    26     7    12    1
    27    25    26    2
    28    25    27   am
    29    11    12    1
    30    28    27    1
    31    27    29    1
    32    29    30    1
    33    36    30    2
    34    36    34    1
    35    30    31    1
    36    35    34    1
    37    34    33    2
    38    31    32    2
    39    33    32    1
