@<TRIPOS>MOLECULE
28220_out_ligand_01.pdbqt
 32 35 0 0 0
SMALL
GASTEIGER

@<TRIPOS>ATOM
      1  C         16.4280  -24.1580   -7.6310 C.2     1  UNL1        0.2790
      2  O         15.4870  -24.8160   -8.0580 O.2     1  UNL1       -0.2650
      3  N         17.6200  -24.0400   -8.2990 N.am    1  UNL1       -0.1840
      4  C         17.6900  -23.1830   -9.2650 C.2     1  UNL1        0.1770
      5  S         16.4000  -22.0380   -9.7410 S.3     1  UNL1       -0.0620
      6  C         17.4230  -21.3290  -10.9600 C.2     1  UNL1        0.0780
      7  C         18.6290  -21.9200  -11.0120 C.2     1  UNL1        0.0170
      8  C         19.7090  -21.5130  -11.9610 C.3     1  UNL1        0.0690
      9  N         18.7910  -22.9660  -10.0890 N.pl3   1  UNL1       -0.3230
     10  C         19.9980  -23.7710   -9.9260 C.3     1  UNL1        0.1960
     11  C         21.1800  -23.0250   -9.4030 C.2     1  UNL1        0.0720
     12  C         21.4070  -22.3210   -8.2390 C.2     1  UNL1        0.0370
     13  C         22.7300  -21.8270   -8.3230 C.2     1  UNL1        0.0450
     14  C         23.2460  -22.2650   -9.5280 C.2     1  UNL1        0.1430
     15  O         22.2940  -23.0000  -10.1920 O.2     1  UNL1       -0.3080
     16  C         24.5490  -22.0680  -10.1300 C.2     1  UNL1        0.2750
     17  O         24.9590  -20.9800  -10.5170 O.2     1  UNL1       -0.2650
     18  N         25.2950  -23.2220  -10.2360 N.am    1  UNL1       -0.3530
     19  H         24.8760  -24.0800   -9.9020 H       1  UNL1        0.1620
     20  C         26.6340  -23.2370  -10.7890 C.3     1  UNL1        0.1550
     21  C         26.6880  -23.6040  -12.2730 C.3     1  UNL1        0.1390
     22  C         26.8390  -22.4080  -13.2000 C.3     1  UNL1        0.0350
     23  C         26.2640  -22.9490  -14.4850 C.3     1  UNL1        0.0290
     24  C         25.1110  -23.7940  -13.9860 C.3     1  UNL1        0.1680
     25  O         25.4540  -24.2420  -12.6650 O.3     1  UNL1       -0.3840
     26  C         16.3300  -23.4950   -6.2940 C.2     1  UNL1        0.0340
     27  C         15.1860  -23.6170   -5.4940 C.2     1  UNL1        0.0170
     28  C         15.1340  -22.9920   -4.2470 C.2     1  UNL1        0.0020
     29  C         16.2180  -22.2410   -3.7920 C.2     1  UNL1        0.0070
     30  C         17.3640  -22.0960   -4.5850 C.2     1  UNL1       -0.0610
     31  C         18.5420  -21.3170   -4.0780 C.3     1  UNL1        0.0480
     32  C         17.4170  -22.7380   -5.8300 C.2     1  UNL1        0.0240
@<TRIPOS>BOND
     1    23    24    1
     2    23    22    1
     3    24    25    1
     4    22    21    1
     5    25    21    1
     6    21    20    1
     7     8     7    1
     8     7     6    2
     9     7     9    1
    10     6     5    1
    11    20    18    1
    12    17    16    2
    13    18    16   am
    14    18    19    1
    15    15    14    1
    16    15    11    1
    17    16    14    1
    18     9    10    1
    19     9     4    1
    20    10    11    1
    21     5     4    1
    22    14    13    2
    23    11    12    2
    24     4     3    2
    25    13    12    1
    26     3     1    1
    27     2     1    2
    28     1    26    1
    29    26    32    2
    30    26    27    1
    31    32    30    1
    32    27    28    2
    33    30    31    1
    34    30    29    2
    35    28    29    1
