@<TRIPOS>MOLECULE
28316_out_ligand_01.pdbqt
 37 41 0 0 0
SMALL
GASTEIGER

@<TRIPOS>ATOM
      1  C         21.5990  -22.0100  -11.6150 C.2     1  UNL1        0.2580
      2  O         21.6270  -21.1690  -12.5080 O.2     1  UNL1       -0.2670
      3  N         22.6270  -22.8620  -11.2670 N.am    1  UNL1       -0.3230
      4  H         22.3850  -23.6000  -10.6170 H       1  UNL1        0.1690
      5  C         20.3760  -22.2140  -10.8290 C.2     1  UNL1        0.0560
      6  C         19.0750  -21.8620  -11.2710 C.2     1  UNL1        0.0440
      7  C         18.1780  -22.1350  -10.2610 C.2     1  UNL1        0.0140
      8  C         16.7190  -21.8130  -10.2450 C.3     1  UNL1        0.0680
      9  N         18.8870  -22.6560   -9.1820 N.pl3   1  UNL1       -0.3190
     10  C         20.2440  -22.6940   -9.5240 C.2     1  UNL1        0.0290
     11  C         21.3000  -23.1720   -8.5740 C.3     1  UNL1        0.0700
     12  C         18.3190  -23.0320   -7.9290 C.2     1  UNL1        0.0420
     13  C         17.5300  -24.1890   -7.8290 C.2     1  UNL1        0.0330
     14  C         17.0010  -24.5680   -6.5940 C.2     1  UNL1        0.0420
     15  C         17.2600  -23.7990   -5.4590 C.2     1  UNL1        0.1020
     16  C         18.0250  -22.6310   -5.5610 C.2     1  UNL1        0.1040
     17  O         16.7370  -24.2490   -4.2740 O.2     1  UNL1       -0.3460
     18  C         18.5710  -22.2540   -6.7890 C.2     1  UNL1        0.0690
     19  O         18.2870  -21.8120   -4.4930 O.2     1  UNL1       -0.3460
     20  C         17.4530  -22.1210   -3.3700 C.3     1  UNL1        0.2020
     21  C         17.3730  -23.6190   -3.1550 C.3     1  UNL1        0.2020
     22  C         23.9620  -22.8280  -11.7150 C.2     1  UNL1        0.0360
     23  C         25.0710  -22.7880  -10.8620 C.2     1  UNL1        0.0290
     24  C         26.3750  -22.8100  -11.3800 C.2     1  UNL1        0.0040
     25  C         26.5850  -22.8850  -12.7540 C.2     1  UNL1        0.0250
     26  C         25.4810  -22.9160  -13.6070 C.2     1  UNL1        0.0820
     27  C         24.1750  -22.8790  -13.0960 C.2     1  UNL1        0.0540
     28  S         25.7250  -23.0410  -15.3560 S.O2    1  UNL1        0.2640
     29  O         26.2810  -24.3590  -15.6020 O.2     1  UNL1       -0.2000
     30  O         24.5290  -22.6000  -16.0390 O.2     1  UNL1       -0.2000
     31  N         26.9580  -21.9720  -15.7000 N.3     1  UNL1       -0.2680
     32  H         27.8600  -22.4390  -15.7620 H       1  UNL1        0.1800
     33  C         26.8210  -20.6180  -15.9850 C.3     1  UNL1        0.1080
     34  N         26.4410  -20.1490  -17.1270 N.3     1  UNL1       -0.2760
     35  C         26.4590  -18.6870  -16.9570 C.3     1  UNL1        0.1510
     36  C         26.3550  -18.4560  -15.4610 C.3     1  UNL1        0.0290
     37  C         27.1110  -19.6350  -14.9000 C.3     1  UNL1        0.0800
@<TRIPOS>BOND
     1    34    35    1
     2    34    33    1
     3    35    36    1
     4    30    28    2
     5    33    31    1
     6    33    37    1
     7    32    31    1
     8    31    28    1
     9    29    28    2
    10    36    37    1
    11    28    26    1
    12    26    27    1
    13    26    25    2
    14    27    22    2
    15    25    24    1
    16     2     1    2
    17    22     3    1
    18    22    23    1
    19     1     3   am
    20     1     5    1
    21    24    23    2
    22     6     5    1
    23     6     7    2
    24     3     4    1
    25     5    10    2
    26     7     8    1
    27     7     9    1
    28    10     9    1
    29    10    11    1
    30     9    12    1
    31    12    13    2
    32    12    18    1
    33    13    14    1
    34    18    16    2
    35    14    15    2
    36    16    15    1
    37    16    19    1
    38    15    17    1
    39    19    20    1
    40    17    21    1
    41    20    21    1
