@<TRIPOS>MOLECULE
28504_out_ligand_01.pdbqt
 34 37 0 0 0
SMALL
GASTEIGER

@<TRIPOS>ATOM
      1  C         21.0160  -21.5270  -11.4140 C.2     1  UNL1        0.0320
      2  C         21.6950  -21.6850  -12.6280 C.2     1  UNL1        0.0180
      3  C         23.0790  -21.8620  -12.6250 C.2     1  UNL1        0.0260
      4  C         23.7690  -21.8770  -11.4060 C.2     1  UNL1        0.0790
      5  C         23.0950  -21.6820  -10.1950 C.2     1  UNL1        0.0260
      6  C         21.7110  -21.5000  -10.2010 C.2     1  UNL1        0.0180
      7  C         19.5530  -21.3320  -11.4410 C.2     1  UNL1        0.2530
      8  N         18.7500  -22.1730  -10.6720 N.am    1  UNL1       -0.3450
      9  C         17.3300  -21.8700  -10.5840 C.3     1  UNL1        0.1530
     10  O         19.1240  -20.4480  -12.1760 O.2     1  UNL1       -0.2670
     11  C         19.2510  -23.2340   -9.7980 C.3     1  UNL1        0.2040
     12  C         18.8690  -23.0960   -8.3220 C.ar    1  UNL1        0.1250
     13  N         19.2060  -22.0690   -7.6110 N.ar    1  UNL1       -0.2330
     14  C         18.8070  -22.0280   -6.2660 C.ar    1  UNL1        0.0740
     15  C         19.1580  -20.9190   -5.4920 C.2     1  UNL1        0.0320
     16  C         18.0660  -23.0520   -5.6700 C.ar    1  UNL1        0.0610
     17  C         18.7740  -20.8400   -4.1490 C.2     1  UNL1        0.0020
     18  C         18.0320  -21.8710   -3.5690 C.2     1  UNL1        0.0010
     19  C         17.6750  -22.9840   -4.3290 C.2     1  UNL1        0.0190
     20  C         17.7100  -24.2040   -6.5130 C.ar    1  UNL1        0.2590
     21  O         17.0590  -25.1530   -6.0920 O.2     1  UNL1       -0.2670
     22  N         18.1510  -24.1490   -7.8100 N.ar    1  UNL1       -0.3090
     23  H         17.8970  -24.9430   -8.3820 H       1  UNL1        0.1700
     24  S         25.5280  -22.1150  -11.4160 S.O2    1  UNL1        0.2580
     25  O         25.8200  -23.4440  -10.9300 O.2     1  UNL1       -0.2010
     26  O         26.1370  -20.9350  -10.8480 O.2     1  UNL1       -0.2010
     27  N         25.8840  -22.0820  -13.0470 N.3     1  UNL1       -0.3130
     28  H         25.5880  -21.2480  -13.5480 H       1  UNL1        0.1720
     29  C         26.2290  -23.3040  -13.7700 C.3     1  UNL1        0.1640
     30  C         26.0870  -23.1170  -15.2800 C.3     1  UNL1        0.1400
     31  C         25.4010  -21.8230  -15.6920 C.3     1  UNL1        0.0350
     32  C         24.8700  -22.1820  -17.0570 C.3     1  UNL1        0.0290
     33  C         24.4470  -23.6240  -16.8660 C.3     1  UNL1        0.1680
     34  O         25.2710  -24.1730  -15.8260 O.3     1  UNL1       -0.3840
@<TRIPOS>BOND
     1    32    33    1
     2    32    31    1
     3    33    34    1
     4    34    30    1
     5    31    30    1
     6    30    29    1
     7    29    27    1
     8    28    27    1
     9    27    24    1
    10     2     3    1
    11     2     1    2
    12     3     4    2
    13    10     7    2
    14     7     1    1
    15     7     8   am
    16    24     4    1
    17    24    25    2
    18    24    26    2
    19     1     6    1
    20     4     5    1
    21     8     9    1
    22     8    11    1
    23     6     5    2
    24    11    12    1
    25    23    22    1
    26    12    22   ar
    27    12    13   ar
    28    22    20   ar
    29    13    14   ar
    30    20    21    2
    31    20    16   ar
    32    14    16   ar
    33    14    15    1
    34    16    19    1
    35    15    17    2
    36    19    18    2
    37    17    18    1
