@<TRIPOS>MOLECULE
28552_out_ligand_01.pdbqt
 36 39 0 0 0
SMALL
GASTEIGER

@<TRIPOS>ATOM
      1  C         24.3760  -22.7790  -11.2230 C.2     1  UNL1        0.0800
      2  C         23.8710  -22.0190  -12.2780 C.2     1  UNL1        0.0260
      3  C         22.5010  -21.7570  -12.3460 C.2     1  UNL1        0.0090
      4  C         21.6280  -22.2330  -11.3540 C.2     1  UNL1       -0.0460
      5  C         20.1560  -21.9440  -11.4670 C.3     1  UNL1        0.0490
      6  C         22.1580  -22.9850  -10.2880 C.2     1  UNL1        0.0390
      7  C         23.5310  -23.2530  -10.2170 C.2     1  UNL1        0.0420
      8  C         21.2780  -23.5390   -9.2290 C.2     1  UNL1        0.2520
      9  O         21.1350  -24.7490   -9.1150 O.2     1  UNL1       -0.2680
     10  N         20.6590  -22.5960   -8.4400 N.am    1  UNL1       -0.3530
     11  H         20.6990  -21.6250   -8.7160 H       1  UNL1        0.1630
     12  C         19.6720  -22.9720   -7.4480 C.3     1  UNL1        0.1620
     13  C         18.2910  -23.0790   -8.0600 C.2     1  UNL1       -0.0330
     14  C         18.0550  -22.4230   -9.2850 C.2     1  UNL1        0.0090
     15  C         16.8240  -22.5150   -9.9330 C.2     1  UNL1        0.0010
     16  C         15.8020  -23.2680   -9.3700 C.2     1  UNL1        0.0010
     17  C         16.0070  -23.9150   -8.1530 C.2     1  UNL1        0.0090
     18  C         17.2420  -23.8270   -7.4780 C.2     1  UNL1       -0.0300
     19  C         17.3700  -24.5170   -6.1360 C.3     1  UNL1        0.1910
     20  N         16.8120  -23.7070   -5.0650 N.pl3   1  UNL1       -0.2580
     21  C         15.5640  -23.7860   -4.5220 C.2     1  UNL1        0.2300
     22  N         15.4530  -22.9160   -3.5430 N.2     1  UNL1       -0.2340
     23  C         16.6800  -22.3190   -3.5240 C.2     1  UNL1        0.2560
     24  N         17.5490  -22.7680   -4.4340 N.2     1  UNL1       -0.1640
     25  S         26.1170  -23.1290  -11.1310 S.O2    1  UNL1        0.2630
     26  O         26.8360  -21.9080  -11.4220 O.2     1  UNL1       -0.2000
     27  O         26.3370  -23.8500   -9.8950 O.2     1  UNL1       -0.2000
     28  N         26.3490  -24.2420  -12.3780 N.pl3   1  UNL1       -0.2810
     29  H         26.0320  -25.1790  -12.1270 H       1  UNL1        0.1790
     30  C         26.1760  -23.8240  -13.7270 C.2     1  UNL1        0.0420
     31  C         25.2240  -24.4670  -14.5180 C.2     1  UNL1        0.0300
     32  C         25.0150  -24.0500  -15.8330 C.2     1  UNL1        0.0090
     33  C         25.7510  -22.9830  -16.3650 C.2     1  UNL1       -0.0620
     34  C         25.5490  -22.5640  -17.7890 C.3     1  UNL1        0.0480
     35  C         26.7130  -22.3540  -15.5650 C.2     1  UNL1        0.0090
     36  C         26.9200  -22.7690  -14.2490 C.2     1  UNL1        0.0300
@<TRIPOS>BOND
     1    34    33    1
     2    33    32    2
     3    33    35    1
     4    32    31    1
     5    35    36    2
     6    31    30    2
     7    36    30    1
     8    30    28    1
     9    28    29    1
    10    28    25    1
    11     3     2    1
    12     3     4    2
    13     2     1    2
    14     5     4    1
    15    26    25    2
    16     4     6    1
    17     1    25    1
    18     1     7    1
    19    25    27    2
    20     6     7    2
    21     6     8    1
    22    15    16    2
    23    15    14    1
    24    16    17    1
    25    14    13    2
    26     8     9    2
    27     8    10   am
    28    11    10    1
    29    10    12    1
    30    17    18    2
    31    13    18    1
    32    13    12    1
    33    18    19    1
    34    19    20    1
    35    20    21    1
    36    20    24    1
    37    21    22    2
    38    24    23    2
    39    22    23    1
