@<TRIPOS>MOLECULE
28570_out_ligand_01.pdbqt
 43 46 0 0 0
SMALL
GASTEIGER

@<TRIPOS>ATOM
      1  C         22.3130  -22.3890  -10.5020 C.ar    1  UNL1        0.1000
      2  N         22.5920  -23.3020   -9.5460 N.ar    1  UNL1       -0.1470
      3  N         21.5840  -23.9190   -8.8660 N.ar    1  UNL1       -0.1310
      4  C         20.2910  -23.6380   -9.1350 C.ar    1  UNL1        0.1610
      5  C         19.9480  -22.6500  -10.0870 C.ar    1  UNL1        0.0240
      6  C         18.6090  -22.2680  -10.3640 C.2     1  UNL1        0.0160
      7  C         18.3010  -21.2920  -11.3130 C.2     1  UNL1        0.0010
      8  C         19.3220  -20.6620  -12.0060 C.2     1  UNL1        0.0010
      9  C         20.6480  -21.0100  -11.7490 C.2     1  UNL1        0.0150
     10  C         20.9900  -22.0060  -10.7960 C.ar    1  UNL1        0.0090
     11  C         23.5050  -21.8920  -11.2060 C.2     1  UNL1       -0.0030
     12  C         23.5790  -21.9220  -12.6060 C.2     1  UNL1        0.0390
     13  C         24.6990  -21.4030  -13.2820 C.2     1  UNL1        0.0860
     14  C         25.7790  -20.8530  -12.5680 C.2     1  UNL1       -0.0390
     15  C         25.6860  -20.8090  -11.1690 C.2     1  UNL1        0.0090
     16  C         26.9970  -20.2440  -13.2110 C.3     1  UNL1        0.0500
     17  C         24.5700  -21.3160  -10.5010 C.2     1  UNL1        0.0140
     18  S         24.6690  -21.4370  -15.0650 S.O2    1  UNL1        0.2590
     19  O         23.5870  -22.2940  -15.4830 O.2     1  UNL1       -0.2010
     20  O         24.7850  -20.0830  -15.5630 O.2     1  UNL1       -0.2010
     21  N         26.0910  -22.2130  -15.4370 N.3     1  UNL1       -0.3060
     22  H         26.9390  -21.8810  -14.9770 H       1  UNL1        0.1720
     23  C         26.0530  -23.5600  -16.0030 C.3     1  UNL1        0.2430
     24  C         26.0620  -24.6000  -14.8990 C.2     1  UNL1        0.2770
     25  O         25.5440  -25.7090  -14.9720 O.2     1  UNL1       -0.2630
     26  O         26.7470  -24.1260  -13.8200 O.3     1  UNL1       -0.3210
     27  C         26.3060  -24.5850  -12.5370 C.3     1  UNL1        0.1740
     28  C         27.1200  -23.9340  -11.4360 C.3     1  UNL1        0.0340
     29  N         19.2550  -24.3650   -8.4770 N.pl3   1  UNL1       -0.3390
     30  H         19.5960  -25.3080   -8.3060 H       1  UNL1        0.1670
     31  C         18.4560  -23.9060   -7.4060 C.2     1  UNL1        0.0340
     32  C         17.2660  -24.5360   -7.0390 C.2     1  UNL1        0.0320
     33  C         16.5170  -24.0870   -5.9450 C.2     1  UNL1        0.0400
     34  C         16.9420  -22.9890   -5.1850 C.2     1  UNL1        0.0840
     35  C         18.1560  -22.3620   -5.5230 C.2     1  UNL1        0.0670
     36  C         18.9010  -22.8380   -6.6180 C.2     1  UNL1        0.0490
     37  O         16.2390  -22.5120   -4.1060 O.2     1  UNL1       -0.3550
     38  C         14.8610  -22.2040   -4.3160 C.3     1  UNL1        0.2100
     39  C         18.7260  -21.1680   -4.8250 C.2     1  UNL1        0.2520
     40  N         18.3720  -20.9390   -3.5280 N.am    1  UNL1       -0.3660
     41  H         17.7260  -21.5530   -3.0410 H       1  UNL1        0.1590
     42  H         18.6250  -20.0560   -3.1070 H       1  UNL1        0.1590
     43  O         19.4890  -20.3930   -5.3930 O.2     1  UNL1       -0.2680
@<TRIPOS>BOND
     1    23    21    1
     2    23    24    1
     3    20    18    2
     4    19    18    2
     5    21    18    1
     6    21    22    1
     7    18    13    1
     8    25    24    2
     9    24    26    1
    10    26    27    1
    11    13    12    1
    12    13    14    2
    13    16    14    1
    14    12    11    2
    15    14    15    1
    16    27    28    1
    17     8     9    2
    18     8     7    1
    19     9    10    1
    20     7     6    2
    21    11     1    1
    22    11    17    1
    23    15    17    2
    24    10     1   ar
    25    10     5   ar
    26     1     2   ar
    27     6     5    1
    28     5     4   ar
    29     2     3   ar
    30     4     3   ar
    31     4    29    1
    32    29    30    1
    33    29    31    1
    34    31    32    2
    35    31    36    1
    36    32    33    1
    37    36    35    2
    38    33    34    2
    39    35    34    1
    40    35    39    1
    41    43    39    2
    42    34    37    1
    43    39    40   am
    44    38    37    1
    45    40    42    1
    46    40    41    1
