@<TRIPOS>MOLECULE
28583_out_ligand_01.pdbqt
 40 43 0 0 0
SMALL
GASTEIGER

@<TRIPOS>ATOM
      1  C         20.2770  -23.8040   -9.1050 C.ar    1  UNL1        0.1610
      2  N         21.5630  -24.1430   -8.8860 N.ar    1  UNL1       -0.1310
      3  N         22.5800  -23.5290   -9.5610 N.ar    1  UNL1       -0.1470
      4  C         22.3120  -22.5640  -10.4670 C.ar    1  UNL1        0.1000
      5  C         20.9930  -22.1440  -10.7320 C.ar    1  UNL1        0.0090
      6  C         20.6640  -21.1050  -11.6400 C.2     1  UNL1        0.0150
      7  C         19.3410  -20.7360  -11.8850 C.2     1  UNL1        0.0010
      8  C         18.3120  -21.3940  -11.2330 C.2     1  UNL1        0.0010
      9  C         18.6090  -22.4110  -10.3240 C.2     1  UNL1        0.0160
     10  C         19.9450  -22.7950  -10.0400 C.ar    1  UNL1        0.0240
     11  N         19.2410  -24.4330   -8.3580 N.pl3   1  UNL1       -0.3390
     12  H         18.6750  -24.9750   -9.0030 H       1  UNL1        0.1670
     13  C         18.4640  -23.8620   -7.3270 C.2     1  UNL1        0.0340
     14  C         17.2610  -24.4740   -6.9610 C.2     1  UNL1        0.0320
     15  C         16.4840  -23.9740   -5.9080 C.2     1  UNL1        0.0400
     16  C         16.9030  -22.8600   -5.1710 C.2     1  UNL1        0.0840
     17  C         18.1370  -22.2600   -5.4950 C.2     1  UNL1        0.0670
     18  C         18.9010  -22.7750   -6.5640 C.2     1  UNL1        0.0490
     19  O         16.1800  -22.3360   -4.1280 O.2     1  UNL1       -0.3550
     20  C         14.7840  -22.1380   -4.3150 C.3     1  UNL1        0.2100
     21  C         18.7300  -21.0900   -4.7700 C.2     1  UNL1        0.2520
     22  N         18.5420  -20.9960   -3.4230 N.am    1  UNL1       -0.3660
     23  H         18.0880  -21.7370   -2.9040 H       1  UNL1        0.1590
     24  H         18.9800  -20.2310   -2.9300 H       1  UNL1        0.1590
     25  O         19.3720  -20.2190   -5.3510 O.2     1  UNL1       -0.2680
     26  C         23.5110  -22.0350  -11.1340 C.2     1  UNL1       -0.0030
     27  C         24.5780  -21.5200  -10.3850 C.2     1  UNL1        0.0140
     28  C         25.7290  -21.0310  -11.0090 C.2     1  UNL1        0.0090
     29  C         25.8620  -21.0550  -12.4060 C.2     1  UNL1       -0.0390
     30  C         27.1210  -20.5040  -13.0150 C.3     1  UNL1        0.0500
     31  C         24.7970  -21.5780  -13.1630 C.2     1  UNL1        0.0810
     32  C         23.6400  -22.0640  -12.5310 C.2     1  UNL1        0.0390
     33  S         24.8450  -21.6340  -14.9460 S.O2    1  UNL1        0.2420
     34  O         23.5610  -22.0990  -15.4240 O.2     1  UNL1       -0.2060
     35  O         25.4280  -20.4030  -15.4270 O.2     1  UNL1       -0.2060
     36  N         25.9170  -22.9200  -15.2100 N.3     1  UNL1       -0.2120
     37  H         26.8690  -22.5440  -15.1950 H       1  UNL1        0.1400
     38  C         25.7850  -24.0950  -14.3120 C.3     1  UNL1        0.0630
     39  C         27.1210  -24.4350  -13.6610 C.3     1  UNL1        0.0270
     40  C         25.2870  -25.2650  -15.1550 C.3     1  UNL1        0.0270
@<TRIPOS>BOND
     1    35    33    2
     2    34    33    2
     3    36    37    1
     4    36    33    1
     5    36    38    1
     6    40    38    1
     7    33    31    1
     8    38    39    1
     9    31    32    1
    10    31    29    2
    11    30    29    1
    12    32    26    2
    13    29    28    1
    14     7     6    2
    15     7     8    1
    16     6     5    1
    17     8     9    2
    18    26     4    1
    19    26    27    1
    20    28    27    2
    21     5     4   ar
    22     5    10   ar
    23     4     3   ar
    24     9    10    1
    25    10     1   ar
    26     3     2   ar
    27     1     2   ar
    28     1    11    1
    29    12    11    1
    30    11    13    1
    31    13    14    2
    32    13    18    1
    33    14    15    1
    34    18    17    2
    35    15    16    2
    36    17    16    1
    37    17    21    1
    38    25    21    2
    39    16    19    1
    40    21    22   am
    41    20    19    1
    42    22    24    1
    43    22    23    1
