@<TRIPOS>MOLECULE
28597_out_ligand_01.pdbqt
 40 43 0 0 0
SMALL
GASTEIGER

@<TRIPOS>ATOM
      1  C         22.8540  -23.0440  -10.7110 C.ar    1  UNL1        0.1610
      2  N         23.0310  -23.4430   -9.4350 N.ar    1  UNL1       -0.1310
      3  N         22.0990  -23.1710   -8.4710 N.ar    1  UNL1       -0.1470
      4  C         20.9760  -22.4910   -8.7850 C.ar    1  UNL1        0.1000
      5  C         20.7210  -22.0480  -10.0970 C.ar    1  UNL1        0.0090
      6  C         19.5400  -21.3590  -10.4780 C.2     1  UNL1        0.0150
      7  C         19.3360  -20.9190  -11.7850 C.2     1  UNL1        0.0010
      8  C         20.3060  -21.1540  -12.7460 C.2     1  UNL1        0.0010
      9  C         21.4690  -21.8420  -12.4020 C.2     1  UNL1        0.0160
     10  C         21.6980  -22.3190  -11.0850 C.ar    1  UNL1        0.0240
     11  N         23.8240  -23.3630  -11.7020 N.pl3   1  UNL1       -0.3390
     12  H         24.3160  -24.2020  -11.4120 H       1  UNL1        0.1670
     13  C         24.6830  -22.4870  -12.4030 C.2     1  UNL1        0.0340
     14  C         24.6050  -22.4360  -13.8000 C.2     1  UNL1        0.0490
     15  C         25.3880  -21.5460  -14.5640 C.2     1  UNL1        0.0670
     16  C         26.2700  -20.6660  -13.9070 C.2     1  UNL1        0.0840
     17  C         26.3120  -20.6790  -12.5080 C.2     1  UNL1        0.0400
     18  C         25.5180  -21.5670  -11.7710 C.2     1  UNL1        0.0320
     19  C         25.2030  -21.6260  -16.0520 C.2     1  UNL1        0.2540
     20  N         24.6620  -20.5350  -16.6900 N.am    1  UNL1       -0.3610
     21  C         24.5450  -20.4700  -18.1220 C.3     1  UNL1        0.1490
     22  H         24.5410  -19.6860  -16.1460 H       1  UNL1        0.1620
     23  O         25.5260  -22.6460  -16.6570 O.2     1  UNL1       -0.2680
     24  O         27.0380  -19.8250  -14.6730 O.2     1  UNL1       -0.3550
     25  C         26.7190  -18.4370  -14.6530 C.3     1  UNL1        0.2100
     26  C         20.0830  -22.2630   -7.6400 C.2     1  UNL1       -0.0030
     27  C         20.4440  -21.3970   -6.5970 C.2     1  UNL1        0.0140
     28  C         19.5900  -21.1820   -5.5120 C.2     1  UNL1        0.0090
     29  C         18.3440  -21.8230   -5.4300 C.2     1  UNL1       -0.0390
     30  C         17.4870  -21.5610   -4.2250 C.3     1  UNL1        0.0500
     31  C         17.9870  -22.7110   -6.4630 C.2     1  UNL1        0.0860
     32  C         18.8520  -22.9300   -7.5490 C.2     1  UNL1        0.0390
     33  S         16.4450  -23.6120   -6.4470 S.O2    1  UNL1        0.2590
     34  O         16.5590  -24.7290   -5.5350 O.2     1  UNL1       -0.2010
     35  O         15.3600  -22.6620   -6.3390 O.2     1  UNL1       -0.2010
     36  N         16.3870  -24.2300   -8.0030 N.3     1  UNL1       -0.3110
     37  H         17.2480  -24.6750   -8.3140 H       1  UNL1        0.1720
     38  C         15.4460  -23.6870   -8.9850 C.3     1  UNL1        0.0850
     39  C         14.9460  -24.8370   -9.8510 C.3     1  UNL1        0.0320
     40  C         16.1510  -22.6330   -9.8300 C.3     1  UNL1        0.0320
@<TRIPOS>BOND
     1    21    20    1
     2    20    22    1
     3    20    19   am
     4    23    19    2
     5    19    15    1
     6    24    25    1
     7    24    16    1
     8    15    16    2
     9    15    14    1
    10    16    17    1
    11    14    13    2
    12     8     9    2
    13     8     7    1
    14    17    18    2
    15    13    18    1
    16    13    11    1
    17     9    10    1
    18     7     6    2
    19    11    12    1
    20    11     1    1
    21    10     1   ar
    22    10     5   ar
    23     1     2   ar
    24     6     5    1
    25     5     4   ar
    26    39    38    1
    27    40    38    1
    28     2     3   ar
    29    38    36    1
    30     4     3   ar
    31     4    26    1
    32    37    36    1
    33    36    33    1
    34    26    32    2
    35    26    27    1
    36    32    31    1
    37    27    28    2
    38    31    33    1
    39    31    29    2
    40    33    35    2
    41    33    34    2
    42    28    29    1
    43    29    30    1
