@<TRIPOS>MOLECULE
28609_out_ligand_01.pdbqt
 43 46 0 0 0
SMALL
GASTEIGER

@<TRIPOS>ATOM
      1  C         20.1730  -23.9480   -9.0360 C.ar    1  UNL1        0.1610
      2  N         21.4390  -24.3530   -8.8030 N.ar    1  UNL1       -0.1310
      3  N         22.4830  -23.8570   -9.5310 N.ar    1  UNL1       -0.1470
      4  C         22.2610  -22.9360  -10.4940 C.ar    1  UNL1        0.1000
      5  C         20.9710  -22.4390  -10.7630 C.ar    1  UNL1        0.0090
      6  C         20.7030  -21.4320  -11.7230 C.2     1  UNL1        0.0150
      7  C         19.4080  -20.9710  -11.9590 C.2     1  UNL1        0.0010
      8  C         18.3490  -21.4980  -11.2390 C.2     1  UNL1        0.0010
      9  C         18.5880  -22.4800  -10.2790 C.2     1  UNL1        0.0160
     10  C         19.8930  -22.9700  -10.0190 C.ar    1  UNL1        0.0240
     11  C         23.4680  -22.5430  -11.2330 C.2     1  UNL1       -0.0030
     12  C         24.7440  -22.7620  -10.6990 C.2     1  UNL1        0.0140
     13  C         25.8930  -22.3680  -11.3930 C.2     1  UNL1        0.0090
     14  C         25.8050  -21.7570  -12.6540 C.2     1  UNL1       -0.0390
     15  C         27.0750  -21.3250  -13.3340 C.3     1  UNL1        0.0500
     16  C         24.5250  -21.5570  -13.2020 C.2     1  UNL1        0.0810
     17  C         23.3730  -21.9490  -12.5000 C.2     1  UNL1        0.0390
     18  S         24.2940  -20.8160  -14.8100 S.O2    1  UNL1        0.2420
     19  O         22.9380  -20.3080  -14.8900 O.2     1  UNL1       -0.2060
     20  O         25.4280  -19.9620  -15.0800 O.2     1  UNL1       -0.2060
     21  N         24.3420  -22.1890  -15.8010 N.3     1  UNL1       -0.2050
     22  H         23.3670  -22.4800  -15.9440 H       1  UNL1        0.1410
     23  C         24.9840  -22.0990  -17.1600 C.3     1  UNL1        0.0390
     24  C         26.4760  -22.4150  -16.9310 C.3     1  UNL1        0.0350
     25  C         24.8770  -20.6900  -17.7460 C.3     1  UNL1        0.0350
     26  C         24.3690  -23.1430  -18.1180 C.3     1  UNL1        0.1890
     27  O         23.1210  -23.6130  -17.5950 O.3     1  UNL1       -0.3990
     28  H         22.4530  -23.4220  -18.2910 H       1  UNL1        0.2090
     29  N         19.1000  -24.5320   -8.3100 N.pl3   1  UNL1       -0.3390
     30  H         19.2930  -25.5210   -8.1860 H       1  UNL1        0.1670
     31  C         18.3980  -23.9710   -7.2220 C.2     1  UNL1        0.0340
     32  C         17.1130  -24.4320   -6.9200 C.2     1  UNL1        0.0320
     33  C         16.3600  -23.8510   -5.8920 C.2     1  UNL1        0.0400
     34  C         16.8610  -22.7700   -5.1560 C.2     1  UNL1        0.0840
     35  C         18.1370  -22.2650   -5.4780 C.2     1  UNL1        0.0670
     36  C         18.8870  -22.8740   -6.5040 C.2     1  UNL1        0.0490
     37  O         16.1500  -22.1500   -4.1590 O.2     1  UNL1       -0.3550
     38  C         14.7290  -22.1560   -4.2550 C.3     1  UNL1        0.2100
     39  C         18.7680  -21.0760   -4.8230 C.2     1  UNL1        0.2520
     40  N         18.5560  -20.8790   -3.4890 N.am    1  UNL1       -0.3660
     41  H         18.8290  -19.9790   -3.1180 H       1  UNL1        0.1590
     42  H         17.8410  -21.4090   -3.0100 H       1  UNL1        0.1590
     43  O         19.4500  -20.2750   -5.4550 O.2     1  UNL1       -0.2680
@<TRIPOS>BOND
     1    28    27    1
     2    26    27    1
     3    26    23    1
     4    25    23    1
     5    23    24    1
     6    23    21    1
     7    22    21    1
     8    21    18    1
     9    20    18    2
    10    19    18    2
    11    18    16    1
    12    15    14    1
    13    16    14    2
    14    16    17    1
    15    14    13    1
    16    17    11    2
    17     7     6    2
    18     7     8    1
    19     6     5    1
    20    13    12    2
    21     8     9    2
    22    11    12    1
    23    11     4    1
    24     5     4   ar
    25     5    10   ar
    26     4     3   ar
    27     9    10    1
    28    10     1   ar
    29     3     2   ar
    30     1     2   ar
    31     1    29    1
    32    29    30    1
    33    29    31    1
    34    31    32    2
    35    31    36    1
    36    32    33    1
    37    36    35    2
    38    33    34    2
    39    35    34    1
    40    35    39    1
    41    43    39    2
    42    34    37    1
    43    39    40   am
    44    38    37    1
    45    40    41    1
    46    40    42    1
