@<TRIPOS>MOLECULE
28616_out_ligand_01.pdbqt
 39 42 0 0 0
SMALL
GASTEIGER

@<TRIPOS>ATOM
      1  C         22.5950  -22.4660  -10.9420 C.ar    1  UNL1        0.1000
      2  N         22.9440  -23.4270  -10.0620 N.ar    1  UNL1       -0.1470
      3  N         21.9970  -24.0080   -9.2640 N.ar    1  UNL1       -0.1310
      4  C         20.7010  -23.6390   -9.3370 C.ar    1  UNL1        0.1610
      5  C         20.2880  -22.6310  -10.2400 C.ar    1  UNL1        0.0240
      6  C         18.9470  -22.1800  -10.3410 C.2     1  UNL1        0.0160
      7  C         18.5650  -21.2010  -11.2590 C.2     1  UNL1        0.0010
      8  C         19.5130  -20.6440  -12.1030 C.2     1  UNL1        0.0010
      9  C         20.8420  -21.0560  -12.0160 C.2     1  UNL1        0.0150
     10  C         21.2610  -22.0370  -11.0810 C.ar    1  UNL1        0.0090
     11  C         23.7300  -21.9280  -11.7090 C.2     1  UNL1       -0.0030
     12  C         24.7340  -21.1890  -11.0700 C.2     1  UNL1        0.0140
     13  C         25.8160  -20.6700  -11.7880 C.2     1  UNL1        0.0090
     14  C         25.9230  -20.8590  -13.1760 C.2     1  UNL1       -0.0390
     15  C         27.1210  -20.2930  -13.8850 C.3     1  UNL1        0.0500
     16  C         24.9110  -21.5910  -13.8240 C.2     1  UNL1        0.0810
     17  C         23.8280  -22.1150  -13.0960 C.2     1  UNL1        0.0390
     18  S         24.9570  -21.9160  -15.5780 S.O2    1  UNL1        0.2420
     19  O         25.6670  -20.8340  -16.2250 O.2     1  UNL1       -0.2060
     20  O         23.6350  -22.3130  -16.0030 O.2     1  UNL1       -0.2060
     21  N         26.0070  -23.2450  -15.6470 N.3     1  UNL1       -0.2120
     22  H         26.0080  -23.5960  -16.6080 H       1  UNL1        0.1400
     23  C         25.7560  -24.3410  -14.6740 C.3     1  UNL1        0.0630
     24  C         24.9190  -25.4460  -15.3080 C.3     1  UNL1        0.0270
     25  C         27.1130  -24.8830  -14.2310 C.3     1  UNL1        0.0270
     26  N         19.7280  -24.2800   -8.5190 N.pl3   1  UNL1       -0.3390
     27  H         20.0240  -25.2390   -8.3660 H       1  UNL1        0.1670
     28  C         19.0580  -23.7630   -7.3890 C.2     1  UNL1        0.0330
     29  C         17.9760  -24.4790   -6.8550 C.2     1  UNL1        0.0300
     30  C         17.2350  -23.9810   -5.7790 C.2     1  UNL1        0.0100
     31  C         17.5450  -22.7350   -5.2220 C.2     1  UNL1       -0.0490
     32  C         18.5990  -21.9980   -5.7720 C.2     1  UNL1        0.0100
     33  C         19.3340  -22.5010   -6.8510 C.2     1  UNL1        0.0300
     34  C         16.7370  -22.1780   -4.0750 C.3     1  UNL1        0.1410
     35  C         15.2620  -22.5370   -4.0990 C.2     1  UNL1        0.2190
     36  N         14.4460  -21.7710   -4.8800 N.am    1  UNL1       -0.3700
     37  H         14.7020  -20.8190   -5.1050 H       1  UNL1        0.1590
     38  H         13.4570  -21.9720   -4.8050 H       1  UNL1        0.1590
     39  O         14.8080  -23.5160   -3.5110 O.2     1  UNL1       -0.2730
@<TRIPOS>BOND
     1    22    21    1
     2    19    18    2
     3    20    18    2
     4    21    18    1
     5    21    23    1
     6    18    16    1
     7    24    23    1
     8    23    25    1
     9    15    14    1
    10    16    14    2
    11    16    17    1
    12    14    13    1
    13    17    11    2
    14     8     9    2
    15     8     7    1
    16     9    10    1
    17    13    12    2
    18    11    12    1
    19    11     1    1
    20     7     6    2
    21    10     1   ar
    22    10     5   ar
    23     1     2   ar
    24     6     5    1
    25     5     4   ar
    26     2     3   ar
    27     4     3   ar
    28     4    26    1
    29    26    27    1
    30    26    28    1
    31    28    29    2
    32    28    33    1
    33    29    30    1
    34    33    32    2
    35    30    31    2
    36    32    31    1
    37    31    34    1
    38    37    36    1
    39    36    38    1
    40    36    35   am
    41    35    34    1
    42    35    39    2
