@<TRIPOS>MOLECULE
28764_out_ligand_01.pdbqt
 38 41 0 0 0
SMALL
GASTEIGER

@<TRIPOS>ATOM
      1  C         21.5550  -22.4280  -10.2210 C.2     1  UNL1        0.1030
      2  C         20.2800  -21.8870  -10.3580 C.2     1  UNL1        0.0520
      3  C         19.9250  -21.2460  -11.5500 C.2     1  UNL1       -0.0140
      4  C         20.8090  -21.2200  -12.6330 C.2     1  UNL1        0.0160
      5  C         22.0710  -21.8100  -12.5130 C.2     1  UNL1        0.0410
      6  C         22.4390  -22.3970  -11.3010 C.2     1  UNL1        0.1120
      7  C         18.5880  -20.6380  -11.7190 C.2     1  UNL1        0.1500
      8  N         17.4470  -21.0390  -11.2430 N.2     1  UNL1       -0.1840
      9  N         17.4370  -22.0660  -10.3500 N.am    1  UNL1       -0.2460
     10  C         16.2450  -22.5440   -9.8260 C.2     1  UNL1        0.2610
     11  O         15.1150  -22.1930  -10.1540 O.2     1  UNL1       -0.2690
     12  H         18.2960  -22.3040   -9.8590 H       1  UNL1        0.1920
     13  C         16.4720  -23.6430   -8.7890 C.3     1  UNL1        0.2800
     14  O         15.8010  -23.4130   -7.5520 O.2     1  UNL1       -0.3420
     15  C         16.5500  -22.8750   -6.5340 C.2     1  UNL1        0.0750
     16  C         17.8160  -22.3030   -6.7040 C.2     1  UNL1        0.0380
     17  C         18.5090  -21.7790   -5.6090 C.2     1  UNL1        0.0090
     18  C         17.9490  -21.8160   -4.3300 C.2     1  UNL1       -0.0610
     19  C         18.7050  -21.2700   -3.1550 C.3     1  UNL1        0.0480
     20  C         16.7010  -22.4250   -4.1540 C.2     1  UNL1        0.0160
     21  C         15.9930  -22.9540   -5.2470 C.2     1  UNL1       -0.0280
     22  C         14.6560  -23.6050   -5.0190 C.3     1  UNL1        0.0510
     23  O         21.9090  -23.0370   -9.0470 O.2     1  UNL1       -0.3490
     24  C         20.7570  -23.5570   -8.3640 C.3     1  UNL1        0.1710
     25  C         20.5500  -25.0130   -8.7340 C.3     1  UNL1        0.0340
     26  O         23.6820  -23.0270  -11.2220 O.3     1  UNL1       -0.2720
     27  C         24.7240  -22.1800  -11.5310 C.2     1  UNL1        0.2990
     28  O         25.1260  -21.2130  -10.8980 O.2     1  UNL1       -0.2590
     29  C         25.2200  -22.5220  -12.8830 C.2     1  UNL1        0.0510
     30  C         25.2660  -23.8940  -13.1780 C.2     1  UNL1        0.0180
     31  C         25.7460  -24.3250  -14.4090 C.2     1  UNL1        0.0020
     32  C         26.1720  -23.3900  -15.3490 C.2     1  UNL1        0.0120
     33  C         26.1120  -22.0120  -15.0850 C.2     1  UNL1       -0.0250
     34  C         26.5320  -21.0930  -16.0600 C.2     1  UNL1        0.0120
     35  C         25.6210  -21.5480  -13.8370 C.2     1  UNL1       -0.0100
     36  C         26.4640  -19.7190  -15.8320 C.2     1  UNL1        0.0010
     37  C         25.9680  -19.2450  -14.6250 C.2     1  UNL1        0.0010
     38  C         25.5500  -20.1460  -13.6430 C.2     1  UNL1        0.0130
@<TRIPOS>BOND
     1    34    36    2
     2    34    33    1
     3    36    37    1
     4    32    33    2
     5    32    31    1
     6    33    35    1
     7    37    38    2
     8    31    30    2
     9    35    38    1
    10    35    29    2
    11    30    29    1
    12    29    27    1
    13     4     5    2
    14     4     3    1
    15     5     6    1
    16     7     3    1
    17     7     8    2
    18     3     2    2
    19    27    26    1
    20    27    28    2
    21     6    26    1
    22     6     1    2
    23     8     9    1
    24     2     1    1
    25     9    12    1
    26     9    10   am
    27     1    23    1
    28    11    10    2
    29    10    13    1
    30    23    24    1
    31    13    14    1
    32    25    24    1
    33    14    15    1
    34    16    15    2
    35    16    17    1
    36    15    21    1
    37    17    18    2
    38    21    22    1
    39    21    20    2
    40    18    20    1
    41    18    19    1
