@<TRIPOS>MOLECULE
28779_out_ligand_01.pdbqt
 37 40 0 0 0
SMALL
GASTEIGER

@<TRIPOS>ATOM
      1  C         22.3700  -24.0470   -9.3860 C.3     1  UNL1        0.1640
      2  C         23.4240  -23.1220   -8.7860 C.3     1  UNL1        0.1250
      3  C         23.8070  -22.0150   -9.7480 C.2     1  UNL1        0.2230
      4  N         24.6020  -22.4690  -10.7860 N.am    1  UNL1       -0.3270
      5  H         24.8600  -23.4450  -10.7430 H       1  UNL1        0.1690
      6  O         23.4440  -20.8610   -9.5520 O.2     1  UNL1       -0.2730
      7  C         25.0600  -21.7530  -11.9080 C.2     1  UNL1        0.0350
      8  C         26.1270  -20.8700  -11.7030 C.2     1  UNL1        0.0320
      9  C         26.6360  -20.1020  -12.7560 C.2     1  UNL1        0.0400
     10  C         26.1040  -20.2150  -14.0450 C.2     1  UNL1        0.0840
     11  C         25.0410  -21.1210  -14.2660 C.2     1  UNL1        0.0670
     12  C         24.5280  -21.8780  -13.1900 C.2     1  UNL1        0.0490
     13  O         26.5650  -19.4710  -15.1070 O.2     1  UNL1       -0.3550
     14  C         26.7820  -18.0760  -14.8930 C.3     1  UNL1        0.2100
     15  C         24.4020  -21.3620  -15.6000 C.2     1  UNL1        0.2520
     16  N         24.2440  -20.3010  -16.4430 N.am    1  UNL1       -0.3660
     17  H         23.8530  -20.4750  -17.3610 H       1  UNL1        0.1590
     18  H         24.6190  -19.3860  -16.2150 H       1  UNL1        0.1590
     19  O         24.0240  -22.4760  -15.9510 O.2     1  UNL1       -0.2680
     20  N         21.0300  -23.4600   -9.4480 N.ar    1  UNL1       -0.2330
     21  N         20.2970  -23.5430   -8.2950 N.ar    1  UNL1       -0.1680
     22  C         19.1020  -23.0350   -8.2440 C.ar    1  UNL1        0.0980
     23  C         18.4550  -22.4040   -9.4140 C.ar    1  UNL1        0.0110
     24  C         17.1170  -21.9760   -9.4250 C.2     1  UNL1        0.0150
     25  C         19.2280  -22.2630  -10.5630 C.ar    1  UNL1        0.0460
     26  C         16.5820  -21.3640  -10.5630 C.2     1  UNL1        0.0010
     27  C         17.3720  -21.1910  -11.6990 C.2     1  UNL1        0.0010
     28  C         18.6950  -21.6470  -11.7030 C.2     1  UNL1        0.0180
     29  C         20.6090  -22.7830  -10.5840 C.ar    1  UNL1        0.2740
     30  O         21.3200  -22.5890  -11.5670 O.2     1  UNL1       -0.2660
     31  C         18.4050  -23.1020   -6.9360 C.2     1  UNL1       -0.0050
     32  C         18.5900  -22.0630   -6.0180 C.2     1  UNL1        0.0140
     33  C         17.9170  -22.0910   -4.7950 C.2     1  UNL1        0.0070
     34  C         17.0530  -23.1520   -4.4850 C.2     1  UNL1       -0.0620
     35  C         16.2920  -23.1540   -3.1900 C.3     1  UNL1        0.0480
     36  C         16.8460  -24.1700   -5.4290 C.2     1  UNL1        0.0070
     37  C         17.5180  -24.1440   -6.6530 C.2     1  UNL1        0.0140
@<TRIPOS>BOND
     1    17    16    1
     2    16    18    1
     3    16    15   am
     4    19    15    2
     5    15    11    1
     6    13    14    1
     7    13    10    1
     8    11    10    2
     9    11    12    1
    10    10     9    1
    11    12     7    2
    12     9     8    2
    13     7     8    1
    14     7     4    1
    15    28    27    2
    16    28    25    1
    17    27    26    1
    18    30    29    2
    19     4     5    1
    20     4     3   am
    21    29    25   ar
    22    29    20   ar
    23    25    23   ar
    24    26    24    2
    25     3     6    2
    26     3     2    1
    27    20     1    1
    28    20    21   ar
    29    24    23    1
    30    23    22   ar
    31     1     2    1
    32    21    22   ar
    33    22    31    1
    34    31    37    2
    35    31    32    1
    36    37    36    1
    37    32    33    2
    38    36    34    2
    39    33    34    1
    40    34    35    1
