@<TRIPOS>MOLECULE
29223_out_ligand_01.pdbqt
 36 38 0 0 0
SMALL
GASTEIGER

@<TRIPOS>ATOM
      1  C         21.4040  -23.0950   -9.0180 C.2     1  UNL1        0.1130
      2  C         22.6250  -23.7930   -8.8000 C.1     1  UNL1        0.1050
      3  N         23.6380  -24.3420   -8.6630 N.1     1  UNL1       -0.1910
      4  C         20.8940  -22.9760  -10.2590 C.2     1  UNL1        0.0420
      5  C         20.7110  -22.5630   -7.8100 C.2     1  UNL1        0.2660
      6  N         19.5290  -23.2210   -7.5330 N.am    1  UNL1       -0.3220
      7  H         19.2720  -23.9790   -8.1590 H       1  UNL1        0.1690
      8  O         21.1920  -21.6140   -7.2040 O.2     1  UNL1       -0.2670
      9  C         18.6640  -23.0170   -6.4400 C.2     1  UNL1        0.0350
     10  C         18.7790  -21.9590   -5.5390 C.2     1  UNL1        0.0300
     11  C         17.8830  -21.8390   -4.4700 C.2     1  UNL1        0.0090
     12  C         16.8610  -22.7750   -4.2840 C.2     1  UNL1       -0.0620
     13  C         15.8870  -22.6400   -3.1530 C.3     1  UNL1        0.0480
     14  C         16.7400  -23.8290   -5.1940 C.2     1  UNL1        0.0090
     15  C         17.6380  -23.9500   -6.2590 C.2     1  UNL1        0.0300
     16  C         19.6140  -22.3380  -10.5980 C.2     1  UNL1        0.0000
     17  C         18.4270  -22.8870  -10.0980 C.2     1  UNL1        0.0330
     18  C         17.2050  -22.2880  -10.4040 C.2     1  UNL1        0.0110
     19 BR         15.6030  -23.0350   -9.7350 Br      1  UNL1       -0.0510
     20  C         17.1530  -21.1370  -11.1890 C.2     1  UNL1        0.0220
     21  C         18.3330  -20.5830  -11.6880 C.2     1  UNL1        0.0390
     22  C         19.5580  -21.1950  -11.4150 C.2     1  UNL1        0.0790
     23  O         20.7450  -20.6570  -11.8490 O.2     1  UNL1       -0.3410
     24  C         21.0790  -21.0390  -13.1820 C.3     1  UNL1        0.2780
     25  C         22.5630  -21.3400  -13.4700 C.2     1  UNL1        0.2460
     26  O         23.1670  -20.7710  -14.3760 O.2     1  UNL1       -0.2710
     27  N         23.0750  -22.3060  -12.6120 N.am    1  UNL1       -0.3250
     28  H         22.4120  -22.7780  -12.0120 H       1  UNL1        0.1690
     29  C         24.4190  -22.7390  -12.4950 C.2     1  UNL1        0.0410
     30  C         25.0110  -23.6080  -13.4220 C.2     1  UNL1        0.0370
     31  C         26.3540  -23.9980  -13.3070 C.2     1  UNL1       -0.0600
     32  C         26.9780  -24.8860  -14.3460 C.3     1  UNL1        0.0480
     33  C         27.1210  -23.4910  -12.2580 C.2     1  UNL1        0.0070
     34  C         26.5470  -22.6300  -11.3250 C.2     1  UNL1        0.0090
     35  C         25.1980  -22.2480  -11.4270 C.2     1  UNL1       -0.0350
     36  C         24.6450  -21.3200  -10.3810 C.3     1  UNL1        0.0500
@<TRIPOS>BOND
     1    26    25    2
     2    32    31    1
     3    25    24    1
     4    25    27   am
     5    30    31    1
     6    30    29    2
     7    31    33    2
     8    24    23    1
     9    27    29    1
    10    27    28    1
    11    29    35    1
    12    33    34    1
    13    23    22    1
    14    21    22    1
    15    21    20    2
    16    35    34    2
    17    35    36    1
    18    22    16    2
    19    20    18    1
    20    16     4    1
    21    16    17    1
    22    18    17    2
    23    18    19    1
    24     4     1    2
    25     1     2    1
    26     1     5    1
    27     2     3    3
    28     7     6    1
    29     5     6   am
    30     5     8    2
    31     6     9    1
    32     9    15    2
    33     9    10    1
    34    15    14    1
    35    10    11    2
    36    14    12    2
    37    11    12    1
    38    12    13    1
