@<TRIPOS>MOLECULE
29235_out_ligand_01.pdbqt
 37 40 0 0 0
SMALL
GASTEIGER

@<TRIPOS>ATOM
      1  C         21.5420  -22.9040  -10.7870 C.2     1  UNL1        0.1040
      2  C         22.3010  -22.2890  -11.7870 C.2     1  UNL1        0.0510
      3  C         21.7150  -21.3620  -12.6590 C.2     1  UNL1       -0.0320
      4  C         20.3530  -21.0620  -12.5420 C.2     1  UNL1        0.0330
      5  C         19.5850  -21.6780  -11.5530 C.2     1  UNL1        0.0480
      6 BR         17.7590  -21.1850  -11.4090 Br      1  UNL1       -0.0480
      7  C         20.1690  -22.6160  -10.6950 C.2     1  UNL1        0.1190
      8  C         22.5400  -20.7290  -13.6940 C.2     1  UNL1        0.0140
      9  C         23.8050  -21.0450  -14.0220 C.2     1  UNL1        0.0330
     10  C         24.6350  -22.1170  -13.4850 C.ar    1  UNL1        0.0750
     11  N         24.5560  -23.3390  -14.1230 N.ar    1  UNL1       -0.3060
     12  C         25.2760  -24.4490  -13.7670 C.ar    1  UNL1        0.3270
     13  H         23.9340  -23.4640  -14.9140 H       1  UNL1        0.1710
     14  O         25.1840  -25.5060  -14.3760 O.2     1  UNL1       -0.2470
     15  N         26.1110  -24.2940  -12.6950 N.ar    1  UNL1       -0.2730
     16  C         26.3110  -23.1220  -12.0030 C.ar    1  UNL1        0.2840
     17  H         26.6580  -25.0980  -12.4220 H       1  UNL1        0.1730
     18  O         27.1210  -23.0510  -11.0870 O.2     1  UNL1       -0.2650
     19  C         25.4980  -21.9930  -12.4640 C.ar    1  UNL1        0.1970
     20  N         25.6080  -20.7570  -11.7660 N.pl3   1  UNL1       -0.1070
     21  O         25.0390  -20.6790  -10.6700 O.2     1  UNL1       -0.5310
     22  O         26.3120  -19.8790  -12.2840 O.2     1  UNL1       -0.5310
     23  O         22.0270  -23.8020   -9.8760 O.2     1  UNL1       -0.3490
     24  C         23.1820  -23.4850   -9.1080 C.3     1  UNL1        0.1710
     25  C         22.9930  -22.1660   -8.3820 C.3     1  UNL1        0.0340
     26  O         19.4310  -23.2080   -9.6980 O.2     1  UNL1       -0.3420
     27  C         19.3730  -22.3900   -8.5200 C.3     1  UNL1        0.2150
     28  C         18.3550  -22.8980   -7.5180 C.2     1  UNL1       -0.0230
     29  C         17.4910  -23.9310   -7.9250 C.2     1  UNL1        0.0100
     30  C         16.5240  -24.4350   -7.0610 C.2     1  UNL1        0.0020
     31  C         16.4070  -23.9140   -5.7750 C.2     1  UNL1        0.0120
     32  C         17.2540  -22.8880   -5.3340 C.2     1  UNL1       -0.0250
     33  C         17.1190  -22.3770   -4.0310 C.2     1  UNL1        0.0120
     34  C         18.2450  -22.3640   -6.2030 C.2     1  UNL1       -0.0180
     35  C         17.9500  -21.3580   -3.5700 C.2     1  UNL1        0.0010
     36  C         18.9280  -20.8370   -4.4050 C.2     1  UNL1        0.0010
     37  C         19.0730  -21.3330   -5.7040 C.2     1  UNL1        0.0130
@<TRIPOS>BOND
     1    13    11    1
     2    14    12    2
     3    11    12   ar
     4    11    10   ar
     5     9     8    2
     6     9    10    1
     7    12    15   ar
     8     8     3    1
     9    10    19   ar
    10    15    17    1
    11    15    16   ar
    12     3     4    2
    13     3     2    1
    14     4     5    1
    15    19    16   ar
    16    19    20    1
    17    22    20    2
    18    16    18    2
    19     2     1    2
    20    20    21    2
    21     5     6    1
    22     5     7    2
    23     1     7    1
    24     1    23    1
    25     7    26    1
    26    23    24    1
    27    26    27    1
    28    24    25    1
    29    27    28    1
    30    29    28    2
    31    29    30    1
    32    28    34    1
    33    30    31    2
    34    34    37    1
    35    34    32    2
    36    31    32    1
    37    37    36    2
    38    32    33    1
    39    36    35    1
    40    33    35    2
