@<TRIPOS>MOLECULE
29418_out_ligand_01.pdbqt
 36 40 0 0 0
SMALL
GASTEIGER

@<TRIPOS>ATOM
      1  C         22.8750  -21.9660  -10.9720 C.2     1  UNL1        0.0340
      2  C         22.1550  -21.9210  -12.1700 C.2     1  UNL1        0.0170
      3  C         20.7640  -21.8890  -12.1330 C.2     1  UNL1        0.0030
      4  C         20.1010  -21.9090  -10.9020 C.2     1  UNL1        0.0290
      5  C         20.8160  -21.9530   -9.6960 C.2     1  UNL1        0.0350
      6  C         22.2110  -21.9620   -9.7380 C.2     1  UNL1        0.0460
      7  C         24.3560  -22.0030  -10.9840 C.2     1  UNL1        0.2520
      8  N         24.9100  -23.1480  -11.5070 N.am    1  UNL1       -0.3460
      9  H         24.3120  -23.8330  -11.9520 H       1  UNL1        0.1630
     10  O         25.0090  -21.0620  -10.5520 O.2     1  UNL1       -0.2680
     11  C         26.3320  -23.2500  -11.7860 C.3     1  UNL1        0.1520
     12  C         26.9530  -24.3630  -10.9430 C.3     1  UNL1        0.0400
     13  C         26.4710  -23.5310  -13.2510 C.ar    1  UNL1        0.1520
     14  N         26.6050  -24.7270  -13.7900 N.ar    1  UNL1       -0.1330
     15  N         26.6360  -24.5870  -15.1490 N.ar    1  UNL1       -0.1350
     16  C         26.5040  -23.3080  -15.4370 C.ar    1  UNL1        0.1300
     17  N         26.4120  -22.5950  -14.2630 N.ar    1  UNL1       -0.3190
     18  C         26.4650  -22.7520  -16.8180 C.3     1  UNL1        0.0800
     19  C         26.2290  -21.1650  -14.1110 C.3     1  UNL1        0.1320
     20  C         26.8840  -20.3120  -15.1940 C.3     1  UNL1        0.0200
     21  C         26.0910  -20.2500  -16.5000 C.3     1  UNL1        0.0020
     22  C         25.5060  -21.5790  -16.9780 C.3     1  UNL1        0.0080
     23  N         20.0590  -21.9880   -8.5050 N.am    1  UNL1       -0.3230
     24  C         19.6400  -23.1090   -7.8110 C.2     1  UNL1        0.2560
     25  O         19.8190  -24.2770   -8.1350 O.2     1  UNL1       -0.2670
     26  H         19.7220  -21.0920   -8.1780 H       1  UNL1        0.1690
     27  C         18.8460  -22.8370   -6.5770 C.2     1  UNL1        0.0340
     28  C         19.0450  -21.6100   -5.9220 C.2     1  UNL1        0.0190
     29  C         18.3520  -21.2780   -4.7510 C.2     1  UNL1        0.0330
     30  C         17.4510  -22.2310   -4.2750 C.2     1  UNL1        0.0620
     31  N         16.6180  -22.2520   -3.1860 N.pl3   1  UNL1       -0.3490
     32  C         17.2190  -23.4480   -4.9060 C.2     1  UNL1        0.0850
     33  C         15.9450  -23.4420   -3.1930 C.2     1  UNL1        0.2080
     34  H         16.5170  -21.5180   -2.4980 H       1  UNL1        0.1670
     35  N         16.2850  -24.1840   -4.2210 N.2     1  UNL1       -0.2420
     36  C         17.9130  -23.7640   -6.0830 C.2     1  UNL1        0.0510
@<TRIPOS>BOND
     1    22    18    1
     2    22    21    1
     3    18    16    1
     4    21    20    1
     5    16    15   ar
     6    16    17   ar
     7    20    19    1
     8    15    14   ar
     9    17    19    1
    10    17    13   ar
    11    14    13   ar
    12    13    11    1
    13     2     3    1
    14     2     1    2
    15     3     4    2
    16     9     8    1
    17    11     8    1
    18    11    12    1
    19     8     7   am
    20     7     1    1
    21     7    10    2
    22     1     6    1
    23     4     5    1
    24     6     5    2
    25     5    23    1
    26    23    26    1
    27    23    24   am
    28    25    24    2
    29    24    27    1
    30    27    36    2
    31    27    28    1
    32    36    32    1
    33    28    29    2
    34    32    30    2
    35    32    35    1
    36    29    30    1
    37    30    31    1
    38    35    33    2
    39    33    31    1
    40    31    34    1
