@<TRIPOS>MOLECULE
2979_out_ligand_01.pdbqt
 34 37 0 0 0
SMALL
GASTEIGER

@<TRIPOS>ATOM
      1  C         18.0730  -22.5520   -9.7990 C.2     1  UNL1        0.0600
      2  C         17.2360  -23.2380  -10.6960 C.2     1  UNL1        0.0190
      3  C         16.0540  -23.8290  -10.2480 C.2     1  UNL1        0.0020
      4  C         15.7030  -23.7440   -8.9030 C.2     1  UNL1        0.0180
      5  C         16.5450  -23.0820   -8.0020 C.ar    1  UNL1        0.0430
      6  C         16.1710  -23.0010   -6.5660 C.ar    1  UNL1        0.1970
      7  O         15.1120  -23.4770   -6.1700 O.2     1  UNL1       -0.2860
      8  C         17.1010  -22.3420   -5.6170 C.ar    1  UNL1        0.0450
      9  C         16.8000  -22.2880   -4.2490 C.2     1  UNL1        0.0180
     10  C         17.6850  -21.6660   -3.3680 C.2     1  UNL1        0.0040
     11  C         18.8620  -21.0970   -3.8540 C.2     1  UNL1        0.0450
     12  C         19.1490  -21.1570   -5.2170 C.2     1  UNL1        0.1430
     13  F         20.2800  -20.5930   -5.6660 F       1  UNL1       -0.2040
     14  C         18.2870  -21.7920   -6.1170 C.ar    1  UNL1        0.0860
     15  N         18.5420  -21.7960   -7.4960 N.ar    1  UNL1       -0.3510
     16  C         17.7520  -22.4990   -8.4280 C.ar    1  UNL1        0.0620
     17  H         19.5160  -21.6360   -7.7790 H       1  UNL1        0.1660
     18  C         19.3280  -21.9120  -10.2910 C.2     1  UNL1        0.2580
     19  N         20.4780  -22.6570  -10.0990 N.am    1  UNL1       -0.3230
     20  H         20.3640  -23.6000   -9.7490 H       1  UNL1        0.1690
     21  O         19.2410  -20.8230  -10.8470 O.2     1  UNL1       -0.2670
     22  C         21.8020  -22.2830  -10.4120 C.2     1  UNL1        0.0350
     23  C         22.7060  -21.7620   -9.4880 C.2     1  UNL1        0.0290
     24  C         24.0070  -21.4360   -9.8790 C.2     1  UNL1        0.0030
     25  C         24.4190  -21.6310  -11.1960 C.2     1  UNL1        0.0080
     26  C         23.5300  -22.1540  -12.1420 C.2     1  UNL1       -0.0410
     27  C         22.2210  -22.4720  -11.7360 C.2     1  UNL1        0.0370
     28  C         23.9690  -22.3700  -13.5660 C.3     1  UNL1        0.1950
     29  S         23.9940  -20.8110  -14.4680 S.O2    1  UNL1        0.2110
     30  O         24.8860  -19.8700  -13.8280 O.2     1  UNL1       -0.2110
     31  O         24.0950  -21.0900  -15.8830 O.2     1  UNL1       -0.2110
     32  N         22.4500  -20.1980  -14.2550 N.3     1  UNL1       -0.2290
     33  H         22.3450  -19.3120  -14.7520 H       1  UNL1        0.1360
     34  H         22.2160  -20.1490  -13.2620 H       1  UNL1        0.1360
@<TRIPOS>BOND
     1    31    29    2
     2    33    32    1
     3    29    32    1
     4    29    30    2
     5    29    28    1
     6    32    34    1
     7    28    26    1
     8    26    27    1
     9    26    25    2
    10    27    22    2
    11    25    24    1
    12    21    18    2
    13     2     3    1
    14     2     1    2
    15    22    19    1
    16    22    23    1
    17    18    19   am
    18    18     1    1
    19     3     4    2
    20    19    20    1
    21    24    23    2
    22     1    16    1
    23     4     5    1
    24    16     5   ar
    25    16    15   ar
    26     5     6   ar
    27    17    15    1
    28    15    14   ar
    29     6     7    2
    30     6     8   ar
    31    14     8   ar
    32    14    12    1
    33    13    12    1
    34     8     9    1
    35    12    11    2
    36     9    10    2
    37    11    10    1
