@<TRIPOS>MOLECULE
30217_out_ligand_01.pdbqt
 36 40 0 0 0
SMALL
GASTEIGER

@<TRIPOS>ATOM
      1  C         24.0120  -21.6130  -12.6940 C.ar    1  UNL1        0.1360
      2  N         25.1290  -21.2410  -12.0920 N.ar    1  UNL1       -0.1340
      3  N         24.9160  -21.2500  -10.7390 N.ar    1  UNL1       -0.1230
      4  C         23.6720  -21.6170  -10.5380 C.ar    1  UNL1        0.1920
      5  N         23.0440  -21.8280  -11.7340 N.ar    1  UNL1       -0.3110
      6  S         22.9500  -21.8710   -8.9910 S.3     1  UNL1       -0.0810
      7  C         22.3810  -23.5880   -9.1820 C.3     1  UNL1        0.1850
      8  C         21.0660  -23.8230   -8.4570 C.2     1  UNL1        0.2310
      9  O         20.5020  -24.9120   -8.5370 O.2     1  UNL1       -0.2720
     10  N         20.6450  -22.7350   -7.7110 N.am    1  UNL1       -0.3260
     11  H         21.1730  -21.8700   -7.8360 H       1  UNL1        0.1690
     12  C         19.5050  -22.6470   -6.8860 C.2     1  UNL1        0.0370
     13  C         19.3730  -21.4890   -6.1040 C.2     1  UNL1        0.0320
     14  C         18.2710  -21.3190   -5.2590 C.2     1  UNL1        0.0420
     15  C         17.2940  -22.3080   -5.1870 C.2     1  UNL1        0.1020
     16  C         17.4150  -23.4610   -5.9690 C.2     1  UNL1        0.1040
     17  O         16.2410  -22.0770   -4.3380 O.2     1  UNL1       -0.3460
     18  C         18.5220  -23.6370   -6.8030 C.2     1  UNL1        0.0690
     19  O         16.4800  -24.4700   -5.9640 O.2     1  UNL1       -0.3460
     20  C         15.2360  -24.0110   -5.4270 C.3     1  UNL1        0.2020
     21  C         15.4630  -23.2590   -4.1260 C.3     1  UNL1        0.2020
     22  C         21.6730  -22.2460  -11.9520 C.3     1  UNL1        0.1370
     23  C         20.7130  -21.0610  -12.0810 C.3     1  UNL1        0.0590
     24  C         19.3560  -21.3840  -11.5090 C.2     1  UNL1       -0.0570
     25  C         18.2910  -20.4840  -11.6510 C.2     1  UNL1        0.0070
     26  C         17.0400  -20.7840  -11.1110 C.2     1  UNL1        0.0010
     27  C         16.8430  -21.9790  -10.4220 C.2     1  UNL1        0.0000
     28  C         17.8960  -22.8780  -10.2700 C.2     1  UNL1        0.0010
     29  C         19.1480  -22.5840  -10.8100 C.2     1  UNL1        0.0070
     30  C         23.8480  -21.8300  -14.1600 C.3     1  UNL1        0.1370
     31  C         24.9760  -22.5810  -14.8030 C.2     1  UNL1        0.0180
     32  C         25.4720  -23.8370  -14.4900 C.2     1  UNL1        0.0270
     33  C         26.6060  -24.0740  -15.3030 C.2     1  UNL1        0.0190
     34  C         26.7630  -22.9750  -16.1130 C.2     1  UNL1        0.0900
     35  N         25.7720  -22.0730  -15.8100 N.pl3   1  UNL1       -0.3640
     36  C         25.6410  -20.7710  -16.4430 C.3     1  UNL1        0.1550
@<TRIPOS>BOND
     1    36    35    1
     2    34    35    1
     3    34    33    2
     4    35    31    1
     5    33    32    1
     6    31    32    2
     7    31    30    1
     8    30     1    1
     9     1     2   ar
    10     1     5   ar
    11     2     3   ar
    12    23    22    1
    13    23    24    1
    14    22     5    1
    15     5     4   ar
    16    25    24    2
    17    25    26    1
    18    24    29    1
    19    26    27    2
    20    29    28    2
    21     3     4   ar
    22     4     6    1
    23    27    28    1
    24     7     6    1
    25     7     8    1
    26     9     8    2
    27     8    10   am
    28    11    10    1
    29    10    12    1
    30    12    18    2
    31    12    13    1
    32    18    16    1
    33    13    14    2
    34    16    19    1
    35    16    15    2
    36    19    20    1
    37    20    21    1
    38    14    15    1
    39    15    17    1
    40    17    21    1
