@<TRIPOS>MOLECULE
30399_out_ligand_01.pdbqt
 41 44 0 0 0
SMALL
GASTEIGER

@<TRIPOS>ATOM
      1  C         20.2790  -23.7940   -9.1810 C.ar    1  UNL1        0.1610
      2  N         21.5670  -24.1530   -8.9960 N.ar    1  UNL1       -0.1310
      3  N         22.5740  -23.5660   -9.7110 N.ar    1  UNL1       -0.1470
      4  C         22.2940  -22.6090  -10.6230 C.ar    1  UNL1        0.1000
      5  C         20.9740  -22.1890  -10.8720 C.ar    1  UNL1        0.0090
      6  C         20.6310  -21.2090  -11.8400 C.2     1  UNL1        0.0150
      7  C         19.3110  -20.8060  -12.0400 C.2     1  UNL1        0.0010
      8  C         18.2990  -21.3680  -11.2790 C.2     1  UNL1        0.0010
      9  C         18.6070  -22.3440  -10.3310 C.2     1  UNL1        0.0160
     10  C         19.9380  -22.7870  -10.1170 C.ar    1  UNL1        0.0240
     11  C         23.4870  -22.0670  -11.2910 C.2     1  UNL1       -0.0030
     12  C         24.5000  -21.4490  -10.5470 C.2     1  UNL1        0.0140
     13  C         25.6370  -20.9260  -11.1710 C.2     1  UNL1        0.0090
     14  C         25.7910  -20.9870  -12.5640 C.2     1  UNL1       -0.0390
     15  C         27.0460  -20.4220  -13.1690 C.3     1  UNL1        0.0500
     16  C         24.7710  -21.5960  -13.3180 C.2     1  UNL1        0.0810
     17  C         23.6330  -22.1270  -12.6860 C.2     1  UNL1        0.0390
     18  S         24.8710  -21.7500  -15.0960 S.O2    1  UNL1        0.2420
     19  O         23.5450  -22.0520  -15.5920 O.2     1  UNL1       -0.2060
     20  O         26.0020  -22.5880  -15.4170 O.2     1  UNL1       -0.2060
     21  N         25.1730  -20.1430  -15.5480 N.3     1  UNL1       -0.2070
     22  H         24.2790  -19.6490  -15.4810 H       1  UNL1        0.1400
     23  C         25.8300  -19.8490  -16.8650 C.3     1  UNL1        0.0140
     24  C         24.8880  -20.0950  -18.0470 C.3     1  UNL1        0.0320
     25  C         27.1210  -20.6600  -17.0070 C.3     1  UNL1        0.0320
     26  C         26.2030  -18.3530  -16.8360 C.3     1  UNL1        0.0320
     27  N         19.2470  -24.4380   -8.4460 N.pl3   1  UNL1       -0.3390
     28  H         19.5690  -25.3650   -8.1820 H       1  UNL1        0.1670
     29  C         18.4000  -23.8880   -7.4590 C.2     1  UNL1        0.0340
     30  C         17.1490  -24.4180   -7.1470 C.2     1  UNL1        0.0320
     31  C         16.3650  -23.8780   -6.1180 C.2     1  UNL1        0.0400
     32  C         16.8250  -22.8020   -5.3510 C.2     1  UNL1        0.0840
     33  C         18.1090  -22.2870   -5.6160 C.2     1  UNL1        0.0670
     34  C         18.8790  -22.8430   -6.6580 C.2     1  UNL1        0.0490
     35  O         16.0940  -22.2320   -4.3390 O.2     1  UNL1       -0.3550
     36  C         14.7010  -22.0340   -4.5590 C.3     1  UNL1        0.2100
     37  C         18.7520  -21.1610   -4.8660 C.2     1  UNL1        0.2520
     38  N         18.5540  -21.0770   -3.5200 N.am    1  UNL1       -0.3660
     39  H         18.9510  -20.2950   -3.0210 H       1  UNL1        0.1590
     40  H         17.9420  -21.7240   -3.0370 H       1  UNL1        0.1590
     41  O         19.4480  -20.3250   -5.4340 O.2     1  UNL1       -0.2680
@<TRIPOS>BOND
     1    24    23    1
     2    25    23    1
     3    23    26    1
     4    23    21    1
     5    19    18    2
     6    21    22    1
     7    21    18    1
     8    20    18    2
     9    18    16    1
    10    16    17    1
    11    16    14    2
    12    15    14    1
    13    17    11    2
    14    14    13    1
    15     7     6    2
    16     7     8    1
    17     6     5    1
    18    11     4    1
    19    11    12    1
    20     8     9    2
    21    13    12    2
    22     5     4   ar
    23     5    10   ar
    24     4     3   ar
    25     9    10    1
    26    10     1   ar
    27     3     2   ar
    28     1     2   ar
    29     1    27    1
    30    27    28    1
    31    27    29    1
    32    29    30    2
    33    29    34    1
    34    30    31    1
    35    34    33    2
    36    31    32    2
    37    33    32    1
    38    33    37    1
    39    41    37    2
    40    32    35    1
    41    37    38   am
    42    36    35    1
    43    38    40    1
    44    38    39    1
