@<TRIPOS>MOLECULE
30495_out_ligand_01.pdbqt
 37 41 0 0 0
SMALL
GASTEIGER

@<TRIPOS>ATOM
      1  C         20.5260  -22.4900   -8.9810 C.2     1  UNL1        0.0340
      2  C         21.7100  -22.7760   -8.2870 C.2     1  UNL1        0.0190
      3  C         22.9490  -22.7430   -8.9410 C.2     1  UNL1        0.0270
      4  C         23.0420  -22.4110  -10.2980 C.2     1  UNL1        0.0440
      5  C         21.8380  -22.1170  -10.9620 C.2     1  UNL1        0.1250
      6  C         20.5860  -22.1430  -10.3310 C.2     1  UNL1        0.0550
      7  C         19.2380  -22.5270   -8.2340 C.2     1  UNL1        0.2560
      8  O         18.2090  -22.6970   -8.8750 O.2     1  UNL1       -0.2670
      9  N         19.3440  -22.3240   -6.8700 N.am    1  UNL1       -0.3230
     10  H         20.2510  -22.0570   -6.5080 H       1  UNL1        0.1690
     11  C         18.3010  -22.3530   -5.9200 C.2     1  UNL1        0.0350
     12  C         18.5420  -21.7330   -4.6880 C.2     1  UNL1        0.0290
     13  C         17.5670  -21.7240   -3.6890 C.2     1  UNL1        0.0030
     14  C         16.3360  -22.3380   -3.9130 C.2     1  UNL1        0.0160
     15  C         16.0710  -22.9620   -5.1400 C.2     1  UNL1        0.0500
     16  C         17.0660  -22.9690   -6.1350 C.2     1  UNL1        0.0450
     17  C         14.7520  -23.6530   -5.3890 C.3     1  UNL1        0.4170
     18  F         14.7490  -24.4100   -6.5230 F       1  UNL1       -0.1660
     19  F         14.3920  -24.4960   -4.3830 F       1  UNL1       -0.1660
     20  F         13.7240  -22.7720   -5.5300 F       1  UNL1       -0.1660
     21  N         21.8640  -21.7670  -12.3650 N.pl3   1  UNL1       -0.1140
     22  O         21.1580  -20.8120  -12.7160 O.2     1  UNL1       -0.5320
     23  O         22.5090  -22.5140  -13.1140 O.2     1  UNL1       -0.5320
     24  N         24.2720  -22.3650  -10.9670 N.pl3   1  UNL1       -0.2800
     25  C         25.1870  -23.4580  -10.6070 C.3     1  UNL1        0.1020
     26  C         26.4340  -23.4500  -11.5110 C.3     1  UNL1        0.0180
     27  C         27.1210  -22.0890  -11.4600 C.3     1  UNL1        0.0190
     28  C         26.0980  -23.7940  -12.9680 C.3     1  UNL1        0.1380
     29  C         26.1200  -21.0500  -11.9660 C.3     1  UNL1        0.0500
     30  C         24.8920  -21.0280  -11.0280 C.3     1  UNL1        0.1060
     31  C         25.7110  -21.3570  -13.3970 C.2     1  UNL1        0.0200
     32  C         25.3850  -20.3690  -14.2480 C.2     1  UNL1        0.0260
     33  N         25.6760  -22.6870  -13.8280 N.am    1  UNL1       -0.3170
     34  C         24.9630  -20.6590  -15.5920 C.2     1  UNL1        0.0070
     35  C         24.9150  -21.9220  -16.0290 C.2     1  UNL1        0.0740
     36  C         25.3160  -23.0370  -15.1360 C.2     1  UNL1        0.2470
     37  O         25.3320  -24.1820  -15.5820 O.2     1  UNL1       -0.2680
@<TRIPOS>BOND
     1    35    34    2
     2    35    36    1
     3    34    32    1
     4    37    36    2
     5    36    33   am
     6    32    31    2
     7    33    31    1
     8    33    28    1
     9    31    29    1
    10    23    21    2
    11    28    26    1
    12    22    21    2
    13    21     5    1
    14    29    27    1
    15    29    30    1
    16    26    27    1
    17    26    25    1
    18    30    24    1
    19    24    25    1
    20    24     4    1
    21     5     6    1
    22     5     4    2
    23     6     1    2
    24     4     3    1
    25     1     2    1
    26     1     7    1
    27     3     2    2
    28     8     7    2
    29     7     9   am
    30     9    10    1
    31     9    11    1
    32    18    17    1
    33    16    11    2
    34    16    15    1
    35    11    12    1
    36    20    17    1
    37    17    15    1
    38    17    19    1
    39    15    14    2
    40    12    13    2
    41    14    13    1
