@<TRIPOS>MOLECULE
30606_out_ligand_01.pdbqt
 32 37 0 0 0
SMALL
GASTEIGER

@<TRIPOS>ATOM
      1  C         24.3930  -22.1170  -12.5540 C.2     1  UNL1        0.1240
      2  N         24.1970  -21.4900  -13.7330 N.2     1  UNL1       -0.2290
      3  C         22.9740  -21.0300  -14.0280 C.2     1  UNL1        0.2350
      4  N         21.8710  -21.1080  -13.2800 N.2     1  UNL1       -0.2400
      5  C         22.0560  -21.7320  -12.0870 C.ar    1  UNL1        0.0920
      6  C         23.2930  -22.2310  -11.6910 C.ar    1  UNL1        0.0770
      7  S         23.2040  -22.9510  -10.1320 S.2     1  UNL1       -0.0640
      8  C         21.5440  -22.6170   -9.9950 C.ar    1  UNL1        0.1120
      9  N         20.8690  -22.9850   -8.8830 N.ar    1  UNL1       -0.2390
     10  C         19.5550  -22.6570   -8.8550 C.ar    1  UNL1        0.0750
     11  C         18.9300  -22.0210   -9.9160 C.ar    1  UNL1       -0.0210
     12  C         19.6650  -21.6640  -11.0550 C.ar    1  UNL1       -0.0340
     13  C         21.0340  -21.9600  -11.1070 C.ar    1  UNL1        0.0370
     14  C         18.7860  -20.9650  -12.0580 C.3     1  UNL1        0.0400
     15  C         17.3970  -21.4050  -11.5880 C.3     1  UNL1        0.0090
     16  C         17.4980  -21.6070  -10.0700 C.3     1  UNL1        0.0420
     17  N         25.6580  -22.6160  -12.2200 N.pl3   1  UNL1       -0.2760
     18  H         25.8120  -22.5620  -11.2180 H       1  UNL1        0.1290
     19  C         25.9800  -23.9240  -12.7940 C.3     1  UNL1        0.0980
     20  C         26.9420  -23.8190  -13.9910 C.3     1  UNL1        0.0530
     21  C         26.2980  -23.4240  -15.3000 C.2     1  UNL1       -0.0570
     22  C         26.8630  -22.4240  -16.1040 C.2     1  UNL1        0.0070
     23  C         26.2440  -22.0380  -17.2930 C.2     1  UNL1        0.0010
     24  C         25.0590  -22.6510  -17.6950 C.2     1  UNL1        0.0000
     25  C         24.4960  -23.6550  -16.9120 C.2     1  UNL1        0.0010
     26  C         25.1150  -24.0440  -15.7230 C.2     1  UNL1        0.0070
     27  C         18.8520  -23.0500   -7.6230 C.2     1  UNL1       -0.0070
     28  C         18.2170  -24.2960   -7.4970 C.2     1  UNL1        0.0140
     29  C         17.5570  -24.6550   -6.3180 C.2     1  UNL1        0.0010
     30  C         17.5130  -23.7680   -5.2460 C.2     1  UNL1        0.0000
     31  C         18.1210  -22.5200   -5.3530 C.2     1  UNL1        0.0010
     32  C         18.7810  -22.1640   -6.5320 C.2     1  UNL1        0.0140
@<TRIPOS>BOND
     1    24    23    2
     2    24    25    1
     3    23    22    1
     4    25    26    2
     5    22    21    2
     6    26    21    1
     7    21    20    1
     8     3     2    1
     9     3     4    2
    10    20    19    1
    11     2     1    2
    12     4     5    1
    13    19    17    1
    14     1    17    1
    15     1     6    1
    16    17    18    1
    17     5     6   ar
    18     5    13   ar
    19    14    15    1
    20    14    12    1
    21     6     7   ar
    22    15    16    1
    23    13    12   ar
    24    13     8   ar
    25    12    11   ar
    26     7     8   ar
    27    16    11    1
    28     8     9   ar
    29    11    10   ar
    30     9    10   ar
    31    10    27    1
    32    27    28    2
    33    27    32    1
    34    28    29    1
    35    32    31    2
    36    29    30    2
    37    31    30    1
