@<TRIPOS>MOLECULE
30605_out_ligand_01.pdbqt
 43 46 0 0 0
SMALL
GASTEIGER

@<TRIPOS>ATOM
      1  C         20.1620  -23.9890   -9.0330 C.ar    1  UNL1        0.1610
      2  N         21.4380  -24.3590   -8.7920 N.ar    1  UNL1       -0.1310
      3  N         22.4750  -23.8370   -9.5120 N.ar    1  UNL1       -0.1470
      4  C         22.2380  -22.9370  -10.4890 C.ar    1  UNL1        0.1000
      5  C         20.9390  -22.4810  -10.7770 C.ar    1  UNL1        0.0090
      6  C         20.6520  -21.5040  -11.7640 C.2     1  UNL1        0.0150
      7  C         19.3500  -21.0720  -12.0120 C.2     1  UNL1        0.0010
      8  C         18.3010  -21.5950  -11.2740 C.2     1  UNL1        0.0010
      9  C         18.5570  -22.5530  -10.2910 C.2     1  UNL1        0.0160
     10  C         19.8690  -23.0210  -10.0230 C.ar    1  UNL1        0.0240
     11  C         23.4490  -22.4980  -11.1950 C.2     1  UNL1       -0.0030
     12  C         24.7130  -22.6640  -10.6140 C.2     1  UNL1        0.0140
     13  C         25.8730  -22.2630  -11.2850 C.2     1  UNL1        0.0090
     14  C         25.8080  -21.6800  -12.5590 C.2     1  UNL1       -0.0390
     15  C         27.0940  -21.2980  -13.2370 C.3     1  UNL1        0.0500
     16  C         24.5420  -21.5210  -13.1530 C.2     1  UNL1        0.0810
     17  C         23.3790  -21.9320  -12.4770 C.2     1  UNL1        0.0390
     18  S         24.3430  -20.8280  -14.7890 S.O2    1  UNL1        0.2420
     19  O         22.9740  -20.4000  -14.9360 O.2     1  UNL1       -0.2060
     20  O         25.4540  -19.9330  -15.0320 O.2     1  UNL1       -0.2060
     21  N         24.6570  -22.1850  -15.7630 N.3     1  UNL1       -0.2050
     22  H         25.2880  -22.7710  -15.2090 H       1  UNL1        0.1410
     23  C         25.2480  -21.9940  -17.1430 C.3     1  UNL1        0.0390
     24  C         26.7640  -22.2290  -17.1430 C.3     1  UNL1        0.0350
     25  C         24.9200  -20.5940  -17.6790 C.3     1  UNL1        0.0350
     26  C         24.5620  -23.0480  -18.0650 C.3     1  UNL1        0.1890
     27  O         23.2520  -23.3840  -17.6250 O.3     1  UNL1       -0.3990
     28  H         23.1940  -24.3550  -17.6040 H       1  UNL1        0.2090
     29  N         19.0970  -24.5730   -8.2930 N.pl3   1  UNL1       -0.3390
     30  H         19.3600  -25.5220   -8.0420 H       1  UNL1        0.1670
     31  C         18.2960  -23.9810   -7.2930 C.2     1  UNL1        0.0340
     32  C         17.0620  -24.4970   -6.8990 C.2     1  UNL1        0.0320
     33  C         16.3260  -23.9110   -5.8610 C.2     1  UNL1        0.0400
     34  C         16.8180  -22.8010   -5.1650 C.2     1  UNL1        0.0840
     35  C         18.0850  -22.2960   -5.5140 C.2     1  UNL1        0.0670
     36  C         18.8090  -22.9010   -6.5640 C.2     1  UNL1        0.0490
     37  O         16.1340  -22.1900   -4.1440 O.2     1  UNL1       -0.3550
     38  C         14.7170  -22.1020   -4.2540 C.3     1  UNL1        0.2100
     39  C         18.7600  -21.1370   -4.8470 C.2     1  UNL1        0.2520
     40  N         18.5850  -20.9650   -3.5070 N.am    1  UNL1       -0.3660
     41  H         19.0440  -20.1870   -3.0530 H       1  UNL1        0.1590
     42  H         18.0180  -21.6040   -2.9620 H       1  UNL1        0.1590
     43  O         19.4600  -20.3520   -5.4790 O.2     1  UNL1       -0.2680
@<TRIPOS>BOND
     1    26    27    1
     2    26    23    1
     3    25    23    1
     4    27    28    1
     5    24    23    1
     6    23    21    1
     7    21    22    1
     8    21    18    1
     9    20    18    2
    10    19    18    2
    11    18    16    1
    12    15    14    1
    13    16    14    2
    14    16    17    1
    15    14    13    1
    16    17    11    2
    17     7     6    2
    18     7     8    1
    19     6     5    1
    20    13    12    2
    21     8     9    2
    22    11    12    1
    23    11     4    1
    24     5     4   ar
    25     5    10   ar
    26     4     3   ar
    27     9    10    1
    28    10     1   ar
    29     3     2   ar
    30     1     2   ar
    31     1    29    1
    32    29    30    1
    33    29    31    1
    34    31    32    2
    35    31    36    1
    36    32    33    1
    37    36    35    2
    38    33    34    2
    39    35    34    1
    40    35    39    1
    41    43    39    2
    42    34    37    1
    43    39    40   am
    44    38    37    1
    45    40    41    1
    46    40    42    1
