@<TRIPOS>MOLECULE
30615_out_ligand_01.pdbqt
 29 33 0 0 0
SMALL
GASTEIGER

@<TRIPOS>ATOM
      1  C         24.4680  -22.1390  -12.2170 C.2     1  UNL1        0.1440
      2  N         24.2750  -21.6960  -13.4800 N.2     1  UNL1       -0.2230
      3  C         23.0310  -21.3730  -13.8700 C.2     1  UNL1        0.2360
      4  N         21.9110  -21.4380  -13.1500 N.2     1  UNL1       -0.2400
      5  C         22.0880  -21.8940  -11.8840 C.ar    1  UNL1        0.0920
      6  C         23.3400  -22.2500  -11.3910 C.ar    1  UNL1        0.0820
      7  S         23.2340  -22.7840   -9.7590 S.2     1  UNL1       -0.0630
      8  C         21.5520  -22.5490   -9.7150 C.ar    1  UNL1        0.1120
      9  N         20.8580  -22.8320   -8.5900 N.ar    1  UNL1       -0.2390
     10  C         19.5210  -22.6320   -8.6560 C.ar    1  UNL1        0.0750
     11  C         18.9050  -22.1260   -9.7910 C.ar    1  UNL1       -0.0210
     12  C         19.6610  -21.8370  -10.9340 C.ar    1  UNL1       -0.0340
     13  C         21.0450  -22.0620  -10.9120 C.ar    1  UNL1        0.0370
     14  C         18.7800  -21.3310  -12.0420 C.3     1  UNL1        0.0400
     15  C         17.5380  -20.8990  -11.2560 C.3     1  UNL1        0.0090
     16  C         17.4570  -21.8230  -10.0330 C.3     1  UNL1        0.0420
     17  N         25.7400  -22.5020  -11.7820 N.pl3   1  UNL1       -0.3730
     18  H         25.7190  -23.0300  -10.9130 H       1  UNL1        0.1610
     19  C         26.8040  -21.5130  -11.8740 C.3     1  UNL1        0.1230
     20  C         26.4310  -20.2340  -11.1280 C.3     1  UNL1        0.0450
     21  C         26.9810  -18.9560  -11.7490 C.3     1  UNL1        0.1650
     22  O         26.7790  -17.8410  -10.8910 O.3     1  UNL1       -0.4010
     23  H         25.8510  -17.5610  -11.0470 H       1  UNL1        0.2090
     24  C         18.7890  -22.9730   -7.4250 C.2     1  UNL1       -0.0070
     25  C         18.1490  -24.2190   -7.2990 C.2     1  UNL1        0.0140
     26  C         17.4530  -24.5610   -6.1380 C.2     1  UNL1        0.0010
     27  C         17.3740  -23.6580   -5.0810 C.2     1  UNL1        0.0000
     28  C         17.9860  -22.4110   -5.1890 C.2     1  UNL1        0.0010
     29  C         18.6830  -22.0710   -6.3510 C.2     1  UNL1        0.0140
@<TRIPOS>BOND
     1     3     2    1
     2     3     4    2
     3     2     1    2
     4     4     5    1
     5     1    17    1
     6     1     6    1
     7    14    15    1
     8    14    12    1
     9     5     6   ar
    10     5    13   ar
    11    19    17    1
    12    19    20    1
    13    17    18    1
    14    21    20    1
    15    21    22    1
    16     6     7   ar
    17    15    16    1
    18    23    22    1
    19    12    13   ar
    20    12    11   ar
    21    13     8   ar
    22    16    11    1
    23    11    10   ar
    24     7     8   ar
    25     8     9   ar
    26    10     9   ar
    27    10    24    1
    28    24    25    2
    29    24    29    1
    30    25    26    1
    31    29    28    2
    32    26    27    2
    33    28    27    1
