@<TRIPOS>MOLECULE
30638_out_ligand_01.pdbqt
 32 37 0 0 0
SMALL
GASTEIGER

@<TRIPOS>ATOM
      1  C         19.2940  -22.4890   -8.2030 C.ar    1  UNL1        0.0750
      2  N         20.6430  -22.5460   -8.1090 N.ar    1  UNL1       -0.2390
      3  C         21.3250  -22.2830   -9.2450 C.ar    1  UNL1        0.1120
      4  S         23.0230  -22.3210   -9.2510 S.2     1  UNL1       -0.0640
      5  C         23.1000  -21.9340  -10.9240 C.ar    1  UNL1        0.0770
      6  C         24.2230  -21.7680  -11.7460 C.2     1  UNL1        0.1240
      7  N         24.0060  -21.4570  -13.0430 N.2     1  UNL1       -0.2290
      8  C         22.7460  -21.3340  -13.4780 C.2     1  UNL1        0.2350
      9  N         21.6230  -21.4680  -12.7700 N.2     1  UNL1       -0.2400
     10  C         21.8260  -21.7770  -11.4620 C.ar    1  UNL1        0.0920
     11  C         20.7900  -21.9720  -10.4880 C.ar    1  UNL1        0.0370
     12  C         19.3900  -21.9260  -10.5490 C.ar    1  UNL1       -0.0340
     13  C         18.6460  -22.1840   -9.3890 C.ar    1  UNL1       -0.0210
     14  C         17.1790  -22.1610   -9.6970 C.3     1  UNL1        0.0420
     15  C         17.1550  -21.3870  -11.0210 C.3     1  UNL1        0.0090
     16  C         18.4810  -21.6890  -11.7250 C.3     1  UNL1        0.0400
     17  N         25.5270  -21.9280  -11.2640 N.pl3   1  UNL1       -0.2740
     18  H         25.7870  -21.1060  -10.7120 H       1  UNL1        0.1290
     19  C         26.5440  -22.2000  -12.2800 C.3     1  UNL1        0.1240
     20  C         26.4380  -23.6580  -12.7900 C.3     1  UNL1        0.2870
     21  N         27.1210  -23.8730  -14.0890 N.3     1  UNL1        0.0930
     22  C         26.6680  -22.8920  -15.1020 C.3     1  UNL1        0.2980
     23  C         25.2570  -23.1640  -15.6480 C.3     1  UNL1        0.1980
     24  O         25.1540  -24.4850  -16.1910 O.3     1  UNL1       -0.3880
     25  C         25.4980  -25.4690  -15.2070 C.3     1  UNL1        0.1980
     26  C         26.9080  -25.2310  -14.6400 C.3     1  UNL1        0.2980
     27  C         18.5820  -22.8030   -6.9560 C.2     1  UNL1       -0.0070
     28  C         18.0410  -24.0830   -6.7480 C.2     1  UNL1        0.0140
     29  C         17.3610  -24.3960   -5.5690 C.2     1  UNL1        0.0010
     30  C         17.2170  -23.4340   -4.5730 C.2     1  UNL1        0.0000
     31  C         17.7590  -22.1640   -4.7510 C.2     1  UNL1        0.0010
     32  C         18.4400  -21.8530   -5.9310 C.2     1  UNL1        0.0140
@<TRIPOS>BOND
     1    24    23    1
     2    24    25    1
     3    23    22    1
     4    25    26    1
     5    22    21    1
     6    26    21    1
     7    21    20    1
     8     8     7    2
     9     8     9    1
    10     7     6    1
    11    20    19    1
    12     9    10    2
    13    19    17    1
    14     6    17    1
    15     6     5    2
    16    16    15    1
    17    16    12    1
    18    10     5   ar
    19    10    11   ar
    20    17    18    1
    21    15    14    1
    22     5     4   ar
    23    12    11   ar
    24    12    13   ar
    25    11     3   ar
    26    14    13    1
    27    13     1   ar
    28     4     3   ar
    29     3     2   ar
    30     1     2   ar
    31     1    27    1
    32    27    28    2
    33    27    32    1
    34    28    29    1
    35    32    31    2
    36    29    30    2
    37    31    30    1
