@<TRIPOS>MOLECULE
30639_out_ligand_01.pdbqt
 41 45 0 0 0
SMALL
GASTEIGER

@<TRIPOS>ATOM
      1  C         20.1010  -24.0990   -8.7710 C.ar    1  UNL1        0.1610
      2  N         21.3750  -24.4170   -8.4690 N.ar    1  UNL1       -0.1310
      3  N         22.4210  -23.8840   -9.1690 N.ar    1  UNL1       -0.1470
      4  C         22.1990  -23.0090  -10.1760 C.ar    1  UNL1        0.1000
      5  C         20.8940  -22.5960  -10.5130 C.ar    1  UNL1        0.0090
      6  C         20.5980  -21.6280  -11.5100 C.2     1  UNL1        0.0150
      7  C         19.2880  -21.2570  -11.8140 C.2     1  UNL1        0.0010
      8  C         18.2340  -21.8260  -11.1180 C.2     1  UNL1        0.0010
      9  C         18.4950  -22.7610  -10.1180 C.2     1  UNL1        0.0160
     10  C         19.8150  -23.1680   -9.7940 C.ar    1  UNL1        0.0240
     11  C         23.4340  -22.5730  -10.8530 C.2     1  UNL1       -0.0030
     12  C         24.1430  -21.4520  -10.3950 C.2     1  UNL1        0.0140
     13  C         25.3260  -21.0370  -11.0170 C.2     1  UNL1        0.0090
     14  C         25.8510  -21.7280  -12.1220 C.2     1  UNL1       -0.0390
     15  C         27.1200  -21.2110  -12.7380 C.3     1  UNL1        0.0500
     16  C         25.1600  -22.8650  -12.5740 C.2     1  UNL1        0.0860
     17  C         23.9730  -23.2800  -11.9380 C.2     1  UNL1        0.0390
     18  S         25.6660  -23.8460  -13.9760 S.O2    1  UNL1        0.2590
     19  O         27.1120  -23.7990  -14.0230 O.2     1  UNL1       -0.2010
     20  O         24.9600  -25.1030  -14.0120 O.2     1  UNL1       -0.2010
     21  N         25.1390  -22.9270  -15.2650 N.3     1  UNL1       -0.3130
     22  H         24.1390  -22.9680  -15.4530 H       1  UNL1        0.1720
     23  C         25.9550  -21.8520  -15.8270 C.3     1  UNL1        0.1640
     24  C         25.1550  -20.5850  -16.1720 C.3     1  UNL1        0.1400
     25  C         25.0800  -20.2720  -17.6650 C.3     1  UNL1        0.0350
     26  C         26.3040  -19.4200  -17.8840 C.3     1  UNL1        0.0290
     27  C         26.3270  -18.6000  -16.6120 C.3     1  UNL1        0.1680
     28  O         25.8360  -19.4570  -15.5680 O.3     1  UNL1       -0.3840
     29  N         19.0290  -24.7080   -8.0610 N.pl3   1  UNL1       -0.3390
     30  H         19.3660  -25.5610   -7.6290 H       1  UNL1        0.1670
     31  C         18.0210  -24.0880   -7.2920 C.2     1  UNL1        0.0330
     32  C         16.6790  -24.4210   -7.5370 C.2     1  UNL1        0.0300
     33  C         15.6390  -23.7630   -6.8700 C.2     1  UNL1        0.0190
     34  C         15.9250  -22.7310   -5.9720 C.2     1  UNL1        0.0320
     35  C         17.2520  -22.3810   -5.7230 C.2     1  UNL1        0.0190
     36  C         18.2870  -23.0450   -6.3930 C.2     1  UNL1        0.0300
     37  C         14.7920  -22.0240   -5.3160 C.2     1  UNL1        0.2510
     38  N         13.8560  -21.4640   -6.1630 N.am    1  UNL1       -0.3610
     39  C         12.6970  -20.7780   -5.6510 C.3     1  UNL1        0.1490
     40  H         13.9350  -21.6010   -7.1620 H       1  UNL1        0.1620
     41  O         14.7100  -21.9950   -4.0940 O.2     1  UNL1       -0.2680
@<TRIPOS>BOND
     1    26    25    1
     2    26    27    1
     3    25    24    1
     4    27    28    1
     5    24    23    1
     6    24    28    1
     7    23    21    1
     8    22    21    1
     9    21    18    1
    10    19    18    2
    11    20    18    2
    12    18    16    1
    13    15    14    1
    14    16    14    2
    15    16    17    1
    16    14    13    1
    17    17    11    2
    18     7     6    2
    19     7     8    1
    20     6     5    1
    21     8     9    2
    22    13    12    2
    23    11    12    1
    24    11     4    1
    25     5     4   ar
    26     5    10   ar
    27     4     3   ar
    28     9    10    1
    29    10     1   ar
    30     3     2   ar
    31     1     2   ar
    32     1    29    1
    33    29    30    1
    34    29    31    1
    35    32    31    2
    36    32    33    1
    37    31    36    1
    38    40    38    1
    39    33    34    2
    40    36    35    2
    41    38    39    1
    42    38    37   am
    43    34    35    1
    44    34    37    1
    45    37    41    2
