@<TRIPOS>MOLECULE
30641_out_ligand_01.pdbqt
 30 35 0 0 0
SMALL
GASTEIGER

@<TRIPOS>ATOM
      1  C         18.8600  -22.4710   -7.1680 C.ar    1  UNL1        0.0750
      2  N         20.2100  -22.4420   -7.2730 N.ar    1  UNL1       -0.2390
      3  C         20.7000  -22.2610   -8.5180 C.ar    1  UNL1        0.1120
      4  S         22.3800  -22.1820   -8.7700 S.2     1  UNL1       -0.0630
      5  C         22.1880  -21.9460  -10.4630 C.ar    1  UNL1        0.0820
      6  C         23.1710  -21.7800  -11.4520 C.2     1  UNL1        0.1440
      7  N         22.7440  -21.6150  -12.7220 N.2     1  UNL1       -0.2230
      8  C         21.4300  -21.6120  -12.9760 C.2     1  UNL1        0.2360
      9  N         20.4330  -21.7650  -12.1020 N.2     1  UNL1       -0.2400
     10  C         20.8430  -21.9340  -10.8190 C.ar    1  UNL1        0.0920
     11  C         19.9730  -22.1190   -9.6930 C.ar    1  UNL1        0.0370
     12  C         18.5800  -22.1850   -9.5500 C.ar    1  UNL1       -0.0340
     13  C         18.0310  -22.3650   -8.2730 C.ar    1  UNL1       -0.0210
     14  C         16.5340  -22.3970   -8.3500 C.3     1  UNL1        0.0420
     15  C         16.3090  -22.6890   -9.8390 C.3     1  UNL1        0.0090
     16  C         17.4940  -22.0670  -10.5850 C.3     1  UNL1        0.0400
     17  N         24.5240  -21.7720  -11.1420 N.pl3   1  UNL1       -0.3690
     18  H         24.6960  -21.9900  -10.1640 H       1  UNL1        0.1610
     19  C         25.5340  -22.2820  -12.0660 C.3     1  UNL1        0.0830
     20  C         25.9630  -21.2360  -13.1080 C.3     1  UNL1        0.0250
     21  C         26.3600  -21.8570  -14.4490 C.3     1  UNL1        0.0020
     22  C         27.1210  -23.1630  -14.2540 C.3     1  UNL1        0.0000
     23  C         26.2950  -24.2180  -13.5130 C.3     1  UNL1        0.0020
     24  C         25.1530  -23.6340  -12.6790 C.3     1  UNL1        0.0250
     25  C         18.3550  -22.6460   -5.7950 C.2     1  UNL1       -0.0070
     26  C         17.7150  -23.8280   -5.3860 C.2     1  UNL1        0.0140
     27  C         17.2440  -23.9790   -4.0790 C.2     1  UNL1        0.0010
     28  C         17.3990  -22.9470   -3.1580 C.2     1  UNL1        0.0000
     29  C         18.0170  -21.7610   -3.5440 C.2     1  UNL1        0.0010
     30  C         18.4870  -21.6110   -4.8520 C.2     1  UNL1        0.0140
@<TRIPOS>BOND
     1    21    22    1
     2    21    20    1
     3    22    23    1
     4    23    24    1
     5    20    19    1
     6     8     7    2
     7     8     9    1
     8     7     6    1
     9    24    19    1
    10     9    10    2
    11    19    17    1
    12     6    17    1
    13     6     5    2
    14    17    18    1
    15    10     5   ar
    16    10    11   ar
    17    16    15    1
    18    16    12    1
    19     5     4   ar
    20    15    14    1
    21    11    12   ar
    22    11     3   ar
    23    12    13   ar
    24     4     3   ar
    25     3     2   ar
    26    14    13    1
    27    13     1   ar
    28     2     1   ar
    29     1    25    1
    30    25    26    2
    31    25    30    1
    32    26    27    1
    33    30    29    2
    34    27    28    2
    35    29    28    1
