@<TRIPOS>MOLECULE
30646_out_ligand_01.pdbqt
 28 32 0 0 0
SMALL
GASTEIGER

@<TRIPOS>ATOM
      1  C         24.4840  -22.2390  -12.2920 C.2     1  UNL1        0.1240
      2  N         24.2970  -21.7370  -13.5320 N.2     1  UNL1       -0.2290
      3  C         23.0620  -21.3700  -13.9040 C.2     1  UNL1        0.2350
      4  N         21.9440  -21.4280  -13.1790 N.2     1  UNL1       -0.2400
      5  C         22.1180  -21.9290  -11.9280 C.ar    1  UNL1        0.0920
      6  C         23.3620  -22.3410  -11.4590 C.ar    1  UNL1        0.0770
      7  S         23.2540  -22.9270   -9.8460 S.2     1  UNL1       -0.0640
      8  C         21.5800  -22.6390   -9.7780 C.ar    1  UNL1        0.1120
      9  N         20.8850  -22.9440   -8.6590 N.ar    1  UNL1       -0.2390
     10  C         19.5580  -22.6770   -8.7000 C.ar    1  UNL1        0.0750
     11  C         18.9450  -22.1300   -9.8150 C.ar    1  UNL1       -0.0210
     12  C         19.7000  -21.8360  -10.9580 C.ar    1  UNL1       -0.0340
     13  C         21.0790  -22.0950  -10.9520 C.ar    1  UNL1        0.0370
     14  C         18.8200  -21.3170  -12.0620 C.3     1  UNL1        0.0400
     15  C         17.5660  -20.9170  -11.2810 C.3     1  UNL1        0.0090
     16  C         17.4930  -21.8520  -10.0650 C.3     1  UNL1        0.0420
     17  N         25.7530  -22.6510  -11.8790 N.pl3   1  UNL1       -0.2760
     18  H         25.7120  -23.2030  -11.0280 H       1  UNL1        0.1290
     19  C         26.7970  -21.6390  -11.9200 C.3     1  UNL1        0.0940
     20  C         26.4150  -20.4500  -11.0350 C.3     1  UNL1        0.0140
     21  C         26.8210  -19.1060  -11.6470 C.3     1  UNL1       -0.0030
     22  C         26.8320  -19.1700  -13.1670 C.3     1  UNL1        0.0050
     23  C         18.8260  -23.0410   -7.4780 C.2     1  UNL1       -0.0070
     24  C         18.7650  -22.1500   -6.3940 C.2     1  UNL1        0.0140
     25  C         18.0730  -22.4820   -5.2260 C.2     1  UNL1        0.0010
     26  C         17.4230  -23.7100   -5.1260 C.2     1  UNL1        0.0000
     27  C         17.4560  -24.6010   -6.1970 C.2     1  UNL1        0.0010
     28  C         18.1480  -24.2670   -7.3640 C.2     1  UNL1        0.0140
@<TRIPOS>BOND
     1     3     2    1
     2     3     4    2
     3     2     1    2
     4     4     5    1
     5    22    21    1
     6     1    17    1
     7     1     6    1
     8    14    15    1
     9    14    12    1
    10     5     6   ar
    11     5    13   ar
    12    19    17    1
    13    19    20    1
    14    17    18    1
    15    21    20    1
    16     6     7   ar
    17    15    16    1
    18    12    13   ar
    19    12    11   ar
    20    13     8   ar
    21    16    11    1
    22     7     8   ar
    23    11    10   ar
    24     8     9   ar
    25    10     9   ar
    26    10    23    1
    27    23    28    2
    28    23    24    1
    29    28    27    1
    30    24    25    2
    31    27    26    2
    32    25    26    1
