@<TRIPOS>MOLECULE
30653_out_ligand_01.pdbqt
 43 47 0 0 0
SMALL
GASTEIGER

@<TRIPOS>ATOM
      1  C         20.0830  -23.9720   -9.0280 C.ar    1  UNL1        0.1610
      2  N         21.3290  -24.4340   -8.8110 N.ar    1  UNL1       -0.1310
      3  N         22.3950  -23.9440   -9.5120 N.ar    1  UNL1       -0.1470
      4  C         22.2200  -22.9810  -10.4440 C.ar    1  UNL1        0.1000
      5  C         20.9420  -22.4660  -10.7360 C.ar    1  UNL1        0.0090
      6  C         20.6900  -21.4950  -11.7400 C.2     1  UNL1        0.0150
      7  C         19.4090  -20.9960  -11.9790 C.2     1  UNL1        0.0010
      8  C         18.3430  -21.4530  -11.2220 C.2     1  UNL1        0.0010
      9  C         18.5570  -22.4240  -10.2430 C.2     1  UNL1        0.0160
     10  C         19.8450  -22.9630   -9.9900 C.ar    1  UNL1        0.0240
     11  C         23.4730  -22.5590  -11.0930 C.2     1  UNL1       -0.0030
     12  C         24.2290  -21.5050  -10.5580 C.2     1  UNL1        0.0140
     13  C         25.4020  -21.0660  -11.1780 C.2     1  UNL1        0.0090
     14  C         25.8690  -21.6650  -12.3580 C.2     1  UNL1       -0.0390
     15  C         27.1190  -21.1180  -12.9870 C.3     1  UNL1        0.0500
     16  C         25.1200  -22.7260  -12.9020 C.2     1  UNL1        0.0860
     17  C         23.9300  -23.1520  -12.2820 C.2     1  UNL1        0.0390
     18  S         25.6160  -23.5710  -14.3980 S.O2    1  UNL1        0.2590
     19  O         25.2750  -24.9690  -14.2670 O.2     1  UNL1       -0.2010
     20  O         26.9600  -23.1480  -14.7270 O.2     1  UNL1       -0.2010
     21  N         24.6090  -22.9220  -15.5620 N.3     1  UNL1       -0.3130
     22  H         23.9330  -22.2360  -15.2240 H       1  UNL1        0.1720
     23  C         25.0900  -22.7450  -16.9380 C.3     1  UNL1        0.1640
     24  C         25.1690  -21.2460  -17.2390 C.3     1  UNL1        0.1400
     25  C         26.4400  -20.8390  -17.9620 C.3     1  UNL1        0.0350
     26  C         26.5650  -19.3900  -17.5610 C.3     1  UNL1        0.0290
     27  C         26.1000  -19.4180  -16.1200 C.3     1  UNL1        0.1680
     28  O         25.1640  -20.5000  -16.0000 O.3     1  UNL1       -0.3840
     29  N         18.9820  -24.5380   -8.3250 N.pl3   1  UNL1       -0.3390
     30  H         19.1890  -25.5190   -8.1590 H       1  UNL1        0.1670
     31  C         18.2770  -23.9630   -7.2450 C.2     1  UNL1        0.0340
     32  C         16.9780  -24.4000   -6.9640 C.2     1  UNL1        0.0320
     33  C         16.2260  -23.8250   -5.9330 C.2     1  UNL1        0.0400
     34  C         16.7430  -22.7730   -5.1670 C.2     1  UNL1        0.0840
     35  C         18.0360  -22.2970   -5.4620 C.2     1  UNL1        0.0670
     36  C         18.7790  -22.8910   -6.5020 C.2     1  UNL1        0.0490
     37  O         16.0460  -22.1660   -4.1530 O.2     1  UNL1       -0.3550
     38  C         14.6250  -22.1320   -4.2450 C.3     1  UNL1        0.2100
     39  C         18.7030  -21.1630   -4.7450 C.2     1  UNL1        0.2520
     40  N         18.5060  -21.0440   -3.3990 N.am    1  UNL1       -0.3660
     41  H         18.8770  -20.2220   -2.9430 H       1  UNL1        0.1590
     42  H         17.7950  -21.5950   -2.9330 H       1  UNL1        0.1590
     43  O         19.4120  -20.3530   -5.3310 O.2     1  UNL1       -0.2680
@<TRIPOS>BOND
     1    25    26    1
     2    25    24    1
     3    26    27    1
     4    24    23    1
     5    24    28    1
     6    23    21    1
     7    27    28    1
     8    21    22    1
     9    21    18    1
    10    20    18    2
    11    18    19    2
    12    18    16    1
    13    15    14    1
    14    16    14    2
    15    16    17    1
    16    14    13    1
    17    17    11    2
    18     7     6    2
    19     7     8    1
    20     6     5    1
    21     8     9    2
    22    13    12    2
    23    11    12    1
    24    11     4    1
    25     5     4   ar
    26     5    10   ar
    27     4     3   ar
    28     9    10    1
    29    10     1   ar
    30     3     2   ar
    31     1     2   ar
    32     1    29    1
    33    29    30    1
    34    29    31    1
    35    31    32    2
    36    31    36    1
    37    32    33    1
    38    36    35    2
    39    33    34    2
    40    35    34    1
    41    35    39    1
    42    43    39    2
    43    34    37    1
    44    39    40   am
    45    38    37    1
    46    40    41    1
    47    40    42    1
