@<TRIPOS>MOLECULE
30650_out_ligand_01.pdbqt
 43 46 0 0 0
SMALL
GASTEIGER

@<TRIPOS>ATOM
      1  C         20.1330  -24.0720   -9.1580 C.ar    1  UNL1        0.1610
      2  N         21.4080  -24.4510   -8.9290 N.ar    1  UNL1       -0.1310
      3  N         22.4510  -23.8400   -9.5680 N.ar    1  UNL1       -0.1470
      4  C         22.2180  -22.8420  -10.4520 C.ar    1  UNL1        0.1000
      5  C         20.9130  -22.4180  -10.7630 C.ar    1  UNL1        0.0090
      6  C         20.6170  -21.4110  -11.7180 C.2     1  UNL1        0.0150
      7  C         19.3060  -21.0260  -11.9980 C.2     1  UNL1        0.0010
      8  C         18.2530  -21.6450  -11.3430 C.2     1  UNL1        0.0010
      9  C         18.5160  -22.6460  -10.4080 C.2     1  UNL1        0.0160
     10  C         19.8390  -23.0520  -10.0930 C.ar    1  UNL1        0.0240
     11  C         23.4460  -22.2610  -11.0140 C.2     1  UNL1       -0.0030
     12  C         24.5970  -22.1180  -10.2310 C.2     1  UNL1        0.0140
     13  C         25.7640  -21.5550  -10.7590 C.2     1  UNL1        0.0090
     14  C         25.8170  -21.0980  -12.0860 C.2     1  UNL1       -0.0390
     15  C         27.1180  -20.5400  -12.5900 C.3     1  UNL1        0.0500
     16  C         24.6490  -21.1910  -12.8620 C.2     1  UNL1        0.0860
     17  C         23.4890  -21.7890  -12.3350 C.2     1  UNL1        0.0390
     18  S         24.5340  -20.6230  -14.5500 S.O2    1  UNL1        0.2600
     19  O         25.3530  -19.4310  -14.6240 O.2     1  UNL1       -0.2000
     20  O         23.1570  -20.6090  -14.9810 O.2     1  UNL1       -0.2000
     21  N         25.3310  -21.7910  -15.4330 N.3     1  UNL1       -0.3040
     22  H         25.2930  -22.7230  -15.0110 H       1  UNL1        0.1730
     23  C         25.5820  -21.8030  -16.8980 C.3     1  UNL1        0.0540
     24  C         25.0530  -20.5830  -17.6450 C.3     1  UNL1        0.0410
     25  C         27.1170  -21.8380  -17.0490 C.3     1  UNL1        0.0410
     26  C         24.9810  -23.0930  -17.5060 C.3     1  UNL1        0.1940
     27  O         24.9050  -24.1300  -16.5220 O.3     1  UNL1       -0.3980
     28  H         24.6520  -24.9440  -17.0010 H       1  UNL1        0.2090
     29  N         19.0710  -24.6910   -8.4440 N.pl3   1  UNL1       -0.3390
     30  H         18.4970  -25.2150   -9.0970 H       1  UNL1        0.1670
     31  C         18.3150  -24.1530   -7.3800 C.2     1  UNL1        0.0340
     32  C         18.8130  -23.0550   -6.6690 C.2     1  UNL1        0.0490
     33  C         18.0700  -22.4270   -5.6460 C.2     1  UNL1        0.0670
     34  C         16.7750  -22.8940   -5.3470 C.2     1  UNL1        0.0840
     35  C         16.2640  -23.9720   -6.0800 C.2     1  UNL1        0.0400
     36  C         17.0230  -24.5860   -7.0840 C.2     1  UNL1        0.0320
     37  C         18.7550  -21.2830   -4.9510 C.2     1  UNL1        0.2540
     38  N         19.5860  -20.4870   -5.7000 N.am    1  UNL1       -0.3610
     39  C         20.3710  -19.4350   -5.1100 C.3     1  UNL1        0.1490
     40  H         19.7860  -20.7760   -6.6520 H       1  UNL1        0.1620
     41  O         18.5610  -21.0840   -3.7550 O.2     1  UNL1       -0.2680
     42  O         16.0590  -22.2450   -4.3720 O.2     1  UNL1       -0.3550
     43  C         14.6460  -22.1550   -4.5350 C.3     1  UNL1        0.2100
@<TRIPOS>BOND
     1    24    23    1
     2    26    23    1
     3    26    27    1
     4    25    23    1
     5    28    27    1
     6    23    21    1
     7    21    22    1
     8    21    18    1
     9    20    18    2
    10    19    18    2
    11    18    16    1
    12    16    17    1
    13    16    14    2
    14    15    14    1
    15    17    11    2
    16    14    13    1
    17     7     6    2
    18     7     8    1
    19     6     5    1
    20     8     9    2
    21    11     4    1
    22    11    12    1
    23     5     4   ar
    24     5    10   ar
    25    13    12    2
    26     4     3   ar
    27     9    10    1
    28    10     1   ar
    29     3     2   ar
    30     1     2   ar
    31     1    29    1
    32    30    29    1
    33    29    31    1
    34    31    36    2
    35    31    32    1
    36    36    35    1
    37    32    33    2
    38    40    38    1
    39    35    34    2
    40    38    39    1
    41    38    37   am
    42    33    34    1
    43    33    37    1
    44    34    42    1
    45    37    41    2
    46    43    42    1
