@<TRIPOS>MOLECULE
30667_out_ligand_01.pdbqt
 38 42 0 0 0
SMALL
GASTEIGER

@<TRIPOS>ATOM
      1  C         24.5580  -20.7440  -14.3300 C.3     1  UNL1        0.0500
      2  C         23.6170  -21.3490  -13.3260 C.2     1  UNL1       -0.0390
      3  C         22.2510  -21.0290  -13.4240 C.2     1  UNL1        0.0090
      4  C         21.3180  -21.5380  -12.5150 C.2     1  UNL1        0.0140
      5  C         21.7170  -22.3870  -11.4740 C.2     1  UNL1       -0.0030
      6  C         23.0780  -22.7050  -11.3670 C.2     1  UNL1        0.0390
      7  C         24.0190  -22.2070  -12.2880 C.2     1  UNL1        0.0860
      8  C         20.7450  -22.9020  -10.4990 C.ar    1  UNL1        0.1000
      9  N         21.2700  -23.7960   -9.6340 N.ar    1  UNL1       -0.1470
     10  N         20.4990  -24.3240   -8.6370 N.ar    1  UNL1       -0.1310
     11  C         19.2030  -23.9670   -8.4920 C.ar    1  UNL1        0.1610
     12  C         18.5990  -23.0610   -9.3960 C.ar    1  UNL1        0.0240
     13  C         17.2310  -22.6870   -9.3240 C.2     1  UNL1        0.0160
     14  C         19.3920  -22.5120  -10.4330 C.ar    1  UNL1        0.0090
     15  C         16.6600  -21.7990  -10.2370 C.2     1  UNL1        0.0010
     16  C         17.4380  -21.2640  -11.2520 C.2     1  UNL1        0.0010
     17  C         18.7850  -21.6190  -11.3520 C.2     1  UNL1        0.0150
     18  N         18.4390  -24.4850   -7.4090 N.pl3   1  UNL1       -0.3390
     19  H         18.0170  -25.3580   -7.7060 H       1  UNL1        0.1670
     20  C         17.5960  -23.7650   -6.5320 C.2     1  UNL1        0.0330
     21  C         18.0820  -22.7640   -5.6770 C.2     1  UNL1        0.0320
     22  C         17.2340  -22.1130   -4.7760 C.2     1  UNL1        0.0440
     23  C         15.8960  -22.4770   -4.7120 C.2     1  UNL1        0.1160
     24  F         15.0810  -21.8570   -3.8490 F       1  UNL1       -0.2060
     25  C         15.3940  -23.4860   -5.5230 C.2     1  UNL1        0.0440
     26  C         16.2450  -24.1370   -6.4200 C.2     1  UNL1        0.0320
     27  S         25.7000  -22.7630  -12.0560 S.O2    1  UNL1        0.2590
     28  O         26.6460  -21.8060  -12.5850 O.2     1  UNL1       -0.2010
     29  O         25.8100  -23.2750  -10.7080 O.2     1  UNL1       -0.2010
     30  N         25.7390  -24.0960  -13.0700 N.3     1  UNL1       -0.3110
     31  H         25.4610  -24.9650  -12.6190 H       1  UNL1        0.1720
     32  C         26.7340  -24.1310  -14.1330 C.3     1  UNL1        0.1720
     33  C         26.1320  -23.7240  -15.4490 C.2     1  UNL1       -0.0220
     34  C         24.8060  -24.0170  -15.7840 C.2     1  UNL1        0.0120
     35  C         24.3000  -23.6090  -17.0170 C.2     1  UNL1        0.0200
     36  C         25.1400  -22.9160  -17.8760 C.2     1  UNL1        0.1160
     37  N         26.4240  -22.6090  -17.5870 N.2     1  UNL1       -0.2730
     38  C         26.8870  -23.0140  -16.3810 C.2     1  UNL1        0.1240
@<TRIPOS>BOND
     1    36    37    2
     2    36    35    1
     3    37    38    1
     4    35    34    2
     5    38    33    2
     6    34    33    1
     7    33    32    1
     8     1     2    1
     9    32    30    1
    10     3     2    2
    11     3     4    1
    12     2     7    1
    13    30    31    1
    14    30    27    1
    15    28    27    2
    16     4     5    2
    17     7    27    1
    18     7     6    2
    19    27    29    2
    20     5     6    1
    21     5     8    1
    22    17    16    2
    23    17    14    1
    24    16    15    1
    25     8    14   ar
    26     8     9   ar
    27    14    12   ar
    28    15    13    2
    29     9    10   ar
    30    12    13    1
    31    12    11   ar
    32    10    11   ar
    33    11    18    1
    34    19    18    1
    35    18    20    1
    36    20    26    2
    37    20    21    1
    38    26    25    1
    39    21    22    2
    40    25    23    2
    41    22    23    1
    42    23    24    1
