@<TRIPOS>MOLECULE
30684_out_ligand_01.pdbqt
 40 43 0 0 0
SMALL
GASTEIGER

@<TRIPOS>ATOM
      1  C         22.9400  -23.0120  -10.5720 C.ar    1  UNL1        0.1610
      2  N         23.0710  -23.4330   -9.2960 N.ar    1  UNL1       -0.1310
      3  N         22.1030  -23.1820   -8.3640 N.ar    1  UNL1       -0.1470
      4  C         20.9910  -22.5000   -8.7100 C.ar    1  UNL1        0.1000
      5  C         20.7740  -22.0510  -10.0250 C.ar    1  UNL1        0.0090
      6  C         19.6030  -21.3620  -10.4320 C.2     1  UNL1        0.0150
      7  C         19.4220  -20.9400  -11.7490 C.2     1  UNL1        0.0010
      8  C         20.4000  -21.2040  -12.6950 C.2     1  UNL1        0.0010
      9  C         21.5590  -21.8870  -12.3210 C.2     1  UNL1        0.0160
     10  C         21.7770  -22.3170  -10.9860 C.ar    1  UNL1        0.0240
     11  N         23.9760  -23.2570  -11.5150 N.pl3   1  UNL1       -0.3390
     12  H         23.7050  -24.0410  -12.1010 H       1  UNL1        0.1670
     13  C         24.7440  -22.3170  -12.2380 C.2     1  UNL1        0.0340
     14  C         24.6840  -22.3250  -13.6380 C.2     1  UNL1        0.0490
     15  C         25.4680  -21.4580  -14.4280 C.2     1  UNL1        0.0670
     16  C         26.3610  -20.5690  -13.7970 C.2     1  UNL1        0.0840
     17  C         26.4530  -20.5900  -12.4010 C.2     1  UNL1        0.0400
     18  C         25.6650  -21.4620  -11.6380 C.2     1  UNL1        0.0320
     19  C         25.2720  -21.5740  -15.9120 C.2     1  UNL1        0.2540
     20  N         26.3410  -21.9920  -16.6700 N.am    1  UNL1       -0.3610
     21  C         26.2230  -22.2410  -18.0820 C.3     1  UNL1        0.1490
     22  H         27.1680  -22.3140  -16.1780 H       1  UNL1        0.1620
     23  O         24.1830  -21.2990  -16.4130 O.2     1  UNL1       -0.2680
     24  O         27.1160  -19.7400  -14.5880 O.2     1  UNL1       -0.3550
     25  C         26.5430  -18.4990  -14.9870 C.3     1  UNL1        0.2100
     26  C         20.0580  -22.2780   -7.6000 C.2     1  UNL1       -0.0030
     27  C         20.3790  -21.3950   -6.5610 C.2     1  UNL1        0.0140
     28  C         19.4950  -21.1840   -5.5000 C.2     1  UNL1        0.0090
     29  C         18.2570  -21.8440   -5.4480 C.2     1  UNL1       -0.0390
     30  C         17.3440  -21.5630   -4.2860 C.3     1  UNL1        0.0500
     31  C         17.9350  -22.7420   -6.4820 C.2     1  UNL1        0.0860
     32  C         18.8210  -22.9380   -7.5540 C.2     1  UNL1        0.0390
     33  S         16.4090  -23.6650   -6.4640 S.O2    1  UNL1        0.2590
     34  O         15.3360  -22.7010   -6.3750 O.2     1  UNL1       -0.2010
     35  O         16.5360  -24.7660   -5.5370 O.2     1  UNL1       -0.2010
     36  N         16.3080  -24.3270   -8.0070 N.3     1  UNL1       -0.3110
     37  H         17.1750  -24.7730   -8.3070 H       1  UNL1        0.1720
     38  C         15.4300  -23.7190   -9.0140 C.3     1  UNL1        0.0850
     39  C         16.2220  -22.7260   -9.8570 C.3     1  UNL1        0.0320
     40  C         14.8680  -24.8350   -9.8910 C.3     1  UNL1        0.0320
@<TRIPOS>BOND
     1    21    20    1
     2    20    22    1
     3    20    19   am
     4    23    19    2
     5    19    15    1
     6    25    24    1
     7    24    16    1
     8    15    16    2
     9    15    14    1
    10    16    17    1
    11    14    13    2
    12     8     9    2
    13     8     7    1
    14    17    18    2
    15     9    10    1
    16    13    18    1
    17    13    11    1
    18    12    11    1
    19     7     6    2
    20    11     1    1
    21    10     1   ar
    22    10     5   ar
    23     1     2   ar
    24     6     5    1
    25     5     4   ar
    26    40    38    1
    27    39    38    1
    28     2     3   ar
    29    38    36    1
    30     4     3   ar
    31     4    26    1
    32    37    36    1
    33    36    33    1
    34    26    32    2
    35    26    27    1
    36    32    31    1
    37    27    28    2
    38    31    33    1
    39    31    29    2
    40    33    34    2
    41    33    35    2
    42    28    29    1
    43    29    30    1
