@<TRIPOS>MOLECULE
30744_out_ligand_01.pdbqt
 37 41 0 0 0
SMALL
GASTEIGER

@<TRIPOS>ATOM
      1  N         21.5140  -23.1350  -10.0210 N.ar    1  UNL1       -0.2870
      2  C         22.8740  -23.1010  -10.3630 C.ar    1  UNL1        0.3330
      3  O         23.7030  -23.6830   -9.6560 O.2     1  UNL1       -0.2460
      4  N         23.2500  -22.3690  -11.4940 N.ar    1  UNL1       -0.2550
      5  C         22.3700  -21.6830  -12.3380 C.ar    1  UNL1        0.2880
      6  O         22.7320  -21.1750  -13.4000 O.2     1  UNL1       -0.2650
      7  C         21.0310  -21.6920  -11.8550 C.ar    1  UNL1        0.1720
      8  O         20.0190  -21.0350  -12.4660 O.2     1  UNL1       -0.3020
      9  C         18.9070  -21.2740  -11.7160 C.ar    1  UNL1        0.0890
     10  C         17.6370  -20.7680  -11.9950 C.2     1  UNL1        0.0380
     11  C         16.6170  -21.1080  -11.1020 C.2     1  UNL1        0.0030
     12  C         16.8750  -21.9090   -9.9890 C.2     1  UNL1        0.0010
     13  C         18.1640  -22.4050   -9.7330 C.2     1  UNL1        0.0170
     14  C         19.2110  -22.0910  -10.6230 C.ar    1  UNL1        0.0280
     15  C         20.6020  -22.3700  -10.7450 C.ar    1  UNL1        0.0920
     16  C         21.1200  -23.9890   -8.9020 C.3     1  UNL1        0.2370
     17  C         20.5280  -23.1800   -7.7480 C.2     1  UNL1        0.2400
     18  O         21.1080  -22.1840   -7.3220 O.2     1  UNL1       -0.2710
     19  N         19.3150  -23.6810   -7.3050 N.am    1  UNL1       -0.3260
     20  H         18.9760  -24.5200   -7.7800 H       1  UNL1        0.1690
     21  C         18.4940  -23.1810   -6.2760 C.2     1  UNL1        0.0370
     22  C         18.7160  -21.9680   -5.6170 C.2     1  UNL1        0.0290
     23  C         17.8480  -21.5380   -4.6050 C.2     1  UNL1        0.0050
     24  C         16.7530  -22.3180   -4.2460 C.2     1  UNL1        0.0420
     25  C         16.5370  -23.5250   -4.8990 C.2     1  UNL1        0.1180
     26  F         15.4880  -24.2820   -4.5540 F       1  UNL1       -0.2060
     27  C         17.3920  -23.9620   -5.9070 C.2     1  UNL1        0.0710
     28  C         24.6620  -22.3840  -11.8660 C.3     1  UNL1        0.2400
     29  C         24.8730  -23.1580  -13.1700 C.2     1  UNL1        0.2360
     30  O         24.8870  -24.3860  -13.2040 O.2     1  UNL1       -0.2720
     31  N         25.1440  -22.3720  -14.2740 N.am    1  UNL1       -0.3550
     32  H         25.4970  -21.4320  -14.0890 H       1  UNL1        0.1620
     33  C         25.4520  -22.9590  -15.5620 C.3     1  UNL1        0.0840
     34  C         26.4740  -22.1350  -16.3530 C.3     1  UNL1        0.0250
     35  C         26.0540  -22.2250  -17.8220 C.3     1  UNL1        0.0020
     36  C         24.8630  -23.1720  -17.8620 C.3     1  UNL1        0.0020
     37  C         24.2360  -23.0280  -16.4870 C.3     1  UNL1        0.0250
@<TRIPOS>BOND
     1    36    35    1
     2    36    37    1
     3    35    34    1
     4    37    33    1
     5    34    33    1
     6    33    31    1
     7    31    32    1
     8    31    29   am
     9     6     5    2
    10    30    29    2
    11    29    28    1
    12     8     7   ar
    13     8     9   ar
    14     5     7   ar
    15     5     4   ar
    16    10     9    2
    17    10    11    1
    18    28     4    1
    19     7    15   ar
    20     9    14   ar
    21     4     2   ar
    22    11    12    2
    23    15    14   ar
    24    15     1   ar
    25    14    13    2
    26     2     1   ar
    27     2     3    2
    28     1    16    1
    29    12    13    1
    30    16    17    1
    31    20    19    1
    32    17    18    2
    33    17    19   am
    34    19    21    1
    35    21    27    2
    36    21    22    1
    37    27    25    1
    38    22    23    2
    39    25    26    1
    40    25    24    2
    41    23    24    1
