@<TRIPOS>MOLECULE
31384_out_ligand_01.pdbqt
 35 40 0 0 0
SMALL
GASTEIGER

@<TRIPOS>ATOM
      1  C         22.0120  -22.1430  -11.1080 C.ar    1  UNL1        0.0620
      2  C         23.2200  -22.4210  -10.4840 C.ar    1  UNL1        0.1010
      3  S         22.9990  -22.7270   -8.8160 S.2     1  UNL1       -0.0620
      4  C         21.3110  -22.5270   -8.9310 C.ar    1  UNL1        0.1120
      5  N         20.5660  -22.6640   -7.8150 N.ar    1  UNL1       -0.2390
      6  C         19.2430  -22.5310   -8.0020 C.ar    1  UNL1        0.0820
      7  C         18.6350  -22.2740   -9.2370 C.ar    1  UNL1       -0.0210
      8  C         19.4530  -22.1520  -10.3930 C.ar    1  UNL1       -0.0340
      9  C         20.8650  -22.2510  -10.2210 C.ar    1  UNL1        0.0340
     10  C         18.7650  -22.0840  -11.7430 C.3     1  UNL1        0.0400
     11  C         17.3930  -21.4050  -11.7780 C.3     1  UNL1        0.0050
     12  C         16.8090  -21.0730  -10.4090 C.3     1  UNL1        0.0050
     13  C         17.1420  -22.1550   -9.3900 C.3     1  UNL1        0.0420
     14  C         24.5490  -22.4030  -11.0860 C.2     1  UNL1        0.2610
     15  O         25.2980  -21.4330  -11.0070 O.2     1  UNL1       -0.2670
     16  N         24.9330  -23.5660  -11.7260 N.am    1  UNL1       -0.3520
     17  H         24.2620  -24.3180  -11.8040 H       1  UNL1        0.1630
     18  C         26.1580  -23.6550  -12.4920 C.3     1  UNL1        0.1610
     19  C         26.0610  -23.1230  -13.9060 C.2     1  UNL1       -0.0380
     20  C         26.7480  -21.9640  -14.3360 C.2     1  UNL1        0.0120
     21  C         26.6060  -21.4820  -15.6450 C.2     1  UNL1        0.0400
     22  C         25.8010  -22.1950  -16.5110 C.2     1  UNL1        0.1050
     23  C         25.1650  -23.3470  -16.1210 C.2     1  UNL1        0.1050
     24  O         25.5140  -21.8500  -17.7980 O.2     1  UNL1       -0.3230
     25  C         25.2810  -23.8400  -14.8370 C.2     1  UNL1        0.0480
     26  O         24.4610  -23.9210  -17.1300 O.2     1  UNL1       -0.3230
     27  C         24.5930  -22.9050  -18.1530 C.3     1  UNL1        0.3520
     28  N         21.9490  -21.7600  -12.4070 N.pl3   1  UNL1       -0.3970
     29  H         21.5160  -20.8550  -12.6250 H       1  UNL1        0.1560
     30  H         21.7660  -22.4330  -13.1460 H       1  UNL1        0.1560
     31  C         18.4600  -22.7330   -6.7720 C.2     1  UNL1        0.0340
     32  C         18.2120  -21.8370   -5.7430 C.2     1  UNL1        0.0220
     33  C         17.4150  -22.4140   -4.7020 C.2     1  UNL1        0.0080
     34  C         17.1120  -23.7320   -4.9570 C.2     1  UNL1        0.0500
     35  S         17.7410  -24.2580   -6.4600 S.3     1  UNL1       -0.1000
@<TRIPOS>BOND
     1    27    24    1
     2    27    26    1
     3    24    22    1
     4    26    23    1
     5    22    23    2
     6    22    21    1
     7    23    25    1
     8    21    20    2
     9    25    19    2
    10    20    19    1
    11    19    18    1
    12    30    28    1
    13    29    28    1
    14    18    16    1
    15    28     1    1
    16    17    16    1
    17    11    10    1
    18    11    12    1
    19    10     8    1
    20    16    14   am
    21     1     2   ar
    22     1     9   ar
    23    14    15    2
    24    14     2    1
    25     2     3   ar
    26    12    13    1
    27     8     9   ar
    28     8     7   ar
    29     9     4   ar
    30    13     7    1
    31     7     6   ar
    32     4     3   ar
    33     4     5   ar
    34     6     5   ar
    35     6    31    1
    36    31    35    1
    37    31    32    2
    38    35    34    1
    39    32    33    1
    40    34    33    2
