@<TRIPOS>MOLECULE
31777_out_ligand_01.pdbqt
 31 34 0 0 0
SMALL
GASTEIGER

@<TRIPOS>ATOM
      1  C         22.4060  -23.0050  -10.3040 C.2     1  UNL1        0.0340
      2  C         22.3250  -23.8960   -9.2240 C.2     1  UNL1        0.0180
      3  C         21.0920  -24.1390   -8.6120 C.2     1  UNL1        0.0200
      4  C         19.9420  -23.4990   -9.0840 C.ar    1  UNL1        0.0590
      5  C         18.6270  -23.7310   -8.4560 C.ar    1  UNL1        0.2640
      6  O         18.5490  -24.5060   -7.5050 O.2     1  UNL1       -0.2670
      7  N         17.5430  -23.0390   -8.9920 N.ar    1  UNL1       -0.2650
      8  C         17.6230  -22.1930  -10.0880 C.ar    1  UNL1        0.3290
      9  O         16.6620  -21.6190  -10.5990 O.2     1  UNL1       -0.2460
     10  N         18.8630  -22.0130  -10.6340 N.ar    1  UNL1       -0.3070
     11  C         20.0190  -22.6300  -10.1650 C.ar    1  UNL1        0.0530
     12  C         21.2430  -22.3800  -10.7820 C.2     1  UNL1        0.0470
     13  H         18.8970  -21.3850  -11.4270 H       1  UNL1        0.1700
     14  C         23.6890  -22.7130  -11.0000 C.2     1  UNL1        0.2520
     15  O         24.4880  -21.9340  -10.4930 O.2     1  UNL1       -0.2680
     16  N         23.9120  -23.3760  -12.1880 N.am    1  UNL1       -0.3520
     17  H         23.2170  -24.0130  -12.5510 H       1  UNL1        0.1630
     18  C         25.0880  -23.1040  -13.0090 C.3     1  UNL1        0.0840
     19  C         24.8640  -21.8620  -13.8930 C.3     1  UNL1        0.0250
     20  C         24.3530  -22.2390  -15.2800 C.3     1  UNL1        0.0020
     21  C         25.3450  -23.1320  -16.0280 C.3     1  UNL1        0.0000
     22  C         26.2030  -23.9990  -15.1030 C.3     1  UNL1        0.0020
     23  C         25.4600  -24.3560  -13.8220 C.3     1  UNL1        0.0250
     24  C         16.2440  -23.2070   -8.3430 C.3     1  UNL1        0.1420
     25  C         15.9620  -22.1550   -7.2580 C.3     1  UNL1        0.0590
     26  C         16.0310  -22.6840   -5.8450 C.2     1  UNL1       -0.0570
     27  C         15.0010  -23.4920   -5.3430 C.2     1  UNL1        0.0070
     28  C         15.0640  -23.9960   -4.0430 C.2     1  UNL1        0.0010
     29  C         16.1570  -23.6960   -3.2320 C.2     1  UNL1        0.0000
     30  C         17.1860  -22.8940   -3.7200 C.2     1  UNL1        0.0010
     31  C         17.1220  -22.3880   -5.0190 C.2     1  UNL1        0.0070
@<TRIPOS>BOND
     1    21    20    1
     2    21    22    1
     3    20    19    1
     4    22    23    1
     5    19    18    1
     6    23    18    1
     7    18    16    1
     8    17    16    1
     9    16    14   am
    10    13    10    1
    11    14    15    2
    12    14     1    1
    13    12     1    2
    14    12    11    1
    15    10    11   ar
    16    10     8   ar
    17     9     8    2
    18     1     2    1
    19    11     4   ar
    20     8     7   ar
    21     2     3    2
    22     4     3    1
    23     4     5   ar
    24     7     5   ar
    25     7    24    1
    26     5     6    2
    27    24    25    1
    28    25    26    1
    29    26    27    2
    30    26    31    1
    31    27    28    1
    32    31    30    2
    33    28    29    2
    34    30    29    1
