@<TRIPOS>MOLECULE
31992_out_ligand_01.pdbqt
 29 32 0 0 0
SMALL
GASTEIGER

@<TRIPOS>ATOM
      1  C         19.4140  -22.4330  -10.4170 C.2     1  UNL1        0.0340
      2  C         20.3680  -23.1400   -9.6740 C.2     1  UNL1        0.0180
      3  C         21.7000  -23.1750  -10.0990 C.2     1  UNL1        0.0200
      4  C         22.0760  -22.4950  -11.2630 C.ar    1  UNL1        0.0590
      5  C         23.4740  -22.5080  -11.7370 C.ar    1  UNL1        0.2640
      6  O         24.3200  -23.0850  -11.0590 O.2     1  UNL1       -0.2670
      7  N         23.7390  -21.8380  -12.9280 N.ar    1  UNL1       -0.2610
      8  C         22.8020  -21.0960  -13.6290 C.ar    1  UNL1        0.3300
      9  O         23.0480  -20.4460  -14.6430 O.2     1  UNL1       -0.2460
     10  N         21.5260  -21.0970  -13.1380 N.ar    1  UNL1       -0.3070
     11  C         21.1340  -21.7800  -11.9910 C.ar    1  UNL1        0.0530
     12  C         19.8040  -21.7390  -11.5730 C.2     1  UNL1        0.0470
     13  H         20.8560  -20.5550  -13.6710 H       1  UNL1        0.1700
     14  C         17.9850  -22.3540  -10.0070 C.2     1  UNL1        0.2520
     15  O         17.2120  -21.6500  -10.6460 O.2     1  UNL1       -0.2680
     16  N         17.6090  -23.1200   -8.9240 N.am    1  UNL1       -0.3520
     17  H         18.2870  -23.6980   -8.4490 H       1  UNL1        0.1630
     18  C         16.2560  -23.0610   -8.3780 C.3     1  UNL1        0.0840
     19  C         15.8160  -24.4460   -7.8720 C.3     1  UNL1        0.0250
     20  C         16.1290  -24.6350   -6.3920 C.3     1  UNL1        0.0020
     21  C         15.4030  -23.6060   -5.5220 C.3     1  UNL1        0.0000
     22  C         15.1150  -22.2890   -6.2460 C.3     1  UNL1        0.0020
     23  C         16.1800  -21.9760   -7.2890 C.3     1  UNL1        0.0250
     24  C         25.0970  -21.8850  -13.4490 C.3     1  UNL1        0.1830
     25  C         25.8610  -20.6770  -12.9770 C.2     1  UNL1        0.0010
     26  C         26.2320  -20.3500  -11.6860 C.2     1  UNL1        0.0170
     27  C         26.9560  -19.1250  -11.6190 C.2     1  UNL1        0.0080
     28  C         27.1210  -18.5580  -12.8610 C.2     1  UNL1        0.0500
     29  S         26.4070  -19.4980  -14.0970 S.3     1  UNL1       -0.1050
@<TRIPOS>BOND
     1     9     8    2
     2    29    25    1
     3    29    28    1
     4    13    10    1
     5     8    10   ar
     6     8     7   ar
     7    24    25    1
     8    24     7    1
     9    10    11   ar
    10    25    26    2
    11     7     5   ar
    12    28    27    2
    13    11    12    1
    14    11     4   ar
    15     5     4   ar
    16     5     6    2
    17    26    27    1
    18    12     1    2
    19     4     3    1
    20    15    14    2
    21     1    14    1
    22     1     2    1
    23     3     2    2
    24    14    16   am
    25    16    17    1
    26    16    18    1
    27    18    19    1
    28    18    23    1
    29    19    20    1
    30    23    22    1
    31    20    21    1
    32    22    21    1
