@<TRIPOS>MOLECULE
3208_out_ligand_01.pdbqt
 39 42 0 0 0
SMALL
GASTEIGER

@<TRIPOS>ATOM
      1  C         19.2930  -23.1450   -8.6940 C.ar    1  UNL1        0.1000
      2  N         20.1690  -24.0240   -8.1630 N.ar    1  UNL1       -0.1470
      3  N         21.3890  -24.2150   -8.7480 N.ar    1  UNL1       -0.1310
      4  C         21.7440  -23.5410   -9.8620 C.ar    1  UNL1        0.1610
      5  C         20.8450  -22.6330  -10.4720 C.ar    1  UNL1        0.0240
      6  C         21.1390  -21.9300  -11.6690 C.2     1  UNL1        0.0160
      7  C         20.2300  -21.0410  -12.2430 C.2     1  UNL1        0.0010
      8  C         18.9980  -20.8320  -11.6430 C.2     1  UNL1        0.0010
      9  C         18.6770  -21.5190  -10.4730 C.2     1  UNL1        0.0150
     10  C         19.5830  -22.4240   -9.8670 C.ar    1  UNL1        0.0090
     11  N         23.0330  -23.7320  -10.4330 N.pl3   1  UNL1       -0.3390
     12  H         23.0380  -24.6170  -10.9320 H       1  UNL1        0.1670
     13  C         23.8630  -22.7800  -11.0640 C.2     1  UNL1        0.0340
     14  C         24.6470  -21.8660  -10.3600 C.2     1  UNL1        0.0320
     15  C         25.5010  -20.9780  -11.0250 C.2     1  UNL1        0.0400
     16  C         25.6180  -20.9980  -12.4200 C.2     1  UNL1        0.0840
     17  C         24.8780  -21.9500  -13.1450 C.2     1  UNL1        0.0670
     18  C         24.0180  -22.8310  -12.4550 C.2     1  UNL1        0.0490
     19  O         26.4310  -20.1400  -13.1180 O.2     1  UNL1       -0.3550
     20  C         27.0400  -19.0720  -12.4000 C.3     1  UNL1        0.2100
     21  C         24.9220  -22.1200  -14.6360 C.2     1  UNL1        0.2540
     22  O         23.9330  -21.8500  -15.3150 O.2     1  UNL1       -0.2680
     23  N         26.0880  -22.5890  -15.1930 N.am    1  UNL1       -0.3610
     24  C         26.2670  -22.6860  -16.6180 C.3     1  UNL1        0.1490
     25  H         26.8990  -22.6680  -14.5870 H       1  UNL1        0.1620
     26  C         18.0380  -23.0310   -7.9420 C.2     1  UNL1       -0.0030
     27  C         17.9950  -23.3370   -6.5740 C.2     1  UNL1        0.0390
     28  C         16.7990  -23.2210   -5.8450 C.2     1  UNL1        0.0810
     29  C         15.6160  -22.7910   -6.4740 C.2     1  UNL1       -0.0390
     30  C         15.6660  -22.4890   -7.8440 C.2     1  UNL1        0.0090
     31  C         14.2980  -22.6680   -5.7610 C.3     1  UNL1        0.0500
     32  C         16.8580  -22.5990   -8.5640 C.2     1  UNL1        0.0140
     33  S         16.8440  -23.6580   -4.1170 S.O2    1  UNL1        0.2420
     34  O         15.5840  -24.2720   -3.7650 O.2     1  UNL1       -0.2060
     35  O         18.1050  -24.3060   -3.8320 O.2     1  UNL1       -0.2060
     36  N         16.9540  -22.1280   -3.3860 N.3     1  UNL1       -0.2160
     37  H         16.4600  -21.4720   -3.9970 H       1  UNL1        0.1390
     38  C         18.3420  -21.6710   -3.1530 C.3     1  UNL1        0.1000
     39  C         18.7240  -20.6890   -4.2480 C.3     1  UNL1        0.0210
@<TRIPOS>BOND
     1    24    23    1
     2    22    21    2
     3    23    21   am
     4    23    25    1
     5    21    17    1
     6    17    18    1
     7    17    16    2
     8    19    16    1
     9    19    20    1
    10    18    13    2
    11    16    15    1
    12     7     6    2
    13     7     8    1
    14     6     5    1
    15     8     9    2
    16    13    11    1
    17    13    14    1
    18    15    14    2
    19    12    11    1
    20     9    10    1
    21     5    10   ar
    22     5     4   ar
    23    11     4    1
    24    10     1   ar
    25     4     3   ar
    26     3     2   ar
    27     1     2   ar
    28     1    26    1
    29    32    26    2
    30    32    30    1
    31    26    27    1
    32    30    29    2
    33    27    28    2
    34    29    28    1
    35    29    31    1
    36    28    33    1
    37    39    38    1
    38    33    35    2
    39    33    34    2
    40    33    36    1
    41    37    36    1
    42    36    38    1
