@<TRIPOS>MOLECULE
3215_out_ligand_01.pdbqt
 37 40 0 0 0
SMALL
GASTEIGER

@<TRIPOS>ATOM
      1  C         22.9550  -23.2480   -9.6010 C.3     1  UNL1        0.1640
      2  C         23.8890  -22.0460   -9.6020 C.3     1  UNL1        0.1250
      3  C         24.8010  -22.0840  -10.8140 C.2     1  UNL1        0.2230
      4  N         24.2870  -21.3810  -11.8930 N.am    1  UNL1       -0.3270
      5  H         23.3810  -20.9370  -11.7610 H       1  UNL1        0.1690
      6  O         25.8800  -22.6690  -10.7740 O.2     1  UNL1       -0.2730
      7  C         24.8410  -21.2590  -13.1810 C.2     1  UNL1        0.0350
      8  C         25.6370  -20.1970  -13.5910 C.2     1  UNL1        0.0320
      9  C         26.1660  -20.1600  -14.8920 C.2     1  UNL1        0.0400
     10  C         25.8880  -21.1720  -15.8150 C.2     1  UNL1        0.0840
     11  C         25.0860  -22.2570  -15.4050 C.2     1  UNL1        0.0670
     12  C         24.5780  -22.2870  -14.0890 C.2     1  UNL1        0.0490
     13  O         26.3760  -21.1680  -17.0940 O.2     1  UNL1       -0.3550
     14  C         25.8220  -20.2280  -18.0100 C.3     1  UNL1        0.2100
     15  C         24.6890  -23.4060  -16.2800 C.2     1  UNL1        0.2520
     16  N         23.7860  -23.1810  -17.2740 N.am    1  UNL1       -0.3660
     17  H         23.4960  -23.9550  -17.8520 H       1  UNL1        0.1590
     18  H         23.4330  -22.2480  -17.4670 H       1  UNL1        0.1590
     19  O         25.1460  -24.5340  -16.1090 O.2     1  UNL1       -0.2680
     20  N         21.5300  -22.9190   -9.6260 N.ar    1  UNL1       -0.2330
     21  N         20.8160  -23.1120   -8.4630 N.ar    1  UNL1       -0.1680
     22  C         19.5580  -22.8000   -8.4350 C.ar    1  UNL1        0.0980
     23  C         18.8290  -22.2500   -9.5950 C.ar    1  UNL1        0.0110
     24  C         17.4810  -21.8590   -9.5400 C.2     1  UNL1        0.0150
     25  C         19.5400  -22.1090  -10.7810 C.ar    1  UNL1        0.0460
     26  C         16.8580  -21.3410  -10.6790 C.2     1  UNL1        0.0010
     27  C         17.5720  -21.2070  -11.8680 C.2     1  UNL1        0.0010
     28  C         18.9140  -21.5880  -11.9210 C.2     1  UNL1        0.0180
     29  C         20.9640  -22.4930  -10.8270 C.ar    1  UNL1        0.2740
     30  O         21.5750  -22.4210  -11.8900 O.2     1  UNL1       -0.2660
     31  C         18.8560  -23.0130   -7.1520 C.2     1  UNL1       -0.0050
     32  C         18.1900  -24.2190   -6.9350 C.2     1  UNL1        0.0150
     33  C         17.5040  -24.4150   -5.7350 C.2     1  UNL1        0.0240
     34  C         17.4900  -23.4060   -4.7710 C.2     1  UNL1        0.0340
     35 CL         16.6440  -23.6520   -3.2840 Cl      1  UNL1       -0.0840
     36  C         18.1510  -22.1960   -4.9980 C.2     1  UNL1        0.0240
     37  C         18.8360  -21.9930   -6.1980 C.2     1  UNL1        0.0150
@<TRIPOS>BOND
     1    14    13    1
     2    17    16    1
     3    18    16    1
     4    16    15   am
     5    13    10    1
     6    15    19    2
     7    15    11    1
     8    10    11    2
     9    10     9    1
    10    11    12    1
    11     9     8    2
    12    12     7    2
    13     8     7    1
    14     7     4    1
    15    28    27    2
    16    28    25    1
    17     4     5    1
    18     4     3   am
    19    30    29    2
    20    27    26    1
    21    29    25   ar
    22    29    20   ar
    23     3     6    2
    24     3     2    1
    25    25    23   ar
    26    26    24    2
    27    20     1    1
    28    20    21   ar
    29     2     1    1
    30    23    24    1
    31    23    22   ar
    32    21    22   ar
    33    22    31    1
    34    31    32    2
    35    31    37    1
    36    32    33    1
    37    37    36    2
    38    33    34    2
    39    36    34    1
    40    34    35    1
