@<TRIPOS>MOLECULE
32179_out_ligand_01.pdbqt
 38 42 0 0 0
SMALL
GASTEIGER

@<TRIPOS>ATOM
      1  C         20.2290  -21.6410  -11.4570 C.2     1  UNL1        0.1250
      2  C         20.9910  -21.4230  -12.6000 C.2     1  UNL1        0.0520
      3  C         22.3650  -21.6880  -12.5030 C.ar    1  UNL1        0.0070
      4  C         22.8730  -22.1370  -11.2850 C.ar    1  UNL1        0.0690
      5  N         24.2280  -22.3070  -11.4580 N.ar    1  UNL1       -0.3530
      6  C         24.6080  -21.9910  -12.7410 C.ar    1  UNL1        0.0430
      7  C         25.8700  -22.0230  -13.3420 C.2     1  UNL1        0.0300
      8  C         25.9580  -21.6450  -14.6850 C.2     1  UNL1        0.0020
      9  C         24.8270  -21.2510  -15.3950 C.2     1  UNL1        0.0010
     10  C         23.5710  -21.2230  -14.7770 C.2     1  UNL1        0.0140
     11  C         23.4570  -21.5990  -13.4220 C.ar    1  UNL1        0.0030
     12  C         22.0670  -22.3380  -10.1580 C.2     1  UNL1        0.0630
     13  N         20.7390  -22.0750  -10.2780 N.2     1  UNL1       -0.2450
     14  H         24.8630  -22.6280  -10.7420 H       1  UNL1        0.1660
     15  C         18.7440  -21.3910  -11.4720 C.2     1  UNL1        0.2700
     16  N         18.0110  -22.0500  -10.4960 N.am    1  UNL1       -0.3550
     17  H         18.5170  -22.3950   -9.6900 H       1  UNL1        0.1620
     18  O         18.2300  -20.6390  -12.2930 O.2     1  UNL1       -0.2660
     19  C         16.6030  -21.7570  -10.2860 C.3     1  UNL1        0.1270
     20  C         15.8090  -22.9950   -9.8580 C.3     1  UNL1        0.0580
     21  C         15.9330  -23.3010   -8.3820 C.2     1  UNL1       -0.0540
     22  C         16.6680  -24.4050   -7.9430 C.2     1  UNL1        0.0100
     23  C         16.7370  -24.7130   -6.5820 C.2     1  UNL1        0.0400
     24  C         16.0720  -23.9220   -5.6390 C.2     1  UNL1        0.1010
     25  C         15.3370  -22.8000   -6.0710 C.2     1  UNL1        0.1020
     26  C         15.2720  -22.5000   -7.4370 C.2     1  UNL1        0.0460
     27  O         16.0790  -24.1550   -4.2860 O.2     1  UNL1       -0.3530
     28  C         17.1800  -23.6620   -3.5380 C.3     1  UNL1        0.2100
     29  O         14.7020  -22.0770   -5.0910 O.2     1  UNL1       -0.3530
     30  C         13.5400  -21.3490   -5.4590 C.3     1  UNL1        0.2100
     31  C         22.5640  -22.7920   -8.8140 C.3     1  UNL1        0.0660
     32  C         22.6180  -21.6230   -7.8300 C.3     1  UNL1        0.0440
     33  C         21.3230  -21.4840   -7.0670 C.2     1  UNL1       -0.0580
     34  C         21.1710  -20.4670   -6.1150 C.2     1  UNL1        0.0070
     35  C         19.9690  -20.3200   -5.4220 C.2     1  UNL1        0.0010
     36  C         18.9080  -21.1880   -5.6750 C.2     1  UNL1        0.0000
     37  C         19.0480  -22.2020   -6.6200 C.2     1  UNL1        0.0010
     38  C         20.2500  -22.3500   -7.3150 C.2     1  UNL1        0.0070
@<TRIPOS>BOND
     1     9    10    2
     2     9     8    1
     3    10    11    1
     4     8     7    2
     5    11     6   ar
     6    11     3   ar
     7     7     6    1
     8     6     5   ar
     9     2     3    1
    10     2     1    2
    11     3     4   ar
    12    18    15    2
    13    15     1    1
    14    15    16   am
    15     5     4   ar
    16     5    14    1
    17     1    13    1
    18     4    12    1
    19    16    19    1
    20    16    17    1
    21    19    20    1
    22    13    12    2
    23    12    31    1
    24    20    21    1
    25    31    32    1
    26    21    22    2
    27    21    26    1
    28    22    23    1
    29    32    33    1
    30    26    25    2
    31    38    33    2
    32    38    37    1
    33    33    34    1
    34    37    36    2
    35    23    24    2
    36    34    35    2
    37    25    24    1
    38    25    29    1
    39    36    35    1
    40    24    27    1
    41    30    29    1
    42    27    28    1
