@<TRIPOS>MOLECULE
32219_out_ligand_01.pdbqt
 33 36 0 0 0
SMALL
GASTEIGER

@<TRIPOS>ATOM
      1  C         18.6360  -22.2780  -10.4410 C.2     1  UNL1        0.0320
      2  C         19.6380  -23.1360   -9.9800 C.2     1  UNL1        0.0190
      3  C         20.9630  -22.9730  -10.4030 C.2     1  UNL1        0.0300
      4  C         21.3000  -21.9560  -11.2980 C.2     1  UNL1        0.0360
      5  C         20.2880  -21.1130  -11.7770 C.2     1  UNL1        0.0300
      6  C         18.9630  -21.2690  -11.3540 C.2     1  UNL1        0.0190
      7  N         22.6010  -21.7330  -11.7810 N.am    1  UNL1       -0.3090
      8  C         23.7350  -21.3860  -11.0640 C.2     1  UNL1        0.3270
      9  O         23.7480  -21.1000   -9.8700 O.2     1  UNL1       -0.2460
     10  N         24.8950  -21.3050  -11.8730 N.am    1  UNL1       -0.2990
     11  C         26.0800  -20.7420  -11.2200 C.3     1  UNL1        0.1340
     12  C         25.1240  -22.2010  -12.9640 C.2     1  UNL1        0.0450
     13  C         27.1210  -20.1060  -12.1370 C.3     1  UNL1        0.0210
     14  C         26.4580  -19.4050  -13.3110 C.3     1  UNL1        0.0060
     15  C         26.1840  -20.3640  -14.4670 C.3     1  UNL1        0.0410
     16  C         25.7360  -21.7780  -14.1580 C.2     1  UNL1       -0.0310
     17  C         25.8950  -22.7170  -15.2010 C.2     1  UNL1        0.0090
     18  C         25.4830  -24.0420  -15.0630 C.2     1  UNL1        0.0010
     19  C         24.8960  -24.4580  -13.8770 C.2     1  UNL1        0.0020
     20  C         24.7170  -23.5440  -12.8380 C.2     1  UNL1        0.0300
     21  H         22.7260  -21.7400  -12.7840 H       1  UNL1        0.1700
     22  C         17.2420  -22.4850   -9.9630 C.2     1  UNL1        0.2510
     23  O         16.2980  -22.0130  -10.5840 O.2     1  UNL1       -0.2680
     24  N         17.0980  -23.2570   -8.8260 N.am    1  UNL1       -0.3550
     25  H         17.8710  -23.8590   -8.5760 H       1  UNL1        0.1620
     26  C         15.7720  -23.6560   -8.3800 C.3     1  UNL1        0.1530
     27  C         15.8410  -24.6340   -7.1920 C.3     1  UNL1        0.2920
     28  N         15.8740  -24.0630   -5.8370 N.3     1  UNL1        0.0900
     29  C         17.2360  -23.9830   -5.2930 C.3     1  UNL1        0.2720
     30  C         17.2080  -23.5590   -3.8230 C.3     1  UNL1        0.0300
     31  C         16.4620  -22.2420   -3.6390 C.3     1  UNL1        0.0030
     32  C         15.0860  -22.3090   -4.2920 C.3     1  UNL1        0.0300
     33  C         15.1830  -22.7720   -5.7470 C.3     1  UNL1        0.2720
@<TRIPOS>BOND
     1    17    18    2
     2    17    16    1
     3    18    19    1
     4    15    16    1
     5    15    14    1
     6    16    12    2
     7    19    20    2
     8    14    13    1
     9    12    20    1
    10    12    10    1
    11    21     7    1
    12    13    11    1
    13    10    11    1
    14    10     8   am
    15     7     4    1
    16     7     8   am
    17     5     6    1
    18     5     4    2
    19     6     1    2
    20     4     3    1
    21     8     9    2
    22    23    22    2
    23     1     2    1
    24     1    22    1
    25     3     2    2
    26    22    24   am
    27    24    25    1
    28    24    26    1
    29    26    27    1
    30    27    28    1
    31    28    33    1
    32    28    29    1
    33    33    32    1
    34    29    30    1
    35    32    31    1
    36    30    31    1
