@<TRIPOS>MOLECULE
3241_out_ligand_01.pdbqt
 32 37 0 0 0
SMALL
GASTEIGER

@<TRIPOS>ATOM
      1  O         26.2710  -23.1350  -10.9390 O.2     1  UNL1       -0.2670
      2  C         25.2120  -22.7450  -11.4210 C.ar    1  UNL1        0.2670
      3  N         25.1630  -22.2230  -12.6920 N.ar    1  UNL1       -0.3010
      4  C         24.0000  -21.7890  -13.2690 C.ar    1  UNL1        0.1700
      5  N         22.8190  -21.8160  -12.7410 N.ar    1  UNL1       -0.2220
      6  C         22.7970  -22.3140  -11.4270 C.ar    1  UNL1        0.0960
      7  C         23.9270  -22.7520  -10.7900 C.ar    1  UNL1        0.1040
      8  S         23.6200  -23.2730   -9.2100 S.2     1  UNL1       -0.0620
      9  C         21.9520  -22.9040   -9.3660 C.ar    1  UNL1        0.1120
     10  N         21.1050  -23.1160   -8.3350 N.ar    1  UNL1       -0.2390
     11  C         19.8060  -22.8050   -8.5700 C.ar    1  UNL1        0.0750
     12  C         19.3760  -22.2720   -9.7770 C.ar    1  UNL1       -0.0210
     13  C         20.2850  -22.0610  -10.8210 C.ar    1  UNL1       -0.0340
     14  C         21.6300  -22.3900  -10.6230 C.ar    1  UNL1        0.0370
     15  C         19.5870  -21.5100  -12.0340 C.3     1  UNL1        0.0400
     16  C         18.3010  -20.9630  -11.4080 C.3     1  UNL1        0.0090
     17  C         17.9970  -21.8550  -10.1960 C.3     1  UNL1        0.0420
     18  H         26.0240  -22.1950  -13.2130 H       1  UNL1        0.1710
     19  S         24.2470  -21.1710  -14.8720 S.3     1  UNL1       -0.0870
     20  C         25.9700  -20.6220  -14.7070 C.3     1  UNL1        0.1210
     21  C         26.2980  -19.3730  -15.4840 C.2     1  UNL1       -0.0490
     22  C         26.2290  -19.3600  -16.8850 C.2     1  UNL1        0.0080
     23  C         26.5230  -18.1980  -17.6020 C.2     1  UNL1        0.0010
     24  C         26.8930  -17.0380  -16.9270 C.2     1  UNL1        0.0000
     25  C         26.9650  -17.0350  -15.5350 C.2     1  UNL1        0.0010
     26  C         26.6720  -18.1950  -14.8170 C.2     1  UNL1        0.0080
     27  C         18.9010  -23.0580   -7.4370 C.2     1  UNL1       -0.0070
     28  C         18.1260  -24.2280   -7.3590 C.2     1  UNL1        0.0140
     29  C         17.2640  -24.4500   -6.2810 C.2     1  UNL1        0.0010
     30  C         17.1680  -23.5090   -5.2590 C.2     1  UNL1        0.0000
     31  C         17.9380  -22.3500   -5.3080 C.2     1  UNL1        0.0010
     32  C         18.8010  -22.1300   -6.3860 C.2     1  UNL1        0.0140
@<TRIPOS>BOND
     1    23    24    2
     2    23    22    1
     3    24    25    1
     4    22    21    2
     5    25    26    2
     6    21    26    1
     7    21    20    1
     8    19    20    1
     9    19     4    1
    10     4     5   ar
    11     4     3   ar
    12    18     3    1
    13     5     6   ar
    14     3     2   ar
    15    15    16    1
    16    15    13    1
    17     6     7   ar
    18     6    14   ar
    19     2     1    2
    20     2     7   ar
    21    16    17    1
    22    13    14   ar
    23    13    12   ar
    24     7     8   ar
    25    14     9   ar
    26    17    12    1
    27    12    11   ar
    28     9     8   ar
    29     9    10   ar
    30    11    10   ar
    31    11    27    1
    32    27    28    2
    33    27    32    1
    34    28    29    1
    35    32    31    2
    36    29    30    2
    37    31    30    1
