@<TRIPOS>MOLECULE
32487_out_ligand_01.pdbqt
 34 37 0 0 0
SMALL
GASTEIGER

@<TRIPOS>ATOM
      1  C         22.7710  -23.3240   -8.6120 C.3     1  UNL1        0.2820
      2  C         23.2980  -22.5020   -9.7940 C.2     1  UNL1        0.2460
      3  N         23.4220  -23.2520  -10.9520 N.am    1  UNL1       -0.3250
      4  H         23.2200  -24.2420  -10.8410 H       1  UNL1        0.1690
      5  O         23.5540  -21.3100   -9.6680 O.2     1  UNL1       -0.2710
      6  C         23.8050  -22.8220  -12.2340 C.2     1  UNL1        0.0340
      7  C         24.8780  -23.4970  -12.8360 C.2     1  UNL1        0.0310
      8  C         25.3190  -23.1370  -14.1130 C.2     1  UNL1        0.0270
      9  C         24.6870  -22.0930  -14.7900 C.2     1  UNL1        0.0740
     10  C         23.6080  -21.4230  -14.2100 C.2     1  UNL1        0.0270
     11  C         23.1740  -21.7870  -12.9310 C.2     1  UNL1        0.0310
     12  S         25.2400  -21.6440  -16.4130 S.O2    1  UNL1        0.2390
     13  O         26.5870  -21.1370  -16.3100 O.2     1  UNL1       -0.2060
     14  O         24.8700  -22.6940  -17.3340 O.2     1  UNL1       -0.2060
     15  N         24.2210  -20.3490  -16.7670 N.3     1  UNL1       -0.2250
     16  H         24.6780  -19.6100  -17.2980 H       1  UNL1        0.1360
     17  H         23.8210  -20.0000  -15.8940 H       1  UNL1        0.1360
     18  O         21.3920  -23.0160   -8.3690 O.3     1  UNL1       -0.3080
     19  C         20.5240  -23.9980   -8.7110 C.2     1  UNL1        0.2950
     20  O         20.7800  -25.1680   -8.9190 O.2     1  UNL1       -0.2590
     21  C         19.1890  -23.3830   -8.8480 C.ar    1  UNL1        0.0600
     22  C         18.9490  -22.5430   -9.9500 C.ar    1  UNL1       -0.0160
     23  C         17.6860  -21.9670  -10.0280 C.ar    1  UNL1        0.0420
     24  C         19.9810  -22.3180  -11.0270 C.3     1  UNL1        0.0420
     25  N         16.7330  -22.1550   -9.0840 N.ar    1  UNL1       -0.2520
     26  C         17.3070  -21.0350  -11.1500 C.3     1  UNL1        0.0600
     27  C         16.9730  -22.9680   -8.0440 C.ar    1  UNL1        0.0680
     28  C         15.9650  -23.1520   -7.1060 C.2     1  UNL1        0.0320
     29  C         18.1960  -23.6360   -7.8680 C.ar    1  UNL1        0.0090
     30  C         16.1240  -23.9900   -6.0010 C.2     1  UNL1        0.0020
     31  C         17.3170  -24.6730   -5.8250 C.2     1  UNL1        0.0010
     32  C         18.3440  -24.5040   -6.7510 C.2     1  UNL1        0.0150
     33  C         18.2030  -21.1770  -12.3750 C.3     1  UNL1        0.0060
     34  C         19.6650  -21.1430  -11.9510 C.3     1  UNL1        0.0050
@<TRIPOS>BOND
     1    14    12    2
     2    16    15    1
     3    15    12    1
     4    15    17    1
     5    12    13    2
     6    12     9    1
     7     9    10    2
     8     9     8    1
     9    10    11    1
    10     8     7    2
    11    11     6    2
    12     7     6    1
    13    33    34    1
    14    33    26    1
    15     6     3    1
    16    34    24    1
    17    26    23    1
    18    24    22    1
    19     3     4    1
    20     3     2   am
    21    23    22   ar
    22    23    25   ar
    23    22    21   ar
    24     2     5    2
    25     2     1    1
    26    25    27   ar
    27    20    19    2
    28    21    19    1
    29    21    29   ar
    30    19    18    1
    31     1    18    1
    32    27    29   ar
    33    27    28    1
    34    29    32    1
    35    28    30    2
    36    32    31    2
    37    30    31    1
