@<TRIPOS>MOLECULE
3319_out_ligand_01.pdbqt
 34 36 0 0 0
SMALL
GASTEIGER

@<TRIPOS>ATOM
      1  N         20.2770  -22.3300   -9.9170 N.pl3   1  UNL1       -0.1800
      2  H         19.7990  -21.4580   -9.6730 H       1  UNL1        0.1460
      3  C         21.1750  -22.0910  -11.0260 C.2     1  UNL1        0.0450
      4  C         22.3940  -22.7730  -11.0750 C.2     1  UNL1        0.0430
      5  C         23.2650  -22.5620  -12.1460 C.2     1  UNL1        0.0330
      6  C         22.8910  -21.6980  -13.1790 C.2     1  UNL1        0.0190
      7  C         21.6610  -21.0300  -13.1290 C.2     1  UNL1        0.0260
      8  C         20.7670  -21.2270  -12.0700 C.2     1  UNL1        0.0300
      9  C         24.5680  -23.2800  -12.1450 C.2     1  UNL1        0.2490
     10  N         25.2140  -23.4120  -10.9460 N.am    1  UNL1       -0.3660
     11  H         24.7440  -23.2880  -10.0600 H       1  UNL1        0.1590
     12  H         26.0210  -24.0250  -10.9550 H       1  UNL1        0.1590
     13  O         25.0300  -23.7750  -13.1640 O.2     1  UNL1       -0.2680
     14  N         19.5740  -20.5020  -11.9300 N.pl3   1  UNL1       -0.2910
     15  H         19.6310  -19.9180  -11.0990 H       1  UNL1        0.1270
     16  C         18.2660  -21.1250  -12.1000 C.3     1  UNL1        0.0920
     17  C         17.2610  -20.6670  -11.0440 C.3     1  UNL1        0.0100
     18  C         16.6760  -21.8270  -10.2490 C.3     1  UNL1        0.0060
     19  S         21.0790  -22.8220   -8.4840 S.O2    1  UNL1        0.2460
     20  O         21.0900  -24.2650   -8.4030 O.2     1  UNL1       -0.2060
     21  O         22.2890  -22.0280   -8.4530 O.2     1  UNL1       -0.2060
     22  C         20.0070  -22.2420   -7.1810 C.2     1  UNL1        0.0860
     23  C         20.4160  -21.1250   -6.4350 C.2     1  UNL1        0.0260
     24  C         19.6210  -20.6550   -5.4030 C.2     1  UNL1        0.0020
     25  C         18.4210  -21.2990   -5.1120 C.2     1  UNL1        0.0140
     26  C         17.9710  -22.4200   -5.8430 C.2     1  UNL1       -0.0030
     27  C         16.7310  -23.0510   -5.5250 C.2     1  UNL1        0.0210
     28  C         18.7740  -22.9080   -6.9110 C.2     1  UNL1       -0.0010
     29  C         16.3070  -24.1600   -6.2730 C.2     1  UNL1        0.0240
     30  C         17.0730  -24.6380   -7.3260 C.2     1  UNL1        0.0030
     31  C         18.2810  -24.0180   -7.6430 C.2     1  UNL1        0.0140
     32  N         15.9430  -22.5520   -4.4490 N.pl3   1  UNL1       -0.2910
     33  C         14.5980  -22.1550   -4.8670 C.3     1  UNL1        0.1160
     34  C         15.9760  -23.4570   -3.2960 C.3     1  UNL1        0.1160
@<TRIPOS>BOND
     1     6     7    2
     2     6     5    1
     3    13     9    2
     4     7     8    1
     5     5     9    1
     6     5     4    2
     7     9    10   am
     8    16    14    1
     9    16    17    1
    10     8    14    1
    11     8     3    2
    12    14    15    1
    13     4     3    1
    14    17    18    1
    15     3     1    1
    16    12    10    1
    17    10    11    1
    18     1     2    1
    19     1    19    1
    20    19    21    2
    21    19    20    2
    22    19    22    1
    23    31    30    2
    24    31    28    1
    25    30    29    1
    26    22    28    2
    27    22    23    1
    28    28    26    1
    29    23    24    2
    30    29    27    2
    31    26    27    1
    32    26    25    2
    33    27    32    1
    34    24    25    1
    35    33    32    1
    36    32    34    1
