@<TRIPOS>MOLECULE
33675_out_ligand_01.pdbqt
 36 40 0 0 0
SMALL
GASTEIGER

@<TRIPOS>ATOM
      1  N         23.9860  -22.3890  -10.6160 N.ar    1  UNL1       -0.2880
      2  C         23.0830  -21.9360  -11.5650 C.ar    1  UNL1        0.1720
      3  N         23.1980  -22.1230  -12.8390 N.ar    1  UNL1       -0.2240
      4  C         24.3010  -22.8360  -13.3110 C.ar    1  UNL1        0.0750
      5  C         24.4190  -23.0680  -14.6840 C.2     1  UNL1        0.0320
      6  C         25.5130  -23.7690  -15.1960 C.2     1  UNL1        0.0020
      7  C         26.5000  -24.2460  -14.3350 C.2     1  UNL1        0.0010
      8  C         26.3920  -24.0210  -12.9630 C.2     1  UNL1        0.0190
      9  C         25.2900  -23.3170  -12.4620 C.ar    1  UNL1        0.0610
     10  C         25.1410  -23.0550  -11.0210 C.ar    1  UNL1        0.2620
     11  O         26.0360  -23.4190  -10.2620 O.2     1  UNL1       -0.2670
     12  C         23.8380  -22.1660   -9.1730 C.3     1  UNL1        0.1730
     13  C         22.4820  -22.5960   -8.6470 C.2     1  UNL1       -0.0400
     14  C         21.9850  -23.8810   -8.9080 C.2     1  UNL1        0.0100
     15  C         20.7390  -24.2810   -8.4150 C.2     1  UNL1        0.0170
     16  C         19.9710  -23.3960   -7.6540 C.2     1  UNL1        0.0320
     17  C         20.4430  -22.1020   -7.4140 C.2     1  UNL1        0.0170
     18  C         21.6910  -21.7080   -7.9030 C.2     1  UNL1        0.0100
     19  C         18.6380  -23.7770   -7.1140 C.2     1  UNL1        0.2520
     20  O         18.1560  -24.8720   -7.3770 O.2     1  UNL1       -0.2680
     21  N         17.9970  -22.8250   -6.3480 N.am    1  UNL1       -0.3520
     22  H         18.3910  -21.8970   -6.2720 H       1  UNL1        0.1630
     23  C         16.7000  -23.0820   -5.7590 C.3     1  UNL1        0.0840
     24  C         15.5530  -22.5390   -6.6010 C.3     1  UNL1        0.0250
     25  C         14.3880  -22.5300   -5.6250 C.3     1  UNL1        0.0020
     26  C         15.0030  -22.1560   -4.2790 C.3     1  UNL1        0.0020
     27  C         16.5100  -22.3750   -4.4180 C.3     1  UNL1        0.0250
     28  S         21.6770  -21.0290  -11.0510 S.3     1  UNL1       -0.0870
     29  C         20.4260  -21.8320  -12.0950 C.3     1  UNL1        0.1240
     30  C         19.0500  -21.7970  -11.4860 C.2     1  UNL1       -0.0100
     31  C         18.2560  -20.6440  -11.5610 C.2     1  UNL1        0.0110
     32  C         16.9960  -20.6120  -10.9580 C.2     1  UNL1        0.0010
     33  C         16.5140  -21.7300  -10.2780 C.2     1  UNL1        0.0030
     34  C         17.2920  -22.8820  -10.2010 C.2     1  UNL1        0.0430
     35  C         18.5480  -22.9080  -10.8010 C.2     1  UNL1        0.1230
     36  F         19.2850  -24.0230  -10.7060 F       1  UNL1       -0.2060
@<TRIPOS>BOND
     1     6     5    1
     2     6     7    2
     3     5     4    2
     4     7     8    1
     5     4     3   ar
     6     4     9   ar
     7     8     9    2
     8     3     2   ar
     9     9    10   ar
    10    29    30    1
    11    29    28    1
    12     2    28    1
    13     2     1   ar
    14    31    30    2
    15    31    32    1
    16    30    35    1
    17    10     1   ar
    18    10    11    2
    19    32    33    2
    20    35    36    1
    21    35    34    2
    22     1    12    1
    23    33    34    1
    24    12    13    1
    25    14    13    2
    26    14    15    1
    27    13    18    1
    28    15    16    2
    29    18    17    2
    30    16    17    1
    31    16    19    1
    32    20    19    2
    33    19    21   am
    34    24    23    1
    35    24    25    1
    36    21    22    1
    37    21    23    1
    38    23    27    1
    39    25    26    1
    40    27    26    1
