@<TRIPOS>MOLECULE
33958_out_ligand_01.pdbqt
 35 38 0 0 0
SMALL
GASTEIGER

@<TRIPOS>ATOM
      1  C         25.6460  -22.5760  -11.3710 C.ar    1  UNL1        0.0810
      2  N         24.6000  -23.2540  -10.7830 N.ar    1  UNL1       -0.2250
      3  C         23.9180  -22.3220  -10.1440 C.ar    1  UNL1        0.1800
      4  O         24.4330  -21.0600  -10.2920 O.2     1  UNL1       -0.2940
      5  C         25.5360  -21.2310  -11.0800 C.ar    1  UNL1        0.0770
      6  C         26.3200  -20.0250  -11.4010 C.3     1  UNL1        0.0790
      7  C         22.7250  -22.4590   -9.3150 C.2     1  UNL1        0.0170
      8  C         22.5130  -21.6650   -8.1770 C.2     1  UNL1        0.0170
      9  C         21.3600  -21.8190   -7.3970 C.2     1  UNL1        0.0180
     10  C         20.3990  -22.7730   -7.7500 C.2     1  UNL1        0.0320
     11  C         20.6090  -23.5840   -8.8700 C.2     1  UNL1        0.0180
     12  C         21.7590  -23.4210   -9.6490 C.2     1  UNL1        0.0170
     13  C         19.1660  -22.9820   -6.9470 C.2     1  UNL1        0.2520
     14  O         18.8150  -22.1330   -6.1370 O.2     1  UNL1       -0.2680
     15  N         18.4940  -24.1680   -7.1590 N.am    1  UNL1       -0.3520
     16  H         18.8500  -24.8310   -7.8330 H       1  UNL1        0.1630
     17  C         17.2150  -24.4610   -6.5140 C.3     1  UNL1        0.0840
     18  C         17.2280  -23.8940   -5.0870 C.3     1  UNL1        0.0250
     19  C         15.8590  -23.7330   -4.4340 C.3     1  UNL1        0.0020
     20  C         15.2020  -22.3930   -4.7640 C.3     1  UNL1        0.0000
     21  C         14.6680  -22.2610   -6.1860 C.3     1  UNL1        0.0000
     22  C         15.6870  -22.5250   -7.2920 C.3     1  UNL1        0.0020
     23  C         16.0580  -24.0030   -7.4110 C.3     1  UNL1        0.0250
     24  C         26.6620  -23.2980  -12.1700 C.3     1  UNL1        0.2070
     25  S         25.9990  -23.9630  -13.6870 S.O2    1  UNL1        0.1830
     26  O         26.8180  -25.0880  -14.1070 O.2     1  UNL1       -0.2220
     27  O         24.5710  -24.1720  -13.4900 O.2     1  UNL1       -0.2220
     28  C         26.1890  -22.6830  -14.8990 C.2     1  UNL1        0.0920
     29  C         26.9380  -21.5440  -14.5800 C.2     1  UNL1        0.0260
     30  C         27.1210  -20.5460  -15.5370 C.2     1  UNL1        0.0020
     31  C         26.5590  -20.6840  -16.8060 C.2     1  UNL1        0.0030
     32  C         25.8050  -21.8170  -17.1200 C.2     1  UNL1        0.0380
     33  C         25.6010  -22.8110  -16.1580 C.2     1  UNL1        0.0890
     34  O         24.8920  -23.9340  -16.4820 O.2     1  UNL1       -0.3540
     35  C         23.8920  -23.6490  -17.4650 C.3     1  UNL1        0.2100
@<TRIPOS>BOND
     1    35    34    1
     2    32    31    2
     3    32    33    1
     4    31    30    1
     5    34    33    1
     6    33    28    2
     7    30    29    2
     8    28    29    1
     9    28    25    1
    10    26    25    2
    11    25    27    2
    12    25    24    1
    13    24     1    1
    14     6     5    1
    15     1     5   ar
    16     1     2   ar
    17     5     4   ar
    18     2     3   ar
    19     4     3   ar
    20     3     7    1
    21    12     7    2
    22    12    11    1
    23     7     8    1
    24    11    10    2
    25     8     9    2
    26    16    15    1
    27    10     9    1
    28    10    13    1
    29    23    22    1
    30    23    17    1
    31    22    21    1
    32    15    13   am
    33    15    17    1
    34    13    14    2
    35    17    18    1
    36    21    20    1
    37    18    19    1
    38    20    19    1
