@<TRIPOS>MOLECULE
33970_out_ligand_01.pdbqt
 36 39 0 0 0
SMALL
GASTEIGER

@<TRIPOS>ATOM
      1  C         18.9970  -22.9150   -9.6410 C.2     1  UNL1        0.1040
      2  C         20.3290  -23.3180   -9.7530 C.2     1  UNL1        0.0510
      3  C         21.2170  -23.0830   -8.6990 C.2     1  UNL1       -0.0310
      4  C         20.7590  -22.4640   -7.5300 C.2     1  UNL1        0.0380
      5  C         19.4190  -22.0820   -7.4150 C.2     1  UNL1        0.0710
      6 CL         18.9080  -21.3130   -5.9550 Cl      1  UNL1       -0.0810
      7  C         18.5260  -22.3340   -8.4580 C.2     1  UNL1        0.1240
      8  C         22.6180  -23.4870   -8.8310 C.3     1  UNL1        0.0320
      9  C         23.4750  -23.1540   -9.8190 C.ar    1  UNL1        0.0820
     10  C         23.1490  -22.2830  -10.9990 C.ar    1  UNL1        0.1620
     11  C         24.8800  -23.7220   -9.7200 C.ar    1  UNL1        0.2830
     12  N         21.9750  -21.7640  -11.1910 N.pl3   1  UNL1       -0.2810
     13  N         24.1890  -22.0710  -11.8840 N.ar    1  UNL1       -0.1880
     14  H         22.0160  -21.2320  -12.0740 H       1  UNL1        0.1880
     15  N         24.0550  -21.2770  -13.0120 N.ar    1  UNL1       -0.1440
     16  C         25.4050  -22.6740  -11.6940 C.ar    1  UNL1        0.2020
     17  C         25.1740  -21.3110  -13.6840 C.ar    1  UNL1        0.2150
     18  S         26.4860  -22.2660  -13.0020 S.2     1  UNL1       -0.0170
     19  N         25.7750  -23.4410  -10.7330 N.ar    1  UNL1       -0.1820
     20  O         25.2060  -24.4110   -8.7630 O.2     1  UNL1       -0.2650
     21  S         25.3270  -20.3840  -15.1860 S.O2    1  UNL1        0.1970
     22  C         26.7530  -21.1090  -15.9520 C.3     1  UNL1        0.1690
     23  O         25.6470  -19.0210  -14.8100 O.2     1  UNL1       -0.2210
     24  O         24.1690  -20.6900  -16.0050 O.2     1  UNL1       -0.2210
     25  O         18.1680  -23.1670  -10.7040 O.2     1  UNL1       -0.3490
     26  C         18.4050  -22.2170  -11.7540 C.3     1  UNL1        0.1710
     27  C         17.4240  -21.0690  -11.5770 C.3     1  UNL1        0.0340
     28  O         17.2050  -21.9750   -8.3570 O.2     1  UNL1       -0.3420
     29  C         16.4020  -23.1280   -8.0800 C.3     1  UNL1        0.2170
     30  C         15.9910  -23.0740   -6.6360 C.2     1  UNL1        0.0040
     31  C         14.9730  -22.2080   -6.2140 C.2     1  UNL1        0.0120
     32  C         14.5990  -22.1510   -4.8680 C.2     1  UNL1        0.0010
     33  C         15.2410  -22.9530   -3.9280 C.2     1  UNL1        0.0030
     34  C         16.2610  -23.8100   -4.3340 C.2     1  UNL1        0.0430
     35  C         16.6310  -23.8600   -5.6790 C.2     1  UNL1        0.1240
     36  F         17.6120  -24.6960   -6.0430 F       1  UNL1       -0.2050
@<TRIPOS>BOND
     1    24    21    2
     2    22    21    1
     3    21    23    2
     4    21    17    1
     5    17    15   ar
     6    17    18   ar
     7    15    13   ar
     8    18    16   ar
     9    14    12    1
    10    13    16   ar
    11    13    10   ar
    12    26    27    1
    13    26    25    1
    14    16    19   ar
    15    12    10    1
    16    10     9   ar
    17    19    11   ar
    18    25     1    1
    19     9    11   ar
    20     9     8    1
    21     2     1    2
    22     2     3    1
    23    11    20    2
    24     1     7    1
    25     8     3    1
    26     3     4    2
    27     7    28    1
    28     7     5    2
    29    28    29    1
    30    29    30    1
    31     4     5    1
    32     5     6    1
    33    30    31    2
    34    30    35    1
    35    31    32    1
    36    36    35    1
    37    35    34    2
    38    32    33    2
    39    34    33    1
