@<TRIPOS>MOLECULE
33992_out_ligand_01.pdbqt
 37 41 0 0 0
SMALL
GASTEIGER

@<TRIPOS>ATOM
      1  N         20.7310  -23.6220   -9.2680 N.pl3   1  UNL1       -0.3530
      2  C         22.0710  -23.3290   -9.2110 C.2     1  UNL1        0.1030
      3  C         22.2830  -22.2050   -9.9770 C.2     1  UNL1       -0.0070
      4  C         21.0370  -21.8070  -10.5380 C.2     1  UNL1        0.0020
      5  C         20.6340  -20.7690  -11.4040 C.2     1  UNL1        0.0140
      6  C         19.2880  -20.6500  -11.7650 C.2     1  UNL1        0.0010
      7  C         18.3430  -21.5440  -11.2710 C.2     1  UNL1        0.0020
      8  C         18.7150  -22.5840  -10.4140 C.2     1  UNL1        0.0300
      9  C         20.0700  -22.7040  -10.0640 C.2     1  UNL1        0.0450
     10  C         23.5600  -21.6150  -10.1900 C.3     1  UNL1        0.0340
     11  C         24.2390  -21.4980  -11.3490 C.ar    1  UNL1        0.0820
     12  C         23.7730  -21.9910  -12.6910 C.ar    1  UNL1        0.1620
     13  C         25.5870  -20.8100  -11.2720 C.ar    1  UNL1        0.2830
     14  N         22.6300  -22.5840  -12.8810 N.pl3   1  UNL1       -0.2810
     15  N         24.6480  -21.7700  -13.7400 N.ar    1  UNL1       -0.1880
     16  H         22.5650  -22.8120  -13.8810 H       1  UNL1        0.1880
     17  N         24.3760  -22.1790  -15.0360 N.ar    1  UNL1       -0.1440
     18  C         25.8300  -21.1070  -13.5370 C.ar    1  UNL1        0.2020
     19  C         25.3610  -21.8020  -15.8060 C.ar    1  UNL1        0.2150
     20  S         26.6920  -20.9320  -15.0420 S.2     1  UNL1       -0.0170
     21  N         26.3080  -20.6460  -12.4380 N.ar    1  UNL1       -0.1820
     22  O         26.0240  -20.4080  -10.1990 O.2     1  UNL1       -0.2650
     23  S         25.3270  -22.1530  -17.5380 S.O2    1  UNL1        0.1970
     24  C         27.0010  -21.9040  -18.0760 C.3     1  UNL1        0.1690
     25  O         25.0120  -23.5660  -17.6570 O.2     1  UNL1       -0.2210
     26  O         24.5000  -21.1300  -18.1500 O.2     1  UNL1       -0.2210
     27  C         20.1270  -24.7630   -8.6050 C.3     1  UNL1        0.1550
     28  C         18.8720  -24.3680   -7.8290 C.3     1  UNL1        0.1960
     29  O         19.1460  -23.3280   -6.8890 O.2     1  UNL1       -0.3490
     30  C         18.2070  -23.0230   -5.9370 C.2     1  UNL1        0.0750
     31  C         18.4150  -21.8080   -5.2570 C.2     1  UNL1       -0.0290
     32  C         17.5010  -21.4060   -4.2700 C.2     1  UNL1        0.0100
     33  C         19.6160  -20.9520   -5.5560 C.3     1  UNL1        0.0510
     34  C         16.3860  -22.1910   -3.9710 C.2     1  UNL1        0.0070
     35  C         16.1700  -23.3940   -4.6460 C.2     1  UNL1       -0.0590
     36  C         14.9880  -24.2540   -4.3010 C.3     1  UNL1        0.0480
     37  C         17.0980  -23.8120   -5.6130 C.2     1  UNL1        0.0440
@<TRIPOS>BOND
     1    26    23    2
     2    24    23    1
     3    25    23    2
     4    23    19    1
     5    19    20   ar
     6    19    17   ar
     7    20    18   ar
     8    17    15   ar
     9    16    14    1
    10    15    18   ar
    11    15    12   ar
    12    18    21   ar
    13    14    12    1
    14    12    11   ar
    15    21    13   ar
    16     6     5    1
    17     6     7    2
    18     5     4    2
    19    11    13   ar
    20    11    10    1
    21    13    22    2
    22     7     8    1
    23     4     9    1
    24     4     3    1
    25     8     9    2
    26    10     3    1
    27     9     1    1
    28     3     2    2
    29     1     2    1
    30     1    27    1
    31    27    28    1
    32    28    29    1
    33    29    30    1
    34    30    37    2
    35    30    31    1
    36    37    35    1
    37    33    31    1
    38    31    32    2
    39    35    36    1
    40    35    34    2
    41    32    34    1
