@<TRIPOS>MOLECULE
34139_out_ligand_01.pdbqt
 31 34 0 0 0
SMALL
GASTEIGER

@<TRIPOS>ATOM
      1  C         19.4930  -22.4000   -9.8470 C.2     1  UNL1        0.0340
      2  C         18.7170  -21.5330  -10.6220 C.2     1  UNL1        0.0170
      3  C         19.2550  -20.9800  -11.7840 C.2     1  UNL1        0.0030
      4  C         20.5600  -21.2940  -12.1790 C.2     1  UNL1        0.0290
      5  C         21.3370  -22.1710  -11.4230 C.2     1  UNL1        0.0360
      6  C         20.7940  -22.7260  -10.2580 C.2     1  UNL1        0.0460
      7  N         22.6490  -22.5460  -11.7570 N.am    1  UNL1       -0.3220
      8  C         23.8430  -22.1180  -11.1980 C.2     1  UNL1        0.2760
      9  O         23.9530  -21.3150  -10.2770 O.2     1  UNL1       -0.2660
     10  H         22.7690  -23.2190  -12.5120 H       1  UNL1        0.1690
     11  C         25.0210  -22.7500  -11.8360 C.ar    1  UNL1        0.1440
     12  N         25.9140  -23.3840  -11.0580 N.ar    1  UNL1       -0.2050
     13  S         27.1210  -23.9980  -11.9970 S.2     1  UNL1        0.0120
     14  C         26.5070  -23.4440  -13.4990 C.ar    1  UNL1        0.0360
     15  C         27.0400  -23.6080  -14.7890 C.2     1  UNL1        0.0210
     16  C         25.3150  -22.7540  -13.2590 C.ar    1  UNL1        0.0170
     17  C         26.3480  -23.0580  -15.8700 C.2     1  UNL1        0.0010
     18  C         25.1610  -22.3660  -15.6700 C.2     1  UNL1        0.0010
     19  C         24.6390  -22.2090  -14.3810 C.2     1  UNL1        0.0150
     20  C         18.9770  -23.0250   -8.5990 C.2     1  UNL1        0.2520
     21  O         19.2290  -24.2000   -8.3560 O.2     1  UNL1       -0.2680
     22  N         18.2480  -22.2110   -7.7570 N.am    1  UNL1       -0.3520
     23  H         18.0840  -21.2460   -8.0070 H       1  UNL1        0.1630
     24  C         17.6100  -22.7240   -6.5390 C.3     1  UNL1        0.0840
     25  C         17.9200  -21.7540   -5.3890 C.3     1  UNL1        0.0250
     26  C         18.0820  -22.3850   -4.0040 C.3     1  UNL1        0.0020
     27  C         16.9600  -23.2870   -3.4970 C.3     1  UNL1        0.0000
     28  C         15.5580  -22.7310   -3.7270 C.3     1  UNL1        0.0000
     29  C         14.7230  -23.5370   -4.7210 C.3     1  UNL1        0.0000
     30  C         15.4100  -23.9880   -6.0100 C.3     1  UNL1        0.0020
     31  C         16.0990  -22.8910   -6.8190 C.3     1  UNL1        0.0250
@<TRIPOS>BOND
     1    17    18    2
     2    17    15    1
     3    18    19    1
     4    15    14    2
     5    19    16    2
     6    14    16   ar
     7    14    13   ar
     8    16    11   ar
     9    10     7    1
    10     4     3    2
    11     4     5    1
    12    13    12   ar
    13    11     8    1
    14    11    12   ar
    15     3     2    1
    16     7     5    1
    17     7     8   am
    18     5     6    2
    19     8     9    2
    20     2     1    2
    21     6     1    1
    22     1    20    1
    23    20    21    2
    24    20    22   am
    25    23    22    1
    26    22    24    1
    27    31    24    1
    28    31    30    1
    29    24    25    1
    30    30    29    1
    31    25    26    1
    32    29    28    1
    33    26    27    1
    34    28    27    1
