@<TRIPOS>MOLECULE
34204_out_ligand_01.pdbqt
 34 38 0 0 0
SMALL
GASTEIGER

@<TRIPOS>ATOM
      1  C         21.6530  -21.9570  -11.6080 C.2     1  UNL1       -0.0030
      2  C         20.8770  -21.1120  -12.3990 C.2     1  UNL1        0.0140
      3  C         19.5310  -20.9180  -12.0870 C.2     1  UNL1        0.0090
      4  C         18.9380  -21.5690  -10.9900 C.2     1  UNL1       -0.0390
      5  C         17.4780  -21.3280  -10.7250 C.3     1  UNL1        0.0500
      6  C         19.7360  -22.4340  -10.2110 C.2     1  UNL1        0.0810
      7  C         21.0890  -22.6360  -10.5270 C.2     1  UNL1        0.0390
      8  C         23.0710  -22.1830  -11.9810 C.ar    1  UNL1        0.0990
      9  C         23.9950  -22.8740  -11.0100 C.ar    1  UNL1        0.0090
     10  C         23.6190  -23.2420   -9.7130 C.2     1  UNL1        0.0150
     11  C         25.3080  -23.1200  -11.4440 C.ar    1  UNL1        0.0260
     12  C         24.5390  -23.8820   -8.8760 C.2     1  UNL1        0.0010
     13  C         25.8350  -24.1460   -9.3230 C.2     1  UNL1        0.0010
     14  C         26.2230  -23.7600  -10.6050 C.2     1  UNL1        0.0160
     15  C         25.6640  -22.6580  -12.7630 C.ar    1  UNL1        0.1850
     16  N         26.7910  -22.7470  -13.4340 N.ar    1  UNL1       -0.1270
     17  N         24.7250  -21.9920  -13.5110 N.ar    1  UNL1       -0.1960
     18  N         26.6030  -22.1150  -14.6440 N.ar    1  UNL1       -0.1320
     19  C         25.3660  -21.6490  -14.6750 C.ar    1  UNL1        0.1610
     20  N         23.4270  -21.7520  -13.1620 N.ar    1  UNL1       -0.1630
     21  C         24.7090  -20.9040  -15.7730 C.3     1  UNL1        0.1550
     22  S         25.0770  -21.6570  -17.3930 S.3     1  UNL1       -0.1660
     23  C         24.2840  -23.2580  -17.1240 C.3     1  UNL1        0.0900
     24  S         19.0750  -23.3430   -8.8240 S.O2    1  UNL1        0.2420
     25  O         19.9230  -24.4940   -8.5960 O.2     1  UNL1       -0.2060
     26  O         17.6470  -23.4700   -9.0000 O.2     1  UNL1       -0.2060
     27  N         19.4140  -22.3020   -7.5310 N.3     1  UNL1       -0.2110
     28  H         20.3260  -22.5650   -7.1510 H       1  UNL1        0.1400
     29  C         18.3850  -22.1990   -6.4630 C.3     1  UNL1        0.0710
     30  C         18.9010  -21.2090   -5.4030 C.3     1  UNL1        0.0200
     31  C         18.3210  -21.4500   -4.0060 C.3     1  UNL1        0.0020
     32  C         16.9560  -22.1190   -4.0620 C.3     1  UNL1        0.0000
     33  C         17.0200  -23.4790   -4.7590 C.3     1  UNL1        0.0020
     34  C         18.1030  -23.5650   -5.8380 C.3     1  UNL1        0.0200
@<TRIPOS>BOND
     1    22    23    1
     2    22    21    1
     3    21    19    1
     4    19    18   ar
     5    19    17   ar
     6    18    16   ar
     7    17    20   ar
     8    17    15   ar
     9    16    15   ar
    10    20     8   ar
    11    15    11   ar
    12     2     3    1
    13     2     1    2
    14     3     4    2
    15     8     1    1
    16     8     9   ar
    17     1     7    1
    18    11     9   ar
    19    11    14    1
    20     9    10    1
    21     4     5    1
    22     4     6    1
    23    14    13    2
    24     7     6    2
    25     6    24    1
    26    10    12    2
    27    13    12    1
    28    26    24    2
    29    24    25    2
    30    24    27    1
    31    27    28    1
    32    27    29    1
    33    29    34    1
    34    29    30    1
    35    34    33    1
    36    30    31    1
    37    33    32    1
    38    32    31    1
