@<TRIPOS>MOLECULE
34378_out_ligand_01.pdbqt
 35 38 0 0 0
SMALL
GASTEIGER

@<TRIPOS>ATOM
      1  C         23.1770  -22.2160  -11.0340 C.2     1  UNL1        0.0140
      2  C         22.1080  -21.8000  -11.8580 C.2     1  UNL1        0.0780
      3  C         22.3520  -21.4370  -13.1820 C.2     1  UNL1        0.0380
      4  C         23.6470  -21.4890  -13.6990 C.2     1  UNL1        0.0150
      5  C         24.7270  -21.8890  -12.9070 C.2     1  UNL1       -0.0250
      6  C         26.0220  -21.9180  -13.4520 C.2     1  UNL1        0.0120
      7  C         27.1190  -22.2970  -12.6810 C.2     1  UNL1        0.0010
      8  C         26.9330  -22.6510  -11.3540 C.2     1  UNL1        0.0010
      9  C         25.6490  -22.6320  -10.8020 C.2     1  UNL1        0.0130
     10  C         24.5110  -22.2550  -11.5550 C.2     1  UNL1       -0.0150
     11  C         22.9000  -22.6000   -9.5880 C.3     1  UNL1        0.3120
     12  N         22.4100  -23.9750   -9.5090 N.3     1  UNL1        0.0870
     13  H         23.1590  -24.5650   -9.1470 H       1  UNL1        0.3160
     14  C         21.2200  -24.0930   -8.6680 C.3     1  UNL1        0.2740
     15  C         20.8470  -22.7360   -8.0460 C.3     1  UNL1        0.0680
     16  C         19.6040  -22.8120   -7.1840 C.2     1  UNL1       -0.0560
     17  C         19.1920  -21.7030   -6.4280 C.2     1  UNL1        0.0090
     18  C         18.0060  -21.7490   -5.6930 C.2     1  UNL1        0.0250
     19  C         17.2290  -22.9090   -5.7160 C.2     1  UNL1        0.0740
     20  C         17.6220  -24.0200   -6.4630 C.2     1  UNL1        0.0250
     21  C         18.8120  -23.9710   -7.1880 C.2     1  UNL1        0.0090
     22  S         15.6960  -22.9740   -4.8290 S.O2    1  UNL1        0.2390
     23  O         14.7140  -22.1870   -5.5380 O.2     1  UNL1       -0.2060
     24  O         15.4590  -24.3430   -4.4360 O.2     1  UNL1       -0.2060
     25  N         16.0610  -22.0840   -3.4460 N.3     1  UNL1       -0.2250
     26  H         15.4210  -21.3040   -3.2930 H       1  UNL1        0.1360
     27  H         16.0780  -22.7200   -2.6460 H       1  UNL1        0.1360
     28  O         20.8690  -21.7620  -11.2710 O.2     1  UNL1       -0.3460
     29  C         19.7590  -21.3950  -12.0830 C.3     1  UNL1        0.2140
     30  C         18.4950  -21.7130  -11.3230 C.2     1  UNL1       -0.0340
     31  C         18.3220  -22.9550  -10.6970 C.2     1  UNL1        0.0090
     32  C         17.1500  -23.2340   -9.9920 C.2     1  UNL1        0.0010
     33  C         16.1400  -22.2770   -9.9100 C.2     1  UNL1        0.0000
     34  C         16.2960  -21.0410  -10.5340 C.2     1  UNL1        0.0010
     35  C         17.4680  -20.7600  -11.2380 C.2     1  UNL1        0.0090
@<TRIPOS>BOND
     1     4     3    2
     2     4     5    1
     3     6     5    2
     4     6     7    1
     5     3     2    1
     6     5    10    1
     7     7     8    2
     8    29    30    1
     9    29    28    1
    10     2    28    1
    11     2     1    2
    12    10     1    1
    13    10     9    2
    14     8     9    1
    15    30    35    2
    16    30    31    1
    17    35    34    1
    18     1    11    1
    19    31    32    2
    20    34    33    2
    21    32    33    1
    22    11    12    1
    23    12    13    1
    24    12    14    1
    25    14    15    1
    26    15    16    1
    27    21    16    2
    28    21    20    1
    29    16    17    1
    30    20    19    2
    31    17    18    2
    32    19    18    1
    33    19    22    1
    34    23    22    2
    35    22    24    2
    36    22    25    1
    37    25    26    1
    38    25    27    1
