@<TRIPOS>MOLECULE
34373_out_ligand_01.pdbqt
 42 46 0 0 0
SMALL
GASTEIGER

@<TRIPOS>ATOM
      1  C         22.0890  -23.0150  -10.2810 C.ar    1  UNL1        0.1000
      2  N         22.2480  -24.0010   -9.3720 N.ar    1  UNL1       -0.1470
      3  N         21.1610  -24.5220   -8.7260 N.ar    1  UNL1       -0.1310
      4  C         19.9130  -24.0750   -8.9810 C.ar    1  UNL1        0.1610
      5  C         19.6950  -23.0650   -9.9500 C.ar    1  UNL1        0.0240
      6  C         18.4050  -22.5850  -10.2970 C.2     1  UNL1        0.0160
      7  C         18.2230  -21.5890  -11.2590 C.2     1  UNL1        0.0010
      8  C         19.3250  -21.0470  -11.9050 C.2     1  UNL1        0.0010
      9  C         20.6040  -21.5070  -11.5940 C.2     1  UNL1        0.0150
     10  C         20.8170  -22.5140  -10.6170 C.ar    1  UNL1        0.0090
     11  C         23.3490  -22.5460  -10.8710 C.2     1  UNL1       -0.0030
     12  C         24.0530  -21.4660  -10.3230 C.2     1  UNL1        0.0140
     13  C         25.2610  -21.0380  -10.8830 C.2     1  UNL1        0.0090
     14  C         25.8070  -21.6710  -12.0120 C.2     1  UNL1       -0.0390
     15  C         27.1140  -21.1610  -12.5490 C.3     1  UNL1        0.0500
     16  C         25.1000  -22.7520  -12.5690 C.2     1  UNL1        0.0860
     17  C         23.8940  -23.1890  -11.9900 C.2     1  UNL1        0.0390
     18  S         25.6270  -23.6450  -14.0230 S.O2    1  UNL1        0.2590
     19  O         25.0780  -24.9790  -13.9390 O.2     1  UNL1       -0.2010
     20  O         27.0260  -23.4150  -14.2990 O.2     1  UNL1       -0.2010
     21  N         24.7510  -22.8560  -15.2200 N.3     1  UNL1       -0.3110
     22  H         23.7760  -23.1540  -15.2600 H       1  UNL1        0.1720
     23  C         25.4360  -22.5760  -16.4820 C.3     1  UNL1        0.1720
     24  C         25.7630  -21.1160  -16.6450 C.2     1  UNL1       -0.0220
     25  C         25.8910  -20.2480  -15.5550 C.2     1  UNL1        0.0120
     26  C         26.2300  -18.9140  -15.7690 C.2     1  UNL1        0.0200
     27  C         26.4450  -18.4920  -17.0710 C.2     1  UNL1        0.1160
     28  N         26.3570  -19.3040  -18.1460 N.2     1  UNL1       -0.2730
     29  C         26.0220  -20.5920  -17.9090 C.2     1  UNL1        0.1240
     30  N         18.8000  -24.6120   -8.2730 N.pl3   1  UNL1       -0.3390
     31  H         18.3320  -25.2860   -8.8720 H       1  UNL1        0.1670
     32  C         17.8750  -23.9300   -7.4510 C.2     1  UNL1        0.0330
     33  C         18.2450  -23.2510   -6.2840 C.2     1  UNL1        0.0300
     34  C         17.2900  -22.6430   -5.4610 C.2     1  UNL1        0.0190
     35  C         15.9320  -22.7380   -5.7740 C.2     1  UNL1        0.0320
     36  C         15.5450  -23.4370   -6.9200 C.2     1  UNL1        0.0190
     37  C         16.5070  -24.0390   -7.7380 C.2     1  UNL1        0.0300
     38  C         14.8730  -22.1160   -4.9370 C.2     1  UNL1        0.2490
     39  N         13.7860  -21.5870   -5.5750 N.am    1  UNL1       -0.3660
     40  H         13.1400  -21.0680   -4.9950 H       1  UNL1        0.1590
     41  H         13.7820  -21.3930   -6.5660 H       1  UNL1        0.1590
     42  O         14.9760  -22.0400   -3.7180 O.2     1  UNL1       -0.2680
@<TRIPOS>BOND
     1    28    29    1
     2    28    27    2
     3    29    24    2
     4    27    26    1
     5    24    23    1
     6    24    25    1
     7    23    21    1
     8    26    25    2
     9    22    21    1
    10    21    18    1
    11    20    18    2
    12    18    19    2
    13    18    16    1
    14    16    14    2
    15    16    17    1
    16    15    14    1
    17    14    13    1
    18    17    11    2
    19     8     9    2
    20     8     7    1
    21     9    10    1
    22     7     6    2
    23    13    12    2
    24    11    12    1
    25    11     1    1
    26    10     1   ar
    27    10     5   ar
    28     6     5    1
    29     1     2   ar
    30     5     4   ar
    31     2     3   ar
    32     4     3   ar
    33     4    30    1
    34    31    30    1
    35    30    32    1
    36    37    32    2
    37    37    36    1
    38    32    33    1
    39    36    35    2
    40    41    39    1
    41    33    34    2
    42    35    34    1
    43    35    38    1
    44    39    40    1
    45    39    38   am
    46    38    42    2
