@<TRIPOS>MOLECULE
34489_out_ligand_01.pdbqt
 33 36 0 0 0
SMALL
GASTEIGER

@<TRIPOS>ATOM
      1  C         23.2840  -22.3550   -9.9930 C.ar    1  UNL1        0.7250
      2  N         24.4160  -22.9760  -10.2810 N.ar    1  UNL1       -0.0420
      3  C         24.6080  -22.7810  -11.6090 C.ar    1  UNL1        0.1860
      4  C         23.6000  -22.0540  -12.1680 C.ar    1  UNL1        0.1660
      5  C         23.5840  -21.7040  -13.5450 C.ar    1  UNL1        0.2800
      6  O         22.7200  -21.0280  -14.0920 O.2     1  UNL1       -0.2650
      7  N         24.6710  -22.2010  -14.2280 N.ar    1  UNL1       -0.2730
      8  C         25.7220  -22.9370  -13.7090 C.ar    1  UNL1        0.3300
      9  O         26.6320  -23.2830  -14.4630 O.2     1  UNL1       -0.2460
     10  N         25.6780  -23.2350  -12.3530 N.ar    1  UNL1       -0.2860
     11  C         26.7430  -23.9920  -11.7230 C.3     1  UNL1        0.1630
     12  N         22.7370  -21.7950  -11.1380 N.ar    1  UNL1       -0.1700
     13  H         24.7280  -21.9860  -15.2100 H       1  UNL1        0.1730
     14  N         22.6720  -22.2360   -8.7800 N.pl3   1  UNL1       -0.1070
     15  H         23.2760  -22.1260   -7.9660 H       1  UNL1        0.2080
     16  N         21.4810  -22.8230   -8.4420 N.2     1  UNL1       -0.1720
     17  C         20.7780  -22.2100   -7.5400 C.2     1  UNL1        0.1500
     18  C         19.4590  -22.7110   -7.1050 C.2     1  UNL1       -0.0170
     19  C         18.5870  -21.8340   -6.4540 C.2     1  UNL1        0.0150
     20  C         17.3310  -22.2820   -6.0300 C.2     1  UNL1        0.0370
     21  C         16.9440  -23.6050   -6.2540 C.2     1  UNL1        0.0680
     22  C         17.8230  -24.4750   -6.9070 C.2     1  UNL1        0.0370
     23  C         19.0780  -24.0330   -7.3340 C.2     1  UNL1        0.0150
     24  O         15.7520  -24.1680   -5.8910 O.2     1  UNL1       -0.3560
     25  C         15.2320  -23.8080   -4.6180 C.3     1  UNL1        0.2100
     26  C         21.4770  -21.0820  -11.2520 C.3     1  UNL1        0.1530
     27  C         20.4470  -21.8680  -12.0590 C.3     1  UNL1        0.0590
     28  C         19.0880  -21.8190  -11.4090 C.2     1  UNL1       -0.0570
     29  C         18.6130  -22.9050  -10.6640 C.2     1  UNL1        0.0070
     30  C         17.3440  -22.8600  -10.0840 C.2     1  UNL1        0.0010
     31  C         16.5400  -21.7340  -10.2470 C.2     1  UNL1        0.0000
     32  C         17.0030  -20.6500  -10.9910 C.2     1  UNL1        0.0010
     33  C         18.2710  -20.6910  -11.5710 C.2     1  UNL1        0.0070
@<TRIPOS>BOND
     1    13     7    1
     2     9     8    2
     3     7     8   ar
     4     7     5   ar
     5     6     5    2
     6     8    10   ar
     7     5     4   ar
     8    10    11    1
     9    10     3   ar
    10     4     3   ar
    11     4    12   ar
    12    27    28    1
    13    27    26    1
    14     3     2   ar
    15    33    28    2
    16    33    32    1
    17    28    29    1
    18    26    12    1
    19    12     1   ar
    20    32    31    2
    21    29    30    2
    22     2     1   ar
    23    31    30    1
    24     1    14    1
    25    14    16    1
    26    14    15    1
    27    16    17    2
    28    17    18    1
    29    23    18    2
    30    23    22    1
    31    18    19    1
    32    22    21    2
    33    19    20    2
    34    21    20    1
    35    21    24    1
    36    24    25    1
