@<TRIPOS>MOLECULE
34494_out_ligand_01.pdbqt
 34 37 0 0 0
SMALL
GASTEIGER

@<TRIPOS>ATOM
      1  C         24.1070  -21.7470  -10.3310 C.ar    1  UNL1        0.7260
      2  N         25.1410  -20.9410  -10.5050 N.ar    1  UNL1       -0.0420
      3  C         25.1440  -20.6340  -11.8260 C.ar    1  UNL1        0.1860
      4  C         24.1260  -21.2500  -12.4940 C.ar    1  UNL1        0.1670
      5  C         23.9120  -21.0650  -13.8850 C.ar    1  UNL1        0.2800
      6  O         22.9890  -21.5480  -14.5320 O.2     1  UNL1       -0.2650
      7  N         24.8550  -20.2440  -14.4610 N.ar    1  UNL1       -0.2730
      8  C         25.8940  -19.5870  -13.8280 C.ar    1  UNL1        0.3300
      9  O         26.6270  -18.8540  -14.4940 O.2     1  UNL1       -0.2460
     10  N         26.0370  -19.8000  -12.4620 N.ar    1  UNL1       -0.2860
     11  C         27.0970  -19.1490  -11.7150 C.3     1  UNL1        0.1630
     12  N         23.4800  -22.0020  -11.5430 N.ar    1  UNL1       -0.1660
     13  H         24.7580  -20.0620  -15.4470 H       1  UNL1        0.1730
     14  N         23.6740  -22.3050   -9.1630 N.pl3   1  UNL1       -0.1070
     15  H         23.8260  -23.3040   -9.0440 H       1  UNL1        0.2080
     16  N         22.5730  -21.8890   -8.4590 N.2     1  UNL1       -0.1720
     17  C         21.7000  -22.8050   -8.1690 C.2     1  UNL1        0.1500
     18  C         20.4850  -22.5060   -7.3860 C.2     1  UNL1       -0.0170
     19  C         20.4070  -21.3670   -6.5820 C.2     1  UNL1        0.0150
     20  C         19.2430  -21.1030   -5.8500 C.2     1  UNL1        0.0370
     21  C         18.1590  -21.9780   -5.9160 C.2     1  UNL1        0.0680
     22  C         18.2460  -23.1140   -6.7270 C.2     1  UNL1        0.0370
     23  C         19.4040  -23.3850   -7.4610 C.2     1  UNL1        0.0150
     24  O         16.9660  -21.8430   -5.2630 O.2     1  UNL1       -0.3520
     25  C         16.0020  -22.8900   -5.3640 C.3     1  UNL1        0.1710
     26  C         14.6340  -22.3290   -5.7170 C.3     1  UNL1        0.0340
     27  C         22.3610  -22.8980  -11.7890 C.3     1  UNL1        0.1860
     28  C         21.0330  -22.2030  -11.6050 C.2     1  UNL1       -0.0390
     29  C         19.9570  -22.8810  -11.0050 C.2     1  UNL1        0.0120
     30  C         18.7260  -22.2460  -10.8300 C.2     1  UNL1        0.0430
     31  C         18.5650  -20.9330  -11.2520 C.2     1  UNL1        0.1160
     32  F         17.3850  -20.3240  -11.0830 F       1  UNL1       -0.2060
     33  C         19.6130  -20.2430  -11.8490 C.2     1  UNL1        0.0430
     34  C         20.8440  -20.8750  -12.0270 C.2     1  UNL1        0.0120
@<TRIPOS>BOND
     1    13     7    1
     2     6     5    2
     3     9     8    2
     4     7     5   ar
     5     7     8   ar
     6     5     4   ar
     7     8    10   ar
     8     4     3   ar
     9     4    12   ar
    10    10     3   ar
    11    10    11    1
    12    34    33    1
    13    34    28    2
    14    33    31    2
    15     3     2   ar
    16    27    28    1
    17    27    12    1
    18    28    29    1
    19    12     1   ar
    20    31    32    1
    21    31    30    1
    22    29    30    2
    23     2     1   ar
    24     1    14    1
    25    14    15    1
    26    14    16    1
    27    16    17    2
    28    17    18    1
    29    23    18    2
    30    23    22    1
    31    18    19    1
    32    22    21    2
    33    19    20    2
    34    21    20    1
    35    21    24    1
    36    26    25    1
    37    25    24    1
