@<TRIPOS>MOLECULE
34837_out_ligand_01.pdbqt
 32 35 0 0 0
SMALL
GASTEIGER

@<TRIPOS>ATOM
      1  C         17.3690  -22.3200  -10.2560 C.2     1  UNL1        0.0650
      2  C         17.1380  -21.1400  -10.9850 C.2     1  UNL1        0.0200
      3  C         18.1470  -20.5660  -11.7610 C.2     1  UNL1        0.0010
      4  C         19.4030  -21.1580  -11.8060 C.2     1  UNL1        0.0030
      5  C         19.6480  -22.3300  -11.0910 C.2     1  UNL1        0.0380
      6  C         18.6310  -22.9380  -10.3450 C.2     1  UNL1        0.0850
      7  O         18.9020  -24.0680   -9.6220 O.2     1  UNL1       -0.3450
      8  C         19.8630  -23.9730   -8.5470 C.3     1  UNL1        0.1320
      9  C         20.0050  -22.5380   -8.0310 C.3     1  UNL1        0.0620
     10  C         21.4620  -22.1280   -7.8230 C.3     1  UNL1        0.2750
     11  N         22.2070  -22.4330   -9.0350 N.3     1  UNL1        0.0940
     12  C         22.3390  -23.8730   -9.2770 C.3     1  UNL1        0.2750
     13  C         21.1910  -24.7230   -8.7170 C.3     1  UNL1        0.0620
     14  C         23.5100  -21.7530   -9.1400 C.3     1  UNL1        0.3310
     15  C         24.0100  -21.5830  -10.5660 C.2     1  UNL1        0.0620
     16  C         23.2040  -21.9510  -11.6430 C.2     1  UNL1        0.0290
     17  C         23.6910  -21.7900  -12.9380 C.2     1  UNL1        0.0030
     18  C         24.9640  -21.2670  -13.1250 C.2     1  UNL1        0.0190
     19  C         25.7020  -20.9240  -12.0050 C.2     1  UNL1        0.1170
     20  N         25.2540  -21.0640  -10.7390 N.2     1  UNL1       -0.2640
     21  C         16.2270  -22.8280   -9.4250 C.2     1  UNL1        0.2540
     22  N         16.5400  -23.4570   -8.2470 N.am    1  UNL1       -0.3530
     23  H         17.5060  -23.4260   -7.9400 H       1  UNL1        0.1630
     24  O         15.0660  -22.6710   -9.7950 O.2     1  UNL1       -0.2680
     25  C         15.5370  -23.8450   -7.2880 C.3     1  UNL1        0.1620
     26  C         15.9780  -23.4770   -5.8890 C.2     1  UNL1       -0.0350
     27  C         17.1820  -24.0180   -5.4000 C.2     1  UNL1        0.0090
     28  C         17.6530  -23.6830   -4.1330 C.2     1  UNL1        0.0010
     29  C         16.9370  -22.7930   -3.3380 C.2     1  UNL1        0.0010
     30  C         15.7460  -22.2410   -3.8120 C.2     1  UNL1        0.0070
     31  C         15.2540  -22.5690   -5.0850 C.2     1  UNL1       -0.0540
     32  C         13.9690  -21.9400   -5.5560 C.3     1  UNL1        0.0490
@<TRIPOS>BOND
     1    18    17    2
     2    18    19    1
     3    17    16    1
     4    19    20    2
     5     4     3    2
     6     4     5    1
     7     3     2    1
     8    16    15    2
     9     5     6    2
    10     2     1    2
    11    20    15    1
    12    15    14    1
    13     6     1    1
    14     6     7    1
    15     1    21    1
    16    24    21    2
    17     7     8    1
    18    21    22   am
    19    12    11    1
    20    12    13    1
    21    14    11    1
    22    11    10    1
    23    13     8    1
    24     8     9    1
    25    22    23    1
    26    22    25    1
    27     9    10    1
    28    25    26    1
    29    26    27    2
    30    26    31    1
    31    32    31    1
    32    27    28    1
    33    31    30    2
    34    28    29    2
    35    30    29    1
