@<TRIPOS>MOLECULE
34834_out_ligand_01.pdbqt
 36 40 0 0 0
SMALL
GASTEIGER

@<TRIPOS>ATOM
      1  C         23.1060  -22.1770  -11.9570 C.2     1  UNL1       -0.0230
      2  C         23.2880  -22.9790  -10.8150 C.2     1  UNL1        0.0130
      3  C         22.2290  -23.3100   -9.9580 C.2     1  UNL1        0.0390
      4  C         20.9770  -22.8100  -10.2930 C.2     1  UNL1        0.0860
      5  O         19.8310  -23.0220   -9.5950 O.2     1  UNL1       -0.3040
      6  C         18.8260  -22.3500  -10.2390 C.2     1  UNL1        0.1440
      7  C         19.3380  -21.7400  -11.3700 C.2     1  UNL1        0.0570
      8  C         20.7280  -22.0190  -11.4010 C.2     1  UNL1        0.0010
      9  C         21.8050  -21.6990  -12.2480 C.2     1  UNL1        0.0240
     10  C         17.4600  -22.4200   -9.7480 C.2     1  UNL1        0.2770
     11  O         16.5810  -21.7080  -10.2400 O.2     1  UNL1       -0.2650
     12  N         17.1490  -23.3210   -8.7190 N.am    1  UNL1       -0.3460
     13  C         15.7520  -23.4660   -8.3470 C.3     1  UNL1        0.1530
     14  C         18.1330  -23.7730   -7.7250 C.3     1  UNL1        0.1660
     15  C         18.3060  -22.8490   -6.5340 C.2     1  UNL1       -0.0110
     16  C         19.2330  -21.7880   -6.5560 C.2     1  UNL1        0.0110
     17  C         19.3570  -20.9280   -5.4710 C.2     1  UNL1        0.0020
     18  C         18.5470  -21.1090   -4.3560 C.2     1  UNL1        0.0140
     19  C         17.6040  -22.1480   -4.3270 C.2     1  UNL1       -0.0070
     20  C         16.7710  -22.3300   -3.2150 C.2     1  UNL1        0.0150
     21  C         17.4710  -23.0310   -5.4230 C.2     1  UNL1        0.0740
     22  C         15.8380  -23.3570   -3.2080 C.2     1  UNL1        0.0200
     23  C         15.7700  -24.1710   -4.3190 C.2     1  UNL1        0.1170
     24  N         16.5600  -24.0280   -5.4060 N.2     1  UNL1       -0.2600
     25  C         24.2510  -21.8290  -12.9120 C.3     1  UNL1        0.0880
     26  C         25.0610  -23.0290  -13.4340 C.3     1  UNL1        0.0730
     27  C         26.2490  -22.5770  -14.2960 C.3     1  UNL1        0.2760
     28  N         25.9930  -21.3210  -15.0120 N.3     1  UNL1        0.0920
     29  C         24.5860  -21.1430  -15.3630 C.3     1  UNL1        0.2760
     30  C         23.7100  -21.0160  -14.1090 C.3     1  UNL1        0.0730
     31  C         26.9330  -20.9860  -16.1010 C.3     1  UNL1        0.2180
     32  C         26.8020  -21.9310  -17.3060 C.3     1  UNL1        0.0430
     33  C         27.0050  -19.5070  -16.5540 C.3     1  UNL1        0.0310
     34  C         27.0310  -18.4550  -15.4570 C.3     1  UNL1        0.0070
     35  O         25.1600  -20.9950  -12.1690 O.3     1  UNL1       -0.3850
     36  H         26.0560  -21.2480  -12.4670 H       1  UNL1        0.2110
@<TRIPOS>BOND
     1    32    31    1
     2    33    31    1
     3    33    34    1
     4    31    28    1
     5    29    28    1
     6    29    30    1
     7    28    27    1
     8    27    26    1
     9    30    25    1
    10    26    25    1
    11    25    35    1
    12    25     1    1
    13    36    35    1
    14     9     1    2
    15     9     8    1
    16     1     2    1
    17     8     7    1
    18     8     4    2
    19     7     6    2
    20     2     3    2
    21     4     3    1
    22     4     5    1
    23    11    10    2
    24     6    10    1
    25     6     5    1
    26    10    12   am
    27    12    13    1
    28    12    14    1
    29    14    15    1
    30    16    15    2
    31    16    17    1
    32    15    21    1
    33    17    18    2
    34    21    24    1
    35    21    19    2
    36    24    23    2
    37    18    19    1
    38    19    20    1
    39    23    22    1
    40    20    22    2
