@<TRIPOS>MOLECULE
34911_out_ligand_01.pdbqt
 38 44 0 0 0
SMALL
GASTEIGER

@<TRIPOS>ATOM
      1  C         21.8960  -23.1700   -9.6350 C.2     1  UNL1        0.0760
      2  C         23.1180  -23.6960   -9.1640 C.2     1  UNL1        0.1590
      3  N         24.1910  -23.1210   -9.6990 N.2     1  UNL1       -0.1640
      4  N         23.6810  -22.2180  -10.5940 N.pl3   1  UNL1       -0.0630
      5  C         22.2980  -22.1390  -10.4730 C.2     1  UNL1        0.0760
      6  C         20.5440  -23.5890   -9.2910 C.2     1  UNL1        0.2550
      7  O         20.1470  -24.7460   -9.3860 O.2     1  UNL1       -0.2680
      8  N         19.7350  -22.5730   -8.8200 N.am    1  UNL1       -0.3560
      9  H         20.1130  -21.6450   -8.7020 H       1  UNL1        0.1620
     10  C         18.3250  -22.7760   -8.5390 C.3     1  UNL1        0.1290
     11  C         17.9020  -22.1020   -7.2240 C.3     1  UNL1        0.0370
     12  C         18.9890  -22.2630   -6.1490 C.3     1  UNL1        0.0100
     13  C         18.5470  -21.6140   -4.8420 C.3     1  UNL1        0.0310
     14  C         17.1890  -22.1420   -4.3910 C.3     1  UNL1        0.2730
     15  N         16.1730  -21.9560   -5.4340 N.3     1  UNL1        0.0930
     16  C         14.8340  -22.3480   -4.9760 C.3     1  UNL1        0.2730
     17  C         16.5200  -22.6030   -6.7190 C.3     1  UNL1        0.2280
     18  C         14.6370  -23.8610   -4.8630 C.3     1  UNL1        0.0300
     19  C         15.0040  -24.5610   -6.1660 C.3     1  UNL1        0.0040
     20  C         16.3900  -24.1400   -6.6500 C.3     1  UNL1        0.0360
     21  C         21.3490  -21.1300  -11.1920 C.3     1  UNL1        0.0390
     22  C         20.0390  -21.6080  -11.7710 C.3     1  UNL1        0.0110
     23  C         21.1600  -21.2430  -12.6880 C.3     1  UNL1        0.0110
     24  C         24.5460  -21.5350  -11.5270 C.cat   1  UNL1        0.7500
     25  N         25.4510  -20.6710  -11.0310 N.2     1  UNL1       -0.0730
     26  C         26.2510  -20.0700  -11.9200 C.2     1  UNL1        0.1460
     27  C         26.2160  -20.2960  -13.2870 C.2     1  UNL1       -0.0100
     28  C         25.2900  -21.2260  -13.7240 C.2     1  UNL1        0.0940
     29  C         27.1210  -19.5200  -14.1860 C.3     1  UNL1        0.0430
     30  N         24.4510  -21.8310  -12.8380 N.2     1  UNL1       -0.0600
     31  C         25.1320  -21.7080  -15.1280 C.2     1  UNL1        0.0000
     32  C         24.6360  -23.0320  -15.2970 C.2     1  UNL1        0.0140
     33  C         25.4320  -20.9940  -16.3130 C.2     1  UNL1       -0.0460
     34  C         24.4290  -23.6250  -16.5440 C.2     1  UNL1        0.0010
     35  C         24.7180  -22.9110  -17.6900 C.2     1  UNL1        0.0010
     36  C         25.2130  -21.6160  -17.5730 C.2     1  UNL1        0.0080
     37  C         26.0010  -19.5960  -16.4370 C.3     1  UNL1        0.0400
     38  C         26.2810  -18.7630  -15.2000 C.3     1  UNL1        0.0090
@<TRIPOS>BOND
     1    35    36    2
     2    35    34    1
     3    36    33    1
     4    34    32    2
     5    37    33    1
     6    37    38    1
     7    33    31    2
     8    32    31    1
     9    38    29    1
    10    31    28    1
    11    29    27    1
    12    28    27    1
    13    28    30    2
    14    27    26    2
    15    30    24    1
    16    23    22    1
    17    23    21    1
    18    26    25    1
    19    22    21    1
    20    24    25    2
    21    24     4    1
    22    21     5    1
    23     4     5    1
    24     4     3    1
    25     5     1    2
    26     3     2    2
    27     1     6    1
    28     1     2    1
    29     7     6    2
    30     6     8   am
    31     8     9    1
    32     8    10    1
    33    10    11    1
    34    11    17    1
    35    11    12    1
    36    17    20    1
    37    17    15    1
    38    20    19    1
    39    19    18    1
    40    12    13    1
    41    15    16    1
    42    15    14    1
    43    16    18    1
    44    13    14    1
