@<TRIPOS>MOLECULE
35362_out_ligand_01.pdbqt
 35 37 0 0 0
SMALL
GASTEIGER

@<TRIPOS>ATOM
      1  C         17.5990  -22.6830   -9.3080 C.2     1  UNL1        0.0800
      2  C         17.0530  -21.8780  -10.3120 C.2     1  UNL1        0.0260
      3  C         17.8820  -21.3480  -11.3020 C.2     1  UNL1        0.0090
      4  C         19.2590  -21.6200  -11.3060 C.2     1  UNL1       -0.0460
      5  C         20.1260  -21.0100  -12.3720 C.3     1  UNL1        0.0490
      6  C         19.7820  -22.4690  -10.3070 C.2     1  UNL1        0.0390
      7  C         18.9620  -22.9830   -9.2970 C.2     1  UNL1        0.0420
      8  S         16.5390  -23.3400   -8.0420 S.O2    1  UNL1        0.2630
      9  O         15.7500  -22.2220   -7.5680 O.2     1  UNL1       -0.2000
     10  O         15.9150  -24.5430   -8.5440 O.2     1  UNL1       -0.2000
     11  N         17.6010  -23.7270   -6.8180 N.pl3   1  UNL1       -0.2780
     12  H         18.2980  -24.4290   -7.0780 H       1  UNL1        0.1790
     13  C         18.0050  -22.8390   -5.7720 C.2     1  UNL1        0.0760
     14  C         18.8030  -21.7120   -5.9830 C.2     1  UNL1        0.0330
     15  C         19.0790  -20.8410   -4.9270 C.2     1  UNL1        0.0020
     16  C         18.5490  -21.0850   -3.6640 C.2     1  UNL1        0.0030
     17  C         17.7340  -22.1980   -3.4450 C.2     1  UNL1        0.0390
     18  C         17.4470  -23.0720   -4.4960 C.2     1  UNL1        0.0960
     19  O         16.6490  -24.1890   -4.4050 O.2     1  UNL1       -0.3490
     20  C         15.3110  -24.0510   -3.9250 C.3     1  UNL1        0.1710
     21  C         14.3180  -24.0900   -5.0760 C.3     1  UNL1        0.0340
     22  C         21.2070  -22.8760  -10.2850 C.2     1  UNL1        0.2560
     23  O         21.5070  -23.9090   -9.7050 O.2     1  UNL1       -0.2670
     24  N         22.0280  -22.0230  -10.9960 N.am    1  UNL1       -0.3230
     25  H         21.5720  -21.2510  -11.4690 H       1  UNL1        0.1690
     26  C         23.4180  -22.1400  -11.1930 C.2     1  UNL1        0.0350
     27  C         24.3720  -21.4850  -10.4160 C.2     1  UNL1        0.0290
     28  C         25.7370  -21.6530  -10.6760 C.2     1  UNL1        0.0030
     29  C         26.1590  -22.4860  -11.7110 C.2     1  UNL1        0.0160
     30  C         25.2180  -23.1580  -12.5020 C.2     1  UNL1        0.0500
     31  C         23.8480  -22.9710  -12.2360 C.2     1  UNL1        0.0450
     32  C         25.6470  -24.0500  -13.6380 C.3     1  UNL1        0.4170
     33  F         26.8190  -24.6940  -13.3740 F       1  UNL1       -0.1660
     34  F         24.7440  -25.0240  -13.9420 F       1  UNL1       -0.1660
     35  F         25.8560  -23.3610  -14.7940 F       1  UNL1       -0.1660
@<TRIPOS>BOND
     1    35    32    1
     2    34    32    1
     3    32    33    1
     4    32    30    1
     5    30    31    1
     6    30    29    2
     7     5     4    1
     8    31    26    2
     9    29    28    1
    10    25    24    1
    11     4     3    2
    12     4     6    1
    13     3     2    1
    14    26    24    1
    15    26    27    1
    16    24    22   am
    17    28    27    2
    18     2     1    2
    19     6    22    1
    20     6     7    2
    21    22    23    2
    22     1     7    1
    23     1     8    1
    24    10     8    2
    25     8     9    2
    26     8    11    1
    27    12    11    1
    28    11    13    1
    29    14    13    2
    30    14    15    1
    31    13    18    1
    32    21    20    1
    33    15    16    2
    34    18    19    1
    35    18    17    2
    36    19    20    1
    37    16    17    1
