@<TRIPOS>MOLECULE
35553_out_ligand_01.pdbqt
 41 45 0 0 0
SMALL
GASTEIGER

@<TRIPOS>ATOM
      1  C         17.2950  -22.2750  -10.0670 C.2     1  UNL1        0.0320
      2  C         18.5240  -22.9410  -10.0070 C.2     1  UNL1        0.0180
      3  C         19.5790  -22.5560  -10.8410 C.2     1  UNL1        0.0120
      4  C         19.4250  -21.4880  -11.7310 C.2     1  UNL1       -0.0330
      5  C         18.1940  -20.8240  -11.7900 C.2     1  UNL1        0.0120
      6  C         17.1370  -21.2050  -10.9560 C.2     1  UNL1        0.0180
      7  C         20.5430  -21.1280  -12.6150 C.2     1  UNL1        0.0540
      8  C         21.8290  -21.4750  -12.4190 C.2     1  UNL1        0.1450
      9  O         22.1970  -22.2480  -11.3350 O.2     1  UNL1       -0.3030
     10  C         22.8370  -21.0070  -13.4280 C.2     1  UNL1        0.2820
     11  C         23.5200  -22.5480  -11.1660 C.2     1  UNL1        0.1030
     12  C         23.8200  -23.3220  -10.0390 C.2     1  UNL1        0.0390
     13  C         24.5210  -22.1190  -12.0400 C.2     1  UNL1        0.0710
     14  C         25.1360  -23.6770   -9.7670 C.2     1  UNL1        0.0030
     15  C         26.1490  -23.2550  -10.6220 C.2     1  UNL1        0.0020
     16  C         25.8440  -22.4820  -11.7480 C.2     1  UNL1        0.0330
     17  N         24.1620  -21.3450  -13.1780 N.am    1  UNL1       -0.3050
     18  O         22.4820  -20.3600  -14.4140 O.2     1  UNL1       -0.2650
     19  C         25.1750  -20.8860  -14.1330 C.3     1  UNL1        0.1740
     20  C         25.1060  -21.5690  -15.4780 C.2     1  UNL1       -0.0010
     21  C         24.7900  -22.9300  -15.5990 C.2     1  UNL1        0.0120
     22  C         24.7060  -23.5320  -16.8580 C.2     1  UNL1        0.0010
     23  C         24.9210  -22.7790  -18.0130 C.2     1  UNL1        0.0030
     24  C         25.2200  -21.4230  -17.9080 C.2     1  UNL1        0.0430
     25  C         25.3030  -20.8320  -16.6500 C.2     1  UNL1        0.1240
     26  F         25.5880  -19.5230  -16.5760 F       1  UNL1       -0.2050
     27  C         16.1980  -22.7250   -9.1640 C.2     1  UNL1        0.2510
     28  N         16.2890  -22.3260   -7.8470 N.am    1  UNL1       -0.3570
     29  H         16.9440  -21.5990   -7.5940 H       1  UNL1        0.1620
     30  O         15.2620  -23.3790   -9.6090 O.2     1  UNL1       -0.2680
     31  C         15.2190  -22.5710   -6.9010 C.3     1  UNL1        0.1240
     32  C         15.5460  -23.6850   -5.9040 C.3     1  UNL1        0.0500
     33  C         16.9660  -24.2610   -6.0450 C.3     1  UNL1        0.2740
     34  N         17.8690  -23.9790   -4.9220 N.3     1  UNL1        0.0930
     35  C         17.3340  -24.4220   -3.6250 C.3     1  UNL1        0.2730
     36  C         16.1260  -23.6020   -3.1610 C.3     1  UNL1        0.0300
     37  C         16.2740  -22.1120   -3.4660 C.3     1  UNL1        0.0040
     38  C         17.7340  -21.7420   -3.6970 C.3     1  UNL1        0.0360
     39  C         18.3910  -22.5890   -4.8180 C.3     1  UNL1        0.2220
     40  C         18.5970  -21.7780   -6.1230 C.3     1  UNL1        0.0310
     41  C         19.9790  -21.8300   -6.7620 C.3     1  UNL1        0.0070
@<TRIPOS>BOND
     1    23    24    2
     2    23    22    1
     3    24    25    1
     4    22    21    2
     5    25    26    1
     6    25    20    2
     7    21    20    1
     8    20    19    1
     9    18    10    2
    10    19    17    1
    11    10    17   am
    12    10     8    1
    13    17    13    1
    14     7     8    2
    15     7     4    1
    16     8     9    1
    17    13    16    1
    18    13    11    2
    19     5     4    2
    20     5     6    1
    21    16    15    2
    22     4     3    1
    23     9    11    1
    24    11    12    1
    25     6     1    2
    26     3     2    2
    27    15    14    1
    28     1     2    1
    29     1    27    1
    30    12    14    2
    31    30    27    2
    32    27    28   am
    33    28    29    1
    34    28    31    1
    35    31    32    1
    36    41    40    1
    37    40    39    1
    38    33    32    1
    39    33    34    1
    40    34    39    1
    41    34    35    1
    42    39    38    1
    43    38    37    1
    44    35    36    1
    45    37    36    1
