@<TRIPOS>MOLECULE
35674_out_ligand_01.pdbqt
 37 40 0 0 0
SMALL
GASTEIGER

@<TRIPOS>ATOM
      1  N         20.1600  -23.3390   -9.4500 N.ar    1  UNL1       -0.2900
      2  C         21.4830  -23.4510   -9.8540 C.ar    1  UNL1        0.3320
      3  O         22.1970  -24.3540   -9.4030 O.2     1  UNL1       -0.2460
      4  N         21.9380  -22.5480  -10.8030 N.ar    1  UNL1       -0.2650
      5  C         21.1010  -21.7380  -11.5550 C.ar    1  UNL1        0.2640
      6  O         21.4790  -21.0220  -12.4810 O.2     1  UNL1       -0.2670
      7  C         19.6690  -21.7500  -11.2130 C.ar    1  UNL1        0.0590
      8  C         18.7750  -20.9670  -11.9600 C.2     1  UNL1        0.0190
      9  C         17.4180  -20.9690  -11.6500 C.2     1  UNL1        0.0010
     10  C         16.9590  -21.7490  -10.5960 C.2     1  UNL1        0.0020
     11  C         17.8540  -22.5280   -9.8530 C.2     1  UNL1        0.0310
     12  C         19.2250  -22.5380  -10.1530 C.ar    1  UNL1        0.0550
     13  C         23.3530  -22.6180  -11.1740 C.3     1  UNL1        0.1370
     14  C         24.2460  -21.6380  -10.3990 C.3     1  UNL1        0.0210
     15  C         25.7140  -21.5780  -10.8430 C.3     1  UNL1        0.0110
     16  C         26.4900  -22.8900  -10.8430 C.3     1  UNL1        0.1030
     17  C         26.6810  -23.5100  -12.2110 C.2     1  UNL1        0.2170
     18  O         26.8880  -24.7050  -12.3910 O.2     1  UNL1       -0.2740
     19  N         26.5700  -22.5930  -13.2380 N.am    1  UNL1       -0.3560
     20  H         26.2120  -21.6750  -13.0110 H       1  UNL1        0.1620
     21  C         26.5380  -23.0230  -14.6280 C.3     1  UNL1        0.0840
     22  C         26.7770  -21.8590  -15.5850 C.3     1  UNL1        0.0250
     23  C         25.4250  -21.1600  -15.6660 C.3     1  UNL1        0.0020
     24  C         24.3820  -22.2590  -15.4780 C.3     1  UNL1        0.0020
     25  C         25.1450  -23.5090  -15.0320 C.3     1  UNL1        0.0250
     26  C         19.7320  -24.1720   -8.3220 C.3     1  UNL1        0.2370
     27  C         19.1530  -23.3350   -7.1770 C.2     1  UNL1        0.2400
     28  N         18.0510  -23.9280   -6.5810 N.am    1  UNL1       -0.3250
     29  H         17.8320  -24.8640   -6.9140 H       1  UNL1        0.1690
     30  O         19.6950  -22.2810   -6.8480 O.2     1  UNL1       -0.2710
     31  C         17.2600  -23.4340   -5.5190 C.2     1  UNL1        0.0400
     32  C         17.6680  -23.5070   -4.1820 C.2     1  UNL1        0.0300
     33  C         16.8600  -23.0120   -3.1530 C.2     1  UNL1        0.0020
     34  C         15.6280  -22.4430   -3.4470 C.2     1  UNL1        0.0010
     35  C         15.2100  -22.3510   -4.7720 C.2     1  UNL1        0.0090
     36  C         16.0160  -22.8340   -5.8200 C.2     1  UNL1       -0.0350
     37  C         15.5110  -22.6880   -7.2320 C.3     1  UNL1        0.0500
@<TRIPOS>BOND
     1    23    22    1
     2    23    24    1
     3    22    21    1
     4    24    25    1
     5    25    21    1
     6    21    19    1
     7    19    20    1
     8    19    17   am
     9     6     5    2
    10    18    17    2
    11    17    16    1
    12     8     9    1
    13     8     7    2
    14     9    10    2
    15     5     7   ar
    16     5     4   ar
    17     7    12   ar
    18    13     4    1
    19    13    14    1
    20    15    16    1
    21    15    14    1
    22     4     2   ar
    23    10    11    1
    24    12    11    2
    25    12     1   ar
    26     2     1   ar
    27     2     3    2
    28     1    26    1
    29    26    27    1
    30    37    36    1
    31    27    30    2
    32    27    28   am
    33    29    28    1
    34    28    31    1
    35    36    31    2
    36    36    35    1
    37    31    32    1
    38    35    34    2
    39    32    33    2
    40    34    33    1
