@<TRIPOS>MOLECULE
35752_out_ligand_01.pdbqt
 38 41 0 0 0
SMALL
GASTEIGER

@<TRIPOS>ATOM
      1  N         20.0980  -23.4950   -9.4570 N.ar    1  UNL1       -0.2900
      2  C         21.4040  -23.5940   -9.9220 C.ar    1  UNL1        0.3330
      3  O         22.1880  -24.4050   -9.4200 O.2     1  UNL1       -0.2460
      4  N         21.7650  -22.7690  -10.9720 N.ar    1  UNL1       -0.2570
      5  C         20.9420  -21.8030  -11.5230 C.ar    1  UNL1        0.2640
      6  O         21.3500  -20.9300  -12.2870 O.2     1  UNL1       -0.2670
      7  C         19.5290  -21.8240  -11.1200 C.ar    1  UNL1        0.0590
      8  C         18.6160  -20.9760  -11.7630 C.2     1  UNL1        0.0190
      9  C         17.2720  -20.9990  -11.3980 C.2     1  UNL1        0.0010
     10  C         16.8480  -21.8680  -10.4000 C.2     1  UNL1        0.0020
     11  C         17.7660  -22.7060   -9.7570 C.2     1  UNL1        0.0310
     12  C         19.1270  -22.6850  -10.1010 C.ar    1  UNL1        0.0550
     13  C         19.7520  -24.2870   -8.2740 C.3     1  UNL1        0.2370
     14  C         19.1410  -23.4150   -7.1740 C.2     1  UNL1        0.2400
     15  N         18.0240  -23.9920   -6.5950 N.am    1  UNL1       -0.3260
     16  H         17.7270  -24.8830   -6.9940 H       1  UNL1        0.1690
     17  O         19.6370  -22.3260   -6.8940 O.2     1  UNL1       -0.2710
     18  C         17.2270  -23.4870   -5.5490 C.2     1  UNL1        0.0370
     19  C         17.7160  -23.6500   -4.2470 C.2     1  UNL1        0.0290
     20  C         16.9900  -23.1790   -3.1540 C.2     1  UNL1        0.0050
     21  C         15.7730  -22.5320   -3.3600 C.2     1  UNL1        0.0370
     22  C         15.2770  -22.3520   -4.6520 C.2     1  UNL1        0.0700
     23  C         16.0040  -22.8370   -5.7440 C.2     1  UNL1        0.0660
     24  O         14.0830  -21.6840   -4.7150 O.2     1  UNL1       -0.3560
     25  C         13.5690  -21.4040   -6.0120 C.3     1  UNL1        0.2100
     26  C         23.1460  -22.8410  -11.4450 C.3     1  UNL1        0.2390
     27  C         24.0040  -21.7260  -10.8430 C.2     1  UNL1        0.2360
     28  O         23.6580  -21.1010   -9.8440 O.2     1  UNL1       -0.2720
     29  N         25.2290  -21.5440  -11.4520 N.am    1  UNL1       -0.3590
     30  H         25.5460  -22.2630  -12.1030 H       1  UNL1        0.1620
     31  C         26.2020  -20.5870  -10.9620 C.3     1  UNL1        0.1270
     32  C         26.5860  -19.5560  -12.0260 C.3     1  UNL1        0.0580
     33  C         26.4420  -20.1100  -13.4210 C.2     1  UNL1       -0.0570
     34  C         25.6140  -19.4740  -14.3560 C.2     1  UNL1        0.0070
     35  C         25.4710  -19.9960  -15.6430 C.2     1  UNL1        0.0010
     36  C         26.1500  -21.1590  -16.0050 C.2     1  UNL1        0.0000
     37  C         26.9710  -21.8010  -15.0810 C.2     1  UNL1        0.0010
     38  C         27.1180  -21.2800  -13.7930 C.2     1  UNL1        0.0070
@<TRIPOS>BOND
     1    36    35    2
     2    36    37    1
     3    35    34    1
     4    37    38    2
     5    34    33    2
     6    38    33    1
     7    33    32    1
     8     6     5    2
     9    30    29    1
    10    32    31    1
    11     8     9    1
    12     8     7    2
    13     5     7   ar
    14     5     4   ar
    15    29    31    1
    16    29    27   am
    17    26     4    1
    18    26    27    1
    19     9    10    2
    20     7    12   ar
    21     4     2   ar
    22    27    28    2
    23    10    11    1
    24    12    11    2
    25    12     1   ar
    26     2     1   ar
    27     2     3    2
    28     1    13    1
    29    13    14    1
    30    14    17    2
    31    14    15   am
    32    16    15    1
    33    15    18    1
    34    25    24    1
    35    23    18    2
    36    23    22    1
    37    18    19    1
    38    24    22    1
    39    22    21    2
    40    19    20    2
    41    21    20    1
