@<TRIPOS>MOLECULE
35779_out_ligand_01.pdbqt
 34 37 0 0 0
SMALL
GASTEIGER

@<TRIPOS>ATOM
      1  C         21.4830  -22.4570  -11.4600 C.ar    1  UNL1        0.1720
      2  N         21.6990  -21.7260  -12.5060 N.ar    1  UNL1       -0.2240
      3  C         23.0190  -21.4740  -12.8920 C.ar    1  UNL1        0.0750
      4  C         23.2550  -20.6870  -14.0230 C.2     1  UNL1        0.0320
      5  C         24.5610  -20.4080  -14.4360 C.2     1  UNL1        0.0020
      6  C         25.6450  -20.9120  -13.7160 C.2     1  UNL1        0.0010
      7  C         25.4190  -21.6910  -12.5830 C.2     1  UNL1        0.0190
      8  C         24.1060  -21.9650  -12.1790 C.ar    1  UNL1        0.0610
      9  C         23.8270  -22.7720  -10.9820 C.ar    1  UNL1        0.2620
     10  O         24.7750  -23.1490  -10.2960 O.2     1  UNL1       -0.2670
     11  N         22.4860  -23.0350  -10.6930 N.ar    1  UNL1       -0.2880
     12  C         22.2500  -23.9110   -9.5370 C.3     1  UNL1        0.1730
     13  C         21.2630  -23.3200   -8.5460 C.2     1  UNL1       -0.0400
     14  C         20.0510  -23.9640   -8.2560 C.2     1  UNL1        0.0100
     15  C         19.1590  -23.4160   -7.3290 C.2     1  UNL1        0.0170
     16  C         19.4560  -22.2090   -6.6870 C.2     1  UNL1        0.0320
     17  C         20.6670  -21.5670   -6.9590 C.2     1  UNL1        0.0170
     18  C         21.5590  -22.1190   -7.8840 C.2     1  UNL1        0.0100
     19  C         18.4770  -21.6680   -5.7070 C.2     1  UNL1        0.2520
     20  O         18.7380  -20.6520   -5.0730 O.2     1  UNL1       -0.2680
     21  N         17.3070  -22.3850   -5.5510 N.am    1  UNL1       -0.3520
     22  H         17.2020  -23.2770   -6.0130 H       1  UNL1        0.1630
     23  C         16.2630  -21.9400   -4.6410 C.3     1  UNL1        0.0840
     24  C         16.4280  -22.5520   -3.2530 C.3     1  UNL1        0.0250
     25  C         15.8600  -23.9610   -3.3920 C.3     1  UNL1        0.0020
     26  C         14.8040  -23.8760   -4.4960 C.3     1  UNL1        0.0020
     27  C         14.8880  -22.4580   -5.0640 C.3     1  UNL1        0.0250
     28  S         19.8150  -22.7160  -10.9810 S.3     1  UNL1       -0.0820
     29  C         18.9480  -21.3610  -11.8250 C.3     1  UNL1        0.1840
     30  C         17.6060  -21.1070  -11.1660 C.2     1  UNL1        0.2250
     31  N         17.1660  -22.0870  -10.3210 N.am    1  UNL1       -0.3690
     32  H         16.3610  -21.8420   -9.7630 H       1  UNL1        0.1590
     33  H         17.8670  -22.6700   -9.8760 H       1  UNL1        0.1590
     34  O         16.9280  -20.1030  -11.3690 O.2     1  UNL1       -0.2730
@<TRIPOS>BOND
     1     5     4    1
     2     5     6    2
     3     4     3    2
     4     6     7    1
     5     3     2   ar
     6     3     8   ar
     7     7     8    2
     8     2     1   ar
     9     8     9   ar
    10    29    30    1
    11    29    28    1
    12     1    28    1
    13     1    11   ar
    14    34    30    2
    15    30    31   am
    16     9    11   ar
    17     9    10    2
    18    11    12    1
    19    31    33    1
    20    31    32    1
    21    12    13    1
    22    13    14    2
    23    13    18    1
    24    14    15    1
    25    18    17    2
    26    15    16    2
    27    17    16    1
    28    16    19    1
    29    22    21    1
    30    19    21   am
    31    19    20    2
    32    21    23    1
    33    27    23    1
    34    27    26    1
    35    23    24    1
    36    26    25    1
    37    25    24    1
