@<TRIPOS>MOLECULE
3582_out_ligand_01.pdbqt
 39 44 0 0 0
SMALL
GASTEIGER

@<TRIPOS>ATOM
      1  C         22.8270  -22.4390  -11.4890 C.2     1  UNL1        0.0510
      2  C         22.4800  -21.6290  -12.5640 C.2     1  UNL1        0.1360
      3  N         23.2350  -21.4860  -13.6860 N.2     1  UNL1       -0.2410
      4  C         24.3890  -22.1910  -13.7740 C.ar    1  UNL1        0.1490
      5  C         24.7960  -23.0230  -12.7400 C.ar    1  UNL1        0.0790
      6  C         24.0120  -23.1620  -11.5880 C.2     1  UNL1        0.0390
      7  C         26.0600  -23.7500  -12.8710 C.ar    1  UNL1        0.2630
      8  O         26.4610  -24.4870  -11.9780 O.2     1  UNL1       -0.2670
      9  N         26.7550  -23.5430  -14.0270 N.ar    1  UNL1       -0.2740
     10  C         26.3820  -22.7390  -15.0680 C.ar    1  UNL1        0.3310
     11  O         27.1210  -22.6530  -16.0480 O.2     1  UNL1       -0.2460
     12  N         25.1870  -22.0670  -14.9330 N.ar    1  UNL1       -0.2790
     13  H         27.6300  -24.0340  -14.1370 H       1  UNL1        0.1730
     14  C         21.9070  -22.5110  -10.3250 C.2     1  UNL1        0.2570
     15  O         22.2470  -21.9340   -9.3000 O.2     1  UNL1       -0.2670
     16  N         20.7540  -23.2540  -10.5130 N.am    1  UNL1       -0.3230
     17  H         20.6500  -23.7580  -11.3830 H       1  UNL1        0.1690
     18  C         19.7080  -23.4540   -9.5860 C.2     1  UNL1        0.0350
     19  C         19.8360  -24.1830   -8.4040 C.2     1  UNL1        0.0300
     20  C         18.7480  -24.3300   -7.5340 C.2     1  UNL1        0.0100
     21  C         17.5130  -23.7400   -7.8290 C.2     1  UNL1       -0.0510
     22  C         17.3840  -23.0130   -9.0190 C.2     1  UNL1        0.0100
     23  C         18.4700  -22.8710   -9.8870 C.2     1  UNL1        0.0300
     24  C         16.3420  -23.8830   -6.8830 C.3     1  UNL1        0.1190
     25  C         16.6850  -23.5830   -5.4680 C.ar    1  UNL1        0.1340
     26  N         16.3560  -24.2840   -4.3910 N.ar    1  UNL1       -0.1350
     27  N         16.8820  -23.6530   -3.2650 N.ar    1  UNL1       -0.1350
     28  C         17.5110  -22.5960   -3.7000 C.ar    1  UNL1        0.1300
     29  N         17.4100  -22.5270   -5.0510 N.ar    1  UNL1       -0.3200
     30  C         18.2870  -21.4740   -3.1530 C.3     1  UNL1        0.0820
     31  C         18.0760  -21.3800   -5.6170 C.3     1  UNL1        0.1320
     32  C         18.9510  -20.9070   -4.4370 C.3     1  UNL1        0.0280
     33  C         24.6990  -21.2520  -16.0420 C.3     1  UNL1        0.1740
     34  C         25.4650  -19.9550  -16.1920 C.2     1  UNL1       -0.0400
     35  C         25.8450  -19.4910  -17.4590 C.2     1  UNL1        0.0090
     36  C         26.5680  -18.3050  -17.5950 C.2     1  UNL1        0.0010
     37  C         26.9200  -17.5690  -16.4650 C.2     1  UNL1        0.0000
     38  C         26.5520  -18.0200  -15.1990 C.2     1  UNL1        0.0010
     39  C         25.8300  -19.2060  -15.0620 C.2     1  UNL1        0.0090
@<TRIPOS>BOND
     1    36    35    1
     2    36    37    2
     3    35    34    2
     4    37    38    1
     5    34    33    1
     6    34    39    1
     7    11    10    2
     8    33    12    1
     9    38    39    2
    10    10    12   ar
    11    10     9   ar
    12    12     4   ar
    13    13     9    1
    14     9     7   ar
    15     4     3    2
    16     4     5   ar
    17     3     2    1
    18     7     5   ar
    19     7     8    2
    20     5     6    2
    21     2     1    2
    22     6     1    1
    23     1    14    1
    24    17    16    1
    25    16    14   am
    26    16    18    1
    27    14    15    2
    28    23    18    2
    29    23    22    1
    30    18    19    1
    31    22    21    2
    32    19    20    2
    33    21    20    1
    34    21    24    1
    35    24    25    1
    36    31    29    1
    37    31    32    1
    38    25    29   ar
    39    25    26   ar
    40    29    28   ar
    41    32    30    1
    42    26    27   ar
    43    28    27   ar
    44    28    30    1
