@<TRIPOS>MOLECULE
35904_out_ligand_01.pdbqt
 35 38 0 0 0
SMALL
GASTEIGER

@<TRIPOS>ATOM
      1  C         19.0740  -22.0580   -7.5880 C.2     1  UNL1        0.1020
      2  C         20.4280  -22.3930   -7.6680 C.2     1  UNL1        0.0510
      3  C         20.8970  -23.2170   -8.7050 C.2     1  UNL1       -0.0320
      4  C         20.0080  -23.7120   -9.6670 C.2     1  UNL1        0.0140
      5  C         18.6560  -23.3850   -9.6000 C.2     1  UNL1        0.0410
      6  C         18.2030  -22.5770   -8.5570 C.2     1  UNL1        0.1120
      7  C         22.3170  -23.5730   -8.7730 C.3     1  UNL1        0.0320
      8  C         23.2050  -23.2250   -9.7260 C.ar    1  UNL1        0.0820
      9  C         22.9020  -22.3840  -10.9330 C.ar    1  UNL1        0.1620
     10  C         24.6230  -23.7380   -9.5530 C.ar    1  UNL1        0.2830
     11  N         21.7290  -21.8780  -11.1720 N.pl3   1  UNL1       -0.2810
     12  N         23.9640  -22.1720  -11.7920 N.ar    1  UNL1       -0.1880
     13  H         21.7930  -21.3530  -12.0530 H       1  UNL1        0.1880
     14  N         23.8480  -21.4230  -12.9530 N.ar    1  UNL1       -0.1440
     15  C         25.2010  -22.7010  -11.5190 C.ar    1  UNL1        0.2020
     16  C         25.0100  -21.3960  -13.5480 C.ar    1  UNL1        0.2150
     17  S         26.3330  -22.2640  -12.7700 S.2     1  UNL1       -0.0170
     18  N         25.5570  -23.4200  -10.5170 N.ar    1  UNL1       -0.1820
     19  O         24.9250  -24.4160   -8.5770 O.2     1  UNL1       -0.2650
     20  S         25.2240  -20.5150  -15.0650 S.O2    1  UNL1        0.1970
     21  C         26.6560  -21.2430  -15.8130 C.3     1  UNL1        0.1690
     22  O         25.5460  -19.1490  -14.6970 O.2     1  UNL1       -0.2210
     23  O         24.0690  -20.8350  -15.8830 O.2     1  UNL1       -0.2210
     24  O         18.5070  -21.2480   -6.6390 O.2     1  UNL1       -0.3530
     25  C         19.2860  -20.9720   -5.4830 C.3     1  UNL1        0.2100
     26  O         16.8480  -22.2350   -8.5390 O.3     1  UNL1       -0.2720
     27  C         16.0540  -23.2920   -8.1540 C.2     1  UNL1        0.3000
     28  O         15.6700  -24.2500   -8.8070 O.2     1  UNL1       -0.2590
     29  C         15.7800  -23.1460   -6.7150 C.2     1  UNL1        0.0610
     30  C         14.8010  -22.2140   -6.3430 C.2     1  UNL1        0.0190
     31  C         14.4900  -22.0320   -4.9950 C.2     1  UNL1        0.0010
     32  C         15.1610  -22.7700   -4.0200 C.2     1  UNL1        0.0020
     33  C         16.1490  -23.6860   -4.3910 C.2     1  UNL1        0.0250
     34  C         16.4670  -23.8750   -5.7390 C.2     1  UNL1        0.0500
     35 CL         17.7410  -24.9780   -6.1180 Cl      1  UNL1       -0.0830
@<TRIPOS>BOND
     1    23    20    2
     2    21    20    1
     3    20    22    2
     4    20    16    1
     5    16    14   ar
     6    16    17   ar
     7    14    12   ar
     8    17    15   ar
     9    13    11    1
    10    12    15   ar
    11    12     9   ar
    12    15    18   ar
    13    11     9    1
    14     9     8   ar
    15    18    10   ar
    16     8    10   ar
    17     8     7    1
    18     4     5    2
    19     4     3    1
    20     5     6    1
    21    10    19    2
    22    28    27    2
    23     7     3    1
    24     3     2    2
    25     6    26    1
    26     6     1    2
    27    26    27    1
    28    27    29    1
    29     2     1    1
    30     1    24    1
    31    29    30    2
    32    29    34    1
    33    24    25    1
    34    30    31    1
    35    35    34    1
    36    34    33    2
    37    31    32    2
    38    33    32    1
