@<TRIPOS>MOLECULE
36021_out_ligand_01.pdbqt
 31 36 0 0 0
SMALL
GASTEIGER

@<TRIPOS>ATOM
      1  C         19.3550  -22.6000   -8.3410 C.ar    1  UNL1        0.0750
      2  N         20.7010  -22.5770   -8.2380 N.ar    1  UNL1       -0.2390
      3  C         21.3660  -22.3010   -9.3730 C.ar    1  UNL1        0.1120
      4  S         23.0640  -22.2680   -9.3550 S.2     1  UNL1       -0.0640
      5  C         23.1480  -21.9120  -11.0300 C.ar    1  UNL1        0.0770
      6  C         24.2780  -21.7200  -11.8380 C.2     1  UNL1        0.1240
      7  N         24.0740  -21.4530  -13.1450 N.2     1  UNL1       -0.2290
      8  C         22.8170  -21.3840  -13.6020 C.2     1  UNL1        0.2350
      9  N         21.6920  -21.5440  -12.9060 N.2     1  UNL1       -0.2400
     10  C         21.8750  -21.8160  -11.5860 C.ar    1  UNL1        0.0920
     11  C         20.8210  -22.0320  -10.6210 C.ar    1  UNL1        0.0370
     12  C         19.4040  -22.0270  -10.7020 C.ar    1  UNL1       -0.0340
     13  C         18.6680  -22.3070   -9.5230 C.ar    1  UNL1       -0.0210
     14  C         17.1610  -22.2990   -9.6330 C.3     1  UNL1        0.0410
     15  C         16.6640  -21.0940  -10.4360 C.3     1  UNL1        0.0050
     16  C         17.4620  -20.8070  -11.7120 C.3     1  UNL1        0.0050
     17  C         18.6090  -21.7820  -11.9660 C.3     1  UNL1        0.0400
     18  N         25.5740  -21.8220  -11.3350 N.pl3   1  UNL1       -0.2700
     19  H         26.1670  -21.0550  -11.6380 H       1  UNL1        0.1290
     20  C         26.2000  -23.1290  -11.4810 C.3     1  UNL1        0.1590
     21  C         26.3390  -23.5400  -12.9080 C.2     1  UNL1        0.0650
     22  C         27.1210  -23.0850  -13.9530 C.2     1  UNL1        0.0360
     23  C         26.7820  -23.8760  -15.0770 C.2     1  UNL1        0.0270
     24  C         25.8090  -24.7530  -14.6520 C.2     1  UNL1        0.1420
     25  O         25.5290  -24.5540  -13.3370 O.2     1  UNL1       -0.3260
     26  C         18.6860  -22.9750   -7.0840 C.2     1  UNL1       -0.0070
     27  C         18.5890  -22.0560   -6.0250 C.2     1  UNL1        0.0140
     28  C         17.9610  -22.4050   -4.8250 C.2     1  UNL1        0.0010
     29  C         17.4290  -23.6830   -4.6630 C.2     1  UNL1        0.0000
     30  C         17.5280  -24.6130   -5.6960 C.2     1  UNL1        0.0010
     31  C         18.1560  -24.2640   -6.8960 C.2     1  UNL1        0.0140
@<TRIPOS>BOND
     1    23    24    2
     2    23    22    1
     3    24    25    1
     4    22    21    2
     5     8     7    2
     6     8     9    1
     7    25    21    1
     8     7     6    1
     9    21    20    1
    10     9    10    2
    11    17    16    1
    12    17    12    1
    13     6    18    1
    14     6     5    2
    15    16    15    1
    16    19    18    1
    17    10     5   ar
    18    10    11   ar
    19    20    18    1
    20     5     4   ar
    21    12    11   ar
    22    12    13   ar
    23    11     3   ar
    24    15    14    1
    25    14    13    1
    26    13     1   ar
    27     3     4   ar
    28     3     2   ar
    29     1     2   ar
    30     1    26    1
    31    26    31    2
    32    26    27    1
    33    31    30    1
    34    27    28    2
    35    30    29    2
    36    28    29    1
