@<TRIPOS>MOLECULE
36476_out_ligand_01.pdbqt
 35 39 0 0 0
SMALL
GASTEIGER

@<TRIPOS>ATOM
      1  C         23.4230  -22.5560  -10.6230 C.ar    1  UNL1        0.1760
      2  N         24.6840  -22.5320  -11.0020 N.ar    1  UNL1       -0.2140
      3  C         24.6490  -22.0270  -12.2660 C.ar    1  UNL1        0.1730
      4  C         25.7400  -21.8140  -13.1980 C.2     1  UNL1        0.2790
      5  O         26.9170  -22.1060  -12.9980 O.2     1  UNL1       -0.2650
      6  N         25.3170  -21.2470  -14.3870 N.am    1  UNL1       -0.3160
      7  C         23.9990  -20.9450  -14.6590 C.2     1  UNL1        0.2120
      8  N         23.0030  -21.1380  -13.8490 N.2     1  UNL1       -0.2230
      9  C         23.3700  -21.6970  -12.6580 C.ar    1  UNL1        0.1720
     10  N         22.5520  -21.9990  -11.5680 N.ar    1  UNL1       -0.2730
     11  H         26.0400  -21.0910  -15.0770 H       1  UNL1        0.1700
     12  S         22.9280  -23.3900   -9.1770 S.3     1  UNL1       -0.0850
     13  C         21.9040  -22.1040   -8.3930 C.3     1  UNL1        0.1440
     14  C         20.6470  -22.6800   -7.8400 C.ar    1  UNL1        0.0760
     15  N         19.8140  -21.9370   -7.0260 N.ar    1  UNL1       -0.2250
     16  C         18.8230  -22.7530   -6.7300 C.ar    1  UNL1        0.1830
     17  O         18.9390  -23.9960   -7.3100 O.2     1  UNL1       -0.2940
     18  C         20.0920  -23.9290   -8.0380 C.ar    1  UNL1        0.0770
     19  C         20.4800  -25.1350   -8.7880 C.3     1  UNL1        0.0790
     20  C         17.6550  -22.5640   -5.8730 C.2     1  UNL1        0.0510
     21  C         17.8200  -22.5140   -4.4760 C.2     1  UNL1        0.0180
     22  C         16.7260  -22.3380   -3.6150 C.2     1  UNL1        0.0010
     23  C         15.4420  -22.2280   -4.1430 C.2     1  UNL1        0.0030
     24  C         15.2540  -22.2810   -5.5190 C.2     1  UNL1        0.0380
     25  C         16.3540  -22.4250   -6.3810 C.2     1  UNL1        0.0830
     26  O         16.0850  -22.5350   -7.7240 O.2     1  UNL1       -0.3500
     27  C         15.7200  -23.8780   -8.0580 C.3     1  UNL1        0.1710
     28  C         15.4720  -23.9360   -9.5540 C.3     1  UNL1        0.0340
     29  C         21.1460  -21.7580  -11.4770 C.2     1  UNL1        0.0430
     30  C         20.2410  -22.8110  -11.2990 C.2     1  UNL1        0.0300
     31  C         18.8650  -22.5590  -11.2170 C.2     1  UNL1        0.0090
     32  C         18.3680  -21.2560  -11.3090 C.2     1  UNL1       -0.0620
     33  C         16.8940  -20.9900  -11.1910 C.3     1  UNL1        0.0480
     34  C         19.2720  -20.2020  -11.4500 C.2     1  UNL1        0.0090
     35  C         20.6500  -20.4510  -11.5340 C.2     1  UNL1        0.0300
@<TRIPOS>BOND
     1    11     6    1
     2     7     6    1
     3     7     8    2
     4     6     4   am
     5     8     9    1
     6     4     5    2
     7     4     3    1
     8     9     3   ar
     9     9    10   ar
    10     3     2   ar
    11    10    29    1
    12    10     1   ar
    13    35    29    2
    14    35    34    1
    15    29    30    1
    16    34    32    2
    17    32    31    1
    18    32    33    1
    19    30    31    2
    20     2     1   ar
    21     1    12    1
    22    28    27    1
    23    12    13    1
    24    19    18    1
    25    13    14    1
    26    27    26    1
    27    18    14   ar
    28    18    17   ar
    29    14    15   ar
    30    26    25    1
    31    17    16   ar
    32    15    16   ar
    33    16    20    1
    34    25    20    2
    35    25    24    1
    36    20    21    1
    37    24    23    2
    38    21    22    2
    39    23    22    1
