@<TRIPOS>MOLECULE
36668_out_ligand_01.pdbqt
 38 42 0 0 0
SMALL
GASTEIGER

@<TRIPOS>ATOM
      1  C         27.1210  -21.4770  -12.0880 C.3     1  UNL1        0.0500
      2  C         25.7570  -21.8890  -11.6120 C.2     1  UNL1       -0.0390
      3  C         25.1470  -21.1180  -10.6060 C.2     1  UNL1        0.0090
      4  C         23.8740  -21.4300  -10.1220 C.2     1  UNL1        0.0140
      5  C         23.1660  -22.5290  -10.6250 C.2     1  UNL1       -0.0030
      6  C         23.7610  -23.2990  -11.6300 C.2     1  UNL1        0.0390
      7  C         25.0470  -22.9940  -12.1160 C.2     1  UNL1        0.0860
      8  C         21.8310  -22.8620  -10.1170 C.ar    1  UNL1        0.1000
      9  N         21.8340  -23.7890   -9.1350 N.ar    1  UNL1       -0.1470
     10  N         20.6530  -24.2000   -8.5810 N.ar    1  UNL1       -0.1310
     11  C         19.4700  -23.6950   -8.9970 C.ar    1  UNL1        0.1610
     12  C         19.4240  -22.7060  -10.0070 C.ar    1  UNL1        0.0240
     13  C         18.2200  -22.1080  -10.4580 C.2     1  UNL1        0.0160
     14  C         20.6400  -22.2790  -10.5890 C.ar    1  UNL1        0.0090
     15  C         18.2100  -21.1290  -11.4550 C.2     1  UNL1        0.0010
     16  C         19.4010  -20.7170  -12.0260 C.2     1  UNL1        0.0010
     17  C         20.6030  -21.2850  -11.6010 C.2     1  UNL1        0.0150
     18  N         18.2490  -24.1710   -8.4370 N.pl3   1  UNL1       -0.3390
     19  H         18.2360  -25.1850   -8.5220 H       1  UNL1        0.1670
     20  C         17.6090  -23.7470   -7.2490 C.2     1  UNL1        0.0350
     21  C         16.4110  -24.3110   -6.7900 C.2     1  UNL1        0.0290
     22  C         15.8430  -23.9130   -5.5750 C.2     1  UNL1        0.0040
     23  C         16.4820  -22.9630   -4.7810 C.2     1  UNL1        0.0190
     24  C         17.6920  -22.4280   -5.2040 C.2     1  UNL1        0.0130
     25 BR         18.5820  -21.1580   -4.1220 Br      1  UNL1       -0.0510
     26  C         18.2600  -22.8210   -6.4200 C.2     1  UNL1        0.0480
     27  S         25.6840  -24.0910  -13.3700 S.O2    1  UNL1        0.2590
     28  O         26.9380  -24.6270  -12.8880 O.2     1  UNL1       -0.2010
     29  O         24.6430  -24.9460  -13.8950 O.2     1  UNL1       -0.2010
     30  N         26.0830  -23.0040  -14.5860 N.3     1  UNL1       -0.3110
     31  H         26.8670  -23.3210  -15.1570 H       1  UNL1        0.1720
     32  C         24.9990  -22.2690  -15.2280 C.3     1  UNL1        0.1720
     33  C         25.4550  -20.9010  -15.6450 C.2     1  UNL1       -0.0220
     34  C         25.7770  -20.6030  -16.9730 C.2     1  UNL1        0.0120
     35  C         26.2210  -19.3250  -17.3040 C.2     1  UNL1        0.0200
     36  C         26.3350  -18.3850  -16.2920 C.2     1  UNL1        0.1160
     37  N         26.0390  -18.6360  -14.9970 N.2     1  UNL1       -0.2730
     38  C         25.6150  -19.8860  -14.7050 C.2     1  UNL1        0.1240
@<TRIPOS>BOND
     1    35    34    1
     2    35    36    2
     3    34    33    2
     4    36    37    1
     5    33    32    1
     6    33    38    1
     7    32    30    1
     8    31    30    1
     9    37    38    2
    10    30    27    1
    11    29    27    2
    12    27    28    2
    13    27     7    1
    14     7     6    1
    15     7     2    2
    16     1     2    1
    17    16    17    2
    18    16    15    1
    19     6     5    2
    20     2     3    1
    21    17    14    1
    22    15    13    2
    23     5     4    1
    24     5     8    1
    25     3     4    2
    26    14     8   ar
    27    14    12   ar
    28    13    12    1
    29     8     9   ar
    30    12    11   ar
    31     9    10   ar
    32    11    10   ar
    33    11    18    1
    34    19    18    1
    35    18    20    1
    36    20    21    2
    37    20    26    1
    38    21    22    1
    39    26    24    2
    40    22    23    2
    41    24    23    1
    42    24    25    1
