@<TRIPOS>MOLECULE
37012_out_ligand_01.pdbqt
 33 35 0 0 0
SMALL
GASTEIGER

@<TRIPOS>ATOM
      1  C         19.7910  -22.5510   -7.4760 C.2     1  UNL1        0.1020
      2  C         21.1320  -22.3000   -7.7950 C.2     1  UNL1        0.0510
      3  C         21.8690  -23.2140   -8.5620 C.2     1  UNL1       -0.0330
      4  C         21.2580  -24.3830   -9.0240 C.2     1  UNL1        0.0140
      5  C         19.9200  -24.6330   -8.7250 C.2     1  UNL1        0.0400
      6  C         19.1800  -23.7110   -7.9790 C.2     1  UNL1        0.1020
      7  C         23.2680  -22.9230   -8.8820 C.2     1  UNL1        0.0140
      8  C         23.7430  -22.3060   -9.9780 C.2     1  UNL1        0.0330
      9  C         23.0200  -21.8310  -11.1550 C.ar    1  UNL1        0.0750
     10  N         21.7330  -21.3700  -10.9570 N.ar    1  UNL1       -0.3060
     11  C         20.9060  -20.9140  -11.9470 C.ar    1  UNL1        0.3270
     12  H         21.3350  -21.3460  -10.0240 H       1  UNL1        0.1710
     13  O         19.7660  -20.5300  -11.7200 O.2     1  UNL1       -0.2470
     14  N         21.4300  -20.9300  -13.2100 N.ar    1  UNL1       -0.2730
     15  C         22.6760  -21.4010  -13.5480 C.ar    1  UNL1        0.2840
     16  H         20.8320  -20.6110  -13.9570 H       1  UNL1        0.1730
     17  O         23.0530  -21.4320  -14.7130 O.2     1  UNL1       -0.2650
     18  C         23.4830  -21.8670  -12.4160 C.ar    1  UNL1        0.1970
     19  N         24.8030  -22.3290  -12.6850 N.pl3   1  UNL1       -0.1070
     20  O         25.7040  -21.4800  -12.6910 O.2     1  UNL1       -0.5310
     21  O         24.9370  -23.5320  -12.9410 O.2     1  UNL1       -0.5310
     22  O         19.0220  -21.7270   -6.7000 O.2     1  UNL1       -0.3490
     23  C         19.6920  -20.9130   -5.7390 C.3     1  UNL1        0.1710
     24  C         18.7480  -20.7050   -4.5690 C.3     1  UNL1        0.0340
     25  O         17.8770  -24.0730   -7.7460 O.2     1  UNL1       -0.3440
     26  C         17.6550  -24.6370   -6.4460 C.3     1  UNL1        0.2170
     27  C         16.6750  -23.7820   -5.6790 C.2     1  UNL1        0.0040
     28  C         15.5850  -23.1570   -6.3050 C.2     1  UNL1        0.0120
     29  C         14.6750  -22.4020   -5.5590 C.2     1  UNL1        0.0010
     30  C         14.8330  -22.2750   -4.1800 C.2     1  UNL1        0.0030
     31  C         15.9010  -22.9040   -3.5450 C.2     1  UNL1        0.0430
     32  C         16.8050  -23.6530   -4.2930 C.2     1  UNL1        0.1240
     33  F         17.8150  -24.2640   -3.6570 F       1  UNL1       -0.2050
@<TRIPOS>BOND
     1    17    15    2
     2    16    14    1
     3    15    14   ar
     4    15    18   ar
     5    14    11   ar
     6    21    19    2
     7    20    19    2
     8    19    18    1
     9    18     9   ar
    10    11    13    2
    11    11    10   ar
    12     9    10   ar
    13     9     8    1
    14    10    12    1
    15     8     7    2
    16     4     5    2
    17     4     3    1
    18     7     3    1
    19     5     6    1
    20     3     2    2
    21     6    25    1
    22     6     1    2
    23     2     1    1
    24    25    26    1
    25     1    22    1
    26    22    23    1
    27    26    27    1
    28    28    27    2
    29    28    29    1
    30    23    24    1
    31    27    32    1
    32    29    30    2
    33    32    33    1
    34    32    31    2
    35    30    31    1
