@<TRIPOS>MOLECULE
37119_out_ligand_01.pdbqt
 40 43 0 0 0
SMALL
GASTEIGER

@<TRIPOS>ATOM
      1  C         19.6640  -21.6130   -6.2040 C.2     1  UNL1        0.2580
      2  O         20.2320  -20.5580   -5.9490 O.2     1  UNL1       -0.2670
      3  N         19.9690  -22.5220   -7.1910 N.am    1  UNL1       -0.3230
      4  H         19.2850  -23.2540   -7.3730 H       1  UNL1        0.1690
      5  C         21.1100  -22.5320   -8.0170 C.2     1  UNL1        0.0350
      6  C         21.4270  -23.7420   -8.6510 C.2     1  UNL1        0.0310
      7  C         22.5910  -23.8630   -9.4140 C.2     1  UNL1        0.0270
      8  C         23.4450  -22.7650   -9.5400 C.2     1  UNL1        0.0750
      9  C         23.1130  -21.5370   -8.9640 C.2     1  UNL1        0.0270
     10  C         21.9510  -21.4280   -8.1950 C.2     1  UNL1        0.0310
     11  S         24.9730  -22.9200  -10.4350 S.O2    1  UNL1        0.2450
     12  O         25.5220  -21.5920  -10.6200 O.2     1  UNL1       -0.2060
     13  O         25.7440  -23.9710   -9.8030 O.2     1  UNL1       -0.2060
     14  N         24.4640  -23.5250  -11.9420 N.pl3   1  UNL1       -0.1800
     15  H         23.6200  -24.0910  -11.8310 H       1  UNL1        0.1460
     16  C         24.4640  -22.6340  -13.0700 C.2     1  UNL1        0.0460
     17  C         23.4170  -21.7140  -13.2180 C.2     1  UNL1        0.0260
     18  C         23.3780  -20.8580  -14.3210 C.2     1  UNL1        0.0040
     19  C         24.3890  -20.9140  -15.2800 C.2     1  UNL1        0.0260
     20  C         25.4460  -21.8210  -15.1360 C.2     1  UNL1        0.0570
     21 CL         26.6670  -21.8170  -16.3600 Cl      1  UNL1       -0.0820
     22  C         25.4900  -22.6850  -14.0300 C.2     1  UNL1        0.0770
     23 CL         26.8020  -23.8040  -13.8130 Cl      1  UNL1       -0.0810
     24  C         18.5340  -22.0090   -5.3430 C.2     1  UNL1        0.0590
     25  C         18.4890  -21.3780   -4.0860 C.2     1  UNL1        0.0190
     26  C         17.4500  -21.6500   -3.1980 C.2     1  UNL1        0.0010
     27  C         16.4470  -22.5450   -3.5650 C.2     1  UNL1        0.0020
     28  C         16.4850  -23.1660   -4.8190 C.2     1  UNL1        0.0310
     29  C         17.5200  -22.9000   -5.7320 C.2     1  UNL1        0.0600
     30  N         17.4900  -23.6630   -6.9660 N.pl3   1  UNL1       -0.2750
     31  C         17.7980  -25.1110   -6.8670 C.3     1  UNL1        0.1700
     32  S         16.1760  -23.2400   -7.9980 S.O2    1  UNL1        0.2650
     33  O         15.4840  -24.4630   -8.3800 O.2     1  UNL1       -0.2000
     34  O         15.4270  -22.1460   -7.3980 O.2     1  UNL1       -0.2000
     35  C         17.0140  -22.5810   -9.4210 C.2     1  UNL1        0.0800
     36  C         18.1970  -23.1670   -9.8760 C.2     1  UNL1        0.0250
     37  C         18.8390  -22.6270  -10.9930 C.2     1  UNL1        0.0020
     38  C         18.2910  -21.5230  -11.6530 C.2     1  UNL1        0.0000
     39  C         17.0980  -20.9570  -11.2070 C.2     1  UNL1        0.0020
     40  C         16.4530  -21.4860  -10.0880 C.2     1  UNL1        0.0250
@<TRIPOS>BOND
     1    21    20    1
     2    19    20    2
     3    19    18    1
     4    20    22    1
     5    18    17    2
     6    22    23    1
     7    22    16    2
     8    17    16    1
     9    16    14    1
    10    14    15    1
    11    14    11    1
    12    38    39    2
    13    38    37    1
    14    39    40    1
    15    37    36    2
    16    12    11    2
    17    11    13    2
    18    11     8    1
    19    40    35    2
    20    36    35    1
    21     8     7    2
    22     8     9    1
    23    35    32    1
    24     7     6    1
    25     9    10    2
    26     6     5    2
    27    33    32    2
    28    10     5    1
    29     5     3    1
    30    32    34    2
    31    32    30    1
    32     4     3    1
    33     3     1   am
    34    30    31    1
    35    30    29    1
    36     1     2    2
    37     1    24    1
    38    29    24    2
    39    29    28    1
    40    24    25    1
    41    28    27    2
    42    25    26    2
    43    27    26    1
