@<TRIPOS>MOLECULE
38406_out_ligand_01.pdbqt
 42 46 0 0 0
SMALL
GASTEIGER

@<TRIPOS>ATOM
      1  C         19.1910  -21.8770  -10.9440 C.ar    1  UNL1        0.1610
      2  N         19.6040  -21.0490  -11.9260 N.ar    1  UNL1       -0.1310
      3  N         20.9120  -21.0100  -12.3180 N.ar    1  UNL1       -0.1470
      4  C         21.8210  -21.8050  -11.7180 C.ar    1  UNL1        0.1000
      5  C         21.4730  -22.6650  -10.6620 C.ar    1  UNL1        0.0090
      6  C         22.4060  -23.4890   -9.9870 C.2     1  UNL1        0.0150
      7  C         22.0190  -24.3530   -8.9650 C.2     1  UNL1        0.0010
      8  C         20.6860  -24.4170   -8.5900 C.2     1  UNL1        0.0010
      9  C         19.7470  -23.6090   -9.2340 C.2     1  UNL1        0.0160
     10  C         20.1150  -22.7100  -10.2670 C.ar    1  UNL1        0.0240
     11  C         23.1590  -21.7230  -12.3140 C.2     1  UNL1       -0.0030
     12  C         24.2810  -21.4100  -11.5390 C.2     1  UNL1        0.0140
     13  C         25.5460  -21.2960  -12.1250 C.2     1  UNL1        0.0090
     14  C         25.7350  -21.4900  -13.5030 C.2     1  UNL1       -0.0390
     15  C         27.1210  -21.3210  -14.0560 C.3     1  UNL1        0.0500
     16  C         24.6120  -21.8150  -14.2830 C.2     1  UNL1        0.0860
     17  C         23.3390  -21.9160  -13.6900 C.2     1  UNL1        0.0390
     18  S         24.6780  -22.1420  -16.0370 S.O2    1  UNL1        0.2590
     19  O         23.4750  -22.7970  -16.4960 O.2     1  UNL1       -0.2010
     20  O         25.9900  -22.6680  -16.3390 O.2     1  UNL1       -0.2010
     21  N         24.6540  -20.5820  -16.6470 N.3     1  UNL1       -0.3110
     22  H         24.1750  -19.9150  -16.0460 H       1  UNL1        0.1720
     23  C         25.7960  -20.1280  -17.4320 C.3     1  UNL1        0.1720
     24  C         26.1210  -18.6970  -17.1230 C.2     1  UNL1       -0.0220
     25  C         26.5380  -18.2870  -15.8550 C.2     1  UNL1        0.0120
     26  C         26.8270  -16.9430  -15.6270 C.2     1  UNL1        0.0200
     27  C         26.6740  -16.0510  -16.6760 C.2     1  UNL1        0.1160
     28  N         26.2530  -16.4060  -17.9110 N.2     1  UNL1       -0.2730
     29  C         25.9890  -17.7180  -18.1030 C.2     1  UNL1        0.1240
     30  N         17.8170  -21.9300  -10.5910 N.pl3   1  UNL1       -0.3390
     31  H         17.2620  -22.1610  -11.4070 H       1  UNL1        0.1670
     32  C         17.2300  -22.3880   -9.3930 C.2     1  UNL1        0.0330
     33  C         17.3970  -21.7390   -8.1660 C.2     1  UNL1        0.0320
     34  C         16.7240  -22.1750   -7.0190 C.2     1  UNL1        0.0320
     35  C         15.8340  -23.2490   -7.0760 C.2     1  UNL1        0.0340
     36  C         15.6340  -23.8830   -8.3000 C.2     1  UNL1        0.0320
     37  C         16.3180  -23.4510   -9.4450 C.2     1  UNL1        0.0320
     38  N         15.1930  -23.6180   -5.8770 N.am    1  UNL1       -0.3280
     39  C         15.7860  -24.0430   -4.7030 C.2     1  UNL1        0.2180
     40  C         14.7630  -24.3120   -3.6260 C.3     1  UNL1        0.1170
     41  O         16.9820  -24.2090   -4.4930 O.2     1  UNL1       -0.2740
     42  H         14.1820  -23.5750   -5.8870 H       1  UNL1        0.1690
@<TRIPOS>BOND
     1    29    28    1
     2    29    24    2
     3    28    27    2
     4    23    24    1
     5    23    21    1
     6    24    25    1
     7    27    26    1
     8    21    22    1
     9    21    18    1
    10    19    18    2
    11    20    18    2
    12    18    16    1
    13    25    26    2
    14    16    17    1
    15    16    14    2
    16    15    14    1
    17    17    11    2
    18    14    13    1
    19     3     2   ar
    20     3     4   ar
    21    11     4    1
    22    11    12    1
    23    13    12    2
    24     2     1   ar
    25     4     5   ar
    26    31    30    1
    27     1    30    1
    28     1    10   ar
    29     5    10   ar
    30     5     6    1
    31    30    32    1
    32    10     9    1
    33     6     7    2
    34    37    32    2
    35    37    36    1
    36    32    33    1
    37     9     8    2
    38     7     8    1
    39    36    35    2
    40    33    34    2
    41    35    34    1
    42    35    38    1
    43    42    38    1
    44    38    39   am
    45    39    41    2
    46    39    40    1
