@<TRIPOS>MOLECULE
38661_out_ligand_01.pdbqt
 32 34 0 0 0
SMALL
GASTEIGER

@<TRIPOS>ATOM
      1  C         20.8980  -22.2600  -10.9350 C.2     1  UNL1        0.0330
      2  C         20.4610  -21.2950  -11.8470 C.2     1  UNL1        0.0170
      3  C         19.1240  -20.8890  -11.8530 C.2     1  UNL1        0.0090
      4  C         18.1940  -21.4330  -10.9510 C.2     1  UNL1       -0.0390
      5  C         16.7680  -20.9620  -11.0280 C.3     1  UNL1        0.0500
      6  C         18.6390  -22.4220  -10.0500 C.2     1  UNL1        0.0810
      7  C         19.9800  -22.8360  -10.0490 C.2     1  UNL1        0.0420
      8  C         22.3140  -22.7210  -10.8930 C.2     1  UNL1        0.2520
      9  N         23.0990  -22.3800  -11.9750 N.am    1  UNL1       -0.3480
     10  H         22.7800  -21.6190  -12.5580 H       1  UNL1        0.1630
     11  O         22.7290  -23.3320   -9.9170 O.2     1  UNL1       -0.2680
     12  C         24.5300  -22.6590  -11.9950 C.3     1  UNL1        0.1170
     13  C         24.9260  -23.7780  -12.9820 C.3     1  UNL1        0.0250
     14  C         26.4100  -24.1230  -13.0250 C.3     1  UNL1        0.0070
     15  C         25.3310  -21.3820  -12.2110 C.2     1  UNL1       -0.0350
     16  C         25.3770  -20.7290  -13.4530 C.2     1  UNL1        0.0090
     17  C         26.1230  -19.5600  -13.6190 C.2     1  UNL1        0.0010
     18  C         26.8360  -19.0280  -12.5460 C.2     1  UNL1        0.0000
     19  C         26.8060  -19.6660  -11.3090 C.2     1  UNL1        0.0010
     20  C         26.0620  -20.8360  -11.1420 C.2     1  UNL1        0.0090
     21  S         17.5260  -23.2080   -8.8870 S.O2    1  UNL1        0.2460
     22  O         18.3080  -24.1130   -8.0700 O.2     1  UNL1       -0.2060
     23  O         16.3660  -23.6590   -9.6220 O.2     1  UNL1       -0.2060
     24  N         17.1320  -21.8750   -7.8950 N.pl3   1  UNL1       -0.1810
     25  H         17.8830  -21.1920   -7.9800 H       1  UNL1        0.1460
     26  C         16.8700  -22.2110   -6.5200 C.2     1  UNL1        0.0280
     27  C         15.6380  -22.7950   -6.2060 C.2     1  UNL1        0.0250
     28  C         15.3450  -23.1620   -4.8930 C.2     1  UNL1        0.0020
     29  C         16.2830  -22.9500   -3.8890 C.2     1  UNL1        0.0010
     30  C         17.5170  -22.3730   -4.1980 C.2     1  UNL1        0.0080
     31  C         17.8280  -21.9970   -5.5150 C.2     1  UNL1       -0.0400
     32  C         19.1750  -21.3920   -5.7970 C.3     1  UNL1        0.0500
@<TRIPOS>BOND
     1    17    16    1
     2    17    18    2
     3    16    15    2
     4    14    13    1
     5    13    12    1
     6    10     9    1
     7    18    19    1
     8    15    12    1
     9    15    20    1
    10    12     9    1
    11     9     8   am
    12     3     2    1
    13     3     4    2
    14     2     1    2
    15    19    20    2
    16     5     4    1
    17     4     6    1
    18     1     8    1
    19     1     7    1
    20     8    11    2
    21     6     7    2
    22     6    21    1
    23    23    21    2
    24    21    22    2
    25    21    24    1
    26    25    24    1
    27    24    26    1
    28    26    27    2
    29    26    31    1
    30    27    28    1
    31    32    31    1
    32    31    30    2
    33    28    29    2
    34    30    29    1
