@<TRIPOS>MOLECULE
38729_out_ligand_01.pdbqt
 39 43 0 0 0
SMALL
GASTEIGER

@<TRIPOS>ATOM
      1  C         21.0840  -22.9550  -10.4620 C.2     1  UNL1        0.0340
      2  C         20.7110  -23.8900   -9.4870 C.2     1  UNL1        0.0310
      3  C         19.4070  -23.9180   -8.9850 C.2     1  UNL1        0.0270
      4  C         18.4680  -23.0030   -9.4610 C.2     1  UNL1        0.0800
      5  C         18.8180  -22.0810  -10.4480 C.2     1  UNL1        0.0270
      6  C         20.1270  -22.0560  -10.9420 C.2     1  UNL1        0.0310
      7  N         22.4140  -22.9930  -10.9130 N.am    1  UNL1       -0.3250
      8  C         23.4510  -22.1360  -10.5830 C.2     1  UNL1        0.2510
      9  O         23.4010  -21.2000   -9.7910 O.2     1  UNL1       -0.2700
     10  H         22.6850  -23.7900  -11.4820 H       1  UNL1        0.1690
     11  C         24.7470  -22.4410  -11.3620 C.3     1  UNL1        0.2200
     12  C         25.7630  -23.1330  -10.4390 C.3     1  UNL1        0.0380
     13  C         26.9110  -23.7850  -11.1930 C.3     1  UNL1        0.0080
     14  O         25.3740  -21.2310  -11.8100 O.2     1  UNL1       -0.3370
     15  C         25.3800  -20.9680  -13.1530 C.2     1  UNL1        0.0700
     16  C         25.7860  -19.7810  -13.7550 C.2     1  UNL1        0.0370
     17  C         25.7540  -19.6560  -15.1480 C.2     1  UNL1        0.0150
     18  C         25.3210  -20.7150  -15.9610 C.2     1  UNL1       -0.0260
     19  C         25.2850  -20.6010  -17.3600 C.2     1  UNL1        0.0120
     20  C         24.9160  -21.9220  -15.3550 C.2     1  UNL1       -0.0230
     21  C         24.8520  -21.6670  -18.1510 C.2     1  UNL1        0.0010
     22  C         24.4510  -22.8570  -17.5540 C.2     1  UNL1        0.0010
     23  C         24.4830  -22.9840  -16.1650 C.2     1  UNL1        0.0120
     24  C         24.9570  -22.0320  -13.9550 C.2     1  UNL1        0.0490
     25  S         16.8010  -23.0530   -8.8490 S.O2    1  UNL1        0.2630
     26  O         16.0100  -23.7890   -9.8160 O.2     1  UNL1       -0.2000
     27  O         16.4160  -21.7210   -8.4380 O.2     1  UNL1       -0.2000
     28  N         16.9320  -24.0660   -7.5030 N.pl3   1  UNL1       -0.2800
     29  H         16.5630  -24.9940   -7.7010 H       1  UNL1        0.1790
     30  C         16.6500  -23.5150   -6.2150 C.2     1  UNL1        0.0530
     31  C         15.5060  -23.9740   -5.5550 C.2     1  UNL1        0.0310
     32  C         15.1850  -23.4880   -4.2930 C.2     1  UNL1        0.0030
     33  C         16.0060  -22.5360   -3.6890 C.2     1  UNL1        0.0120
     34  C         17.1610  -22.0630   -4.3320 C.2     1  UNL1       -0.0240
     35  C         17.9780  -21.1070   -3.7060 C.2     1  UNL1        0.0120
     36  C         17.5070  -22.5570   -5.6130 C.2     1  UNL1        0.0010
     37  C         19.1350  -20.6350   -4.3260 C.2     1  UNL1        0.0010
     38  C         19.4920  -21.1150   -5.5800 C.2     1  UNL1        0.0010
     39  C         18.6900  -22.0650   -6.2160 C.2     1  UNL1        0.0140
@<TRIPOS>BOND
     1    21    22    2
     2    21    19    1
     3    22    23    1
     4    19    18    2
     5    23    20    2
     6    18    20    1
     7    18    17    1
     8    20    24    1
     9    17    16    2
    10    24    15    2
    11    16    15    1
    12    15    14    1
    13    14    11    1
    14    10     7    1
    15    11     8    1
    16    11    12    1
    17    13    12    1
    18     6     1    2
    19     6     5    1
    20     7     8   am
    21     7     1    1
    22     8     9    2
    23     1     2    1
    24     5     4    2
    25    26    25    2
    26     2     3    2
    27     4     3    1
    28     4    25    1
    29    25    27    2
    30    25    28    1
    31    29    28    1
    32    28    30    1
    33    39    36    1
    34    39    38    2
    35    30    36    2
    36    30    31    1
    37    36    34    1
    38    38    37    1
    39    31    32    2
    40    34    35    1
    41    34    33    2
    42    37    35    2
    43    32    33    1
