@<TRIPOS>MOLECULE
38795_out_ligand_01.pdbqt
 39 41 0 0 0
SMALL
GASTEIGER

@<TRIPOS>ATOM
      1  C         22.8340  -22.6500  -11.6100 C.2     1  UNL1        0.0250
      2  C         22.4300  -21.7930  -12.6320 C.2     1  UNL1        0.0240
      3  C         21.1830  -21.1800  -12.5600 C.2     1  UNL1        0.0040
      4  C         20.3560  -21.4130  -11.4570 C.2     1  UNL1        0.0290
      5  C         20.7670  -22.2550  -10.4160 C.2     1  UNL1        0.0360
      6  C         22.0140  -22.8730  -10.5000 C.2     1  UNL1        0.0530
      7  N         24.1370  -23.2410  -11.6560 N.pl3   1  UNL1       -0.1810
      8  H         24.3770  -23.5910  -12.5840 H       1  UNL1        0.1460
      9  S         25.4140  -22.2320  -11.1570 S.O2    1  UNL1        0.2450
     10  O         26.5220  -23.0050  -10.6420 O.2     1  UNL1       -0.2060
     11  O         24.8050  -21.1730  -10.3820 O.2     1  UNL1       -0.2060
     12  C         25.9140  -21.5520  -12.7190 C.2     1  UNL1        0.0760
     13  C         25.7120  -22.2790  -13.8930 C.2     1  UNL1        0.0440
     14  C         26.0830  -21.7370  -15.1380 C.2     1  UNL1        0.0660
     15  C         26.6600  -20.4470  -15.1920 C.2     1  UNL1        0.0840
     16  C         26.8410  -19.7280  -13.9990 C.2     1  UNL1        0.0390
     17  C         26.4710  -20.2750  -12.7670 C.2     1  UNL1        0.0270
     18  C         25.8340  -22.6140  -16.3310 C.2     1  UNL1        0.2540
     19  N         24.6040  -22.5270  -16.9410 N.am    1  UNL1       -0.3570
     20  H         23.9760  -21.7910  -16.6340 H       1  UNL1        0.1620
     21  O         26.7100  -23.3830  -16.7180 O.2     1  UNL1       -0.2680
     22  C         24.2780  -23.2700  -18.1380 C.3     1  UNL1        0.1180
     23  C         22.8250  -23.7060  -18.1470 C.3     1  UNL1        0.0260
     24  O         27.0130  -19.9560  -16.4240 O.2     1  UNL1       -0.3550
     25  C         26.0340  -19.2200  -17.1520 C.3     1  UNL1        0.2100
     26  N         19.8720  -22.4200   -9.3370 N.am    1  UNL1       -0.3230
     27  C         20.1620  -22.3670   -7.9850 C.2     1  UNL1        0.2560
     28  O         21.2510  -22.1300   -7.4750 O.2     1  UNL1       -0.2670
     29  H         18.8990  -22.5220   -9.5910 H       1  UNL1        0.1690
     30  C         18.9910  -22.5950   -7.0890 C.2     1  UNL1        0.0320
     31  C         18.0280  -23.5300   -7.4710 C.2     1  UNL1        0.0170
     32  C         16.9240  -23.7790   -6.6480 C.2     1  UNL1        0.0090
     33  C         16.7470  -23.1000   -5.4260 C.2     1  UNL1       -0.0510
     34  C         17.7140  -22.1430   -5.0740 C.2     1  UNL1        0.0090
     35  C         18.8210  -21.8880   -5.8950 C.2     1  UNL1        0.0170
     36  C         15.5210  -23.4040   -4.5450 C.3     1  UNL1       -0.0240
     37  C         14.7440  -22.0980   -4.2760 C.3     1  UNL1        0.0190
     38  C         14.5920  -24.4070   -5.2630 C.3     1  UNL1        0.0190
     39  C         15.8750  -24.0190   -3.1730 C.3     1  UNL1        0.0190
@<TRIPOS>BOND
     1    23    22    1
     2    22    19    1
     3    25    24    1
     4    19    20    1
     5    19    18   am
     6    21    18    2
     7    24    15    1
     8    18    14    1
     9    15    14    2
    10    15    16    1
    11    14    13    1
    12    16    17    2
    13    13    12    2
    14    17    12    1
    15    12     9    1
    16     2     3    1
    17     2     1    2
    18     8     7    1
    19     3     4    2
    20     7     1    1
    21     7     9    1
    22     1     6    1
    23     4     5    1
    24     9    10    2
    25     9    11    2
    26     6     5    2
    27     5    26    1
    28    29    26    1
    29    26    27   am
    30    27    28    2
    31    27    30    1
    32    31    30    2
    33    31    32    1
    34    30    35    1
    35    32    33    2
    36    35    34    2
    37    33    34    1
    38    33    36    1
    39    38    36    1
    40    36    37    1
    41    36    39    1
