@<TRIPOS>MOLECULE
38867_out_ligand_01.pdbqt
 38 40 0 0 0
SMALL
GASTEIGER

@<TRIPOS>ATOM
      1  C         16.1050  -23.3870   -8.7600 C.2     1  UNL1        0.0690
      2  C         15.7410  -22.2110   -8.0950 C.2     1  UNL1        0.0380
      3  C         15.4690  -22.2210   -6.7270 C.2     1  UNL1        0.0280
      4  C         15.5640  -23.4210   -6.0210 C.2     1  UNL1        0.0800
      5  C         15.9490  -24.5980   -6.6680 C.2     1  UNL1        0.0280
      6  C         16.2180  -24.5790   -8.0410 C.2     1  UNL1        0.0380
      7  O         16.3580  -23.2270  -10.0960 O.2     1  UNL1       -0.3420
      8  C         16.3000  -21.9080  -10.6290 C.3     1  UNL1        0.2780
      9  C         17.6440  -21.3450  -11.1040 C.2     1  UNL1        0.2460
     10  O         17.7450  -20.1670  -11.4350 O.2     1  UNL1       -0.2710
     11  N         18.6590  -22.2850  -11.0780 N.am    1  UNL1       -0.3250
     12  H         18.3660  -23.2230  -10.8140 H       1  UNL1        0.1690
     13  C         20.0100  -22.1120  -11.4260 C.2     1  UNL1        0.0350
     14  C         20.4380  -21.4730  -12.5920 C.2     1  UNL1        0.0320
     15  C         21.8020  -21.3390  -12.8640 C.2     1  UNL1        0.0450
     16  C         22.7400  -21.8430  -11.9710 C.2     1  UNL1        0.1310
     17  F         24.0420  -21.7010  -12.2500 F       1  UNL1       -0.2050
     18  C         22.3440  -22.4850  -10.8030 C.2     1  UNL1        0.0880
     19  C         20.9700  -22.6150  -10.5360 C.2     1  UNL1        0.0480
     20  C         23.3890  -23.0100   -9.8670 C.3     1  UNL1        0.4200
     21  F         22.9700  -24.1020   -9.1640 F       1  UNL1       -0.1660
     22  F         24.5260  -23.4040  -10.5030 F       1  UNL1       -0.1660
     23  F         23.7680  -22.0990   -8.9310 F       1  UNL1       -0.1660
     24  S         15.2390  -23.4520   -4.2760 S.O2    1  UNL1        0.2630
     25  O         14.6100  -24.7100   -3.9370 O.2     1  UNL1       -0.2000
     26  O         14.6190  -22.1910   -3.9340 O.2     1  UNL1       -0.2000
     27  N         16.7940  -23.4070   -3.6100 N.pl3   1  UNL1       -0.2810
     28  H         17.1120  -24.3500   -3.3880 H       1  UNL1        0.1790
     29  C         17.7380  -22.5160   -4.1880 C.2     1  UNL1        0.0430
     30  C         17.9830  -21.2850   -3.5820 C.2     1  UNL1        0.0300
     31  C         18.8790  -20.3910   -4.1660 C.2     1  UNL1        0.0030
     32  C         19.5240  -20.7260   -5.3570 C.2     1  UNL1        0.0160
     33  C         19.2800  -21.9630   -5.9760 C.2     1  UNL1        0.0500
     34  C         18.3710  -22.8540   -5.3840 C.2     1  UNL1        0.0460
     35  C         19.9640  -22.3090   -7.2760 C.3     1  UNL1        0.4170
     36  F         20.0140  -23.6500   -7.5170 F       1  UNL1       -0.1660
     37  F         19.3450  -21.7560   -8.3550 F       1  UNL1       -0.1660
     38  F         21.2550  -21.8770   -7.3210 F       1  UNL1       -0.1660
@<TRIPOS>BOND
     1    15    14    1
     2    15    16    2
     3    14    13    2
     4    17    16    1
     5    16    18    1
     6    10     9    2
     7    13    11    1
     8    13    19    1
     9     9    11   am
    10     9     8    1
    11    11    12    1
    12    18    19    2
    13    18    20    1
    14     8     7    1
    15    22    20    1
    16     7     1    1
    17    20    21    1
    18    20    23    1
    19     1     2    2
    20     1     6    1
    21    37    35    1
    22     2     3    1
    23     6     5    2
    24    36    35    1
    25    38    35    1
    26    35    33    1
    27     3     4    2
    28     5     4    1
    29     4    24    1
    30    33    34    1
    31    33    32    2
    32    34    29    2
    33    32    31    1
    34    24    25    2
    35    24    26    2
    36    24    27    1
    37    29    27    1
    38    29    30    1
    39    31    30    2
    40    27    28    1
