@<TRIPOS>MOLECULE
39134_out_ligand_01.pdbqt
 33 37 0 0 0
SMALL
GASTEIGER

@<TRIPOS>ATOM
      1  C         21.4430  -22.3060  -10.9120 C.ar    1  UNL1        0.1710
      2  N         21.3530  -21.6430  -12.1300 N.ar    1  UNL1       -0.1410
      3  N         22.3590  -21.4690  -12.8680 N.ar    1  UNL1       -0.1280
      4  C         23.5760  -21.9480  -12.4890 C.ar    1  UNL1        0.1860
      5  C         24.8370  -21.8810  -13.0470 C.ar    1  UNL1        0.0510
      6  C         25.6660  -22.6080  -12.1610 C.ar    1  UNL1        0.0660
      7  C         27.1210  -22.8720  -12.2730 C.3     1  UNL1        0.0730
      8  N         24.9850  -23.0730  -11.1080 N.ar    1  UNL1       -0.1700
      9  N         23.7090  -22.6530  -11.3010 N.ar    1  UNL1       -0.2150
     10  C         22.6000  -22.8500  -10.4740 C.ar    1  UNL1        0.0700
     11  C         22.8250  -23.6590   -9.2310 C.3     1  UNL1        0.0730
     12  C         20.1620  -22.4110  -10.1210 C.2     1  UNL1        0.2780
     13  N         20.3910  -22.8310   -8.8210 N.am    1  UNL1       -0.3220
     14  H         21.3620  -22.9700   -8.5600 H       1  UNL1        0.1690
     15  O         19.0830  -22.1210  -10.6160 O.2     1  UNL1       -0.2650
     16  C         19.4410  -23.0070   -7.7950 C.2     1  UNL1        0.0350
     17  C         18.5170  -24.0500   -7.7650 C.2     1  UNL1        0.0300
     18  C         17.5970  -24.1490   -6.7170 C.2     1  UNL1        0.0090
     19  C         17.5770  -23.2060   -5.6800 C.2     1  UNL1       -0.0560
     20  C         16.5500  -23.3360   -4.5900 C.3     1  UNL1        0.0490
     21  C         18.5030  -22.1470   -5.7050 C.2     1  UNL1       -0.0540
     22  C         19.4330  -22.0680   -6.7560 C.2     1  UNL1        0.0370
     23  C         18.4970  -21.0750   -4.6490 C.3     1  UNL1        0.0490
     24  C         25.1570  -21.1760  -14.2760 C.2     1  UNL1       -0.0090
     25  C         25.6610  -19.8720  -14.1730 C.2     1  UNL1        0.0130
     26  C         25.9380  -19.1310  -15.3170 C.2     1  UNL1        0.0020
     27  C         25.7080  -19.6830  -16.5730 C.2     1  UNL1        0.0120
     28  C         25.2130  -20.9880  -16.7100 C.2     1  UNL1       -0.0250
     29  C         24.9930  -21.5270  -17.9900 C.2     1  UNL1        0.0120
     30  C         24.9390  -21.7640  -15.5550 C.2     1  UNL1       -0.0150
     31  C         24.5190  -22.8290  -18.1530 C.2     1  UNL1        0.0010
     32  C         24.2640  -23.6130  -17.0360 C.2     1  UNL1        0.0010
     33  C         24.4740  -23.0900  -15.7560 C.2     1  UNL1        0.0130
@<TRIPOS>BOND
     1    31    29    2
     2    31    32    1
     3    29    28    1
     4    32    33    2
     5    28    27    2
     6    28    30    1
     7    27    26    1
     8    33    30    1
     9    30    24    2
    10    26    25    2
    11    24    25    1
    12    24     5    1
    13     5     4   ar
    14     5     6   ar
    15     3     4   ar
    16     3     2   ar
    17     4     9   ar
    18     7     6    1
    19     6     8   ar
    20     2     1   ar
    21     9     8   ar
    22     9    10   ar
    23     1    10   ar
    24     1    12    1
    25    15    12    2
    26    10    11    1
    27    12    13   am
    28    13    14    1
    29    13    16    1
    30    16    17    2
    31    16    22    1
    32    17    18    1
    33    22    21    2
    34    18    19    2
    35    21    19    1
    36    21    23    1
    37    19    20    1
