@<TRIPOS>MOLECULE
39153_out_ligand_01.pdbqt
 34 38 0 0 0
SMALL
GASTEIGER

@<TRIPOS>ATOM
      1  C         21.4370  -22.3730  -10.8440 C.ar    1  UNL1        0.1710
      2  N         21.3510  -21.6740  -12.0410 N.ar    1  UNL1       -0.1410
      3  N         22.3610  -21.4830  -12.7690 N.ar    1  UNL1       -0.1280
      4  C         23.5760  -21.9790  -12.4030 C.ar    1  UNL1        0.1860
      5  C         24.8370  -21.9050  -12.9590 C.ar    1  UNL1        0.0510
      6  C         25.6650  -22.6580  -12.0910 C.ar    1  UNL1        0.0660
      7  C         27.1210  -22.9250  -12.2070 C.3     1  UNL1        0.0730
      8  N         24.9790  -23.1560  -11.0540 N.ar    1  UNL1       -0.1700
      9  N         23.7020  -22.7210  -11.2370 N.ar    1  UNL1       -0.2150
     10  C         22.5900  -22.9370  -10.4200 C.ar    1  UNL1        0.0700
     11  C         22.8070  -23.7850   -9.1980 C.3     1  UNL1        0.0730
     12  C         20.1560  -22.4960  -10.0550 C.2     1  UNL1        0.2780
     13  N         20.3940  -22.7550   -8.7170 N.am    1  UNL1       -0.3220
     14  H         21.3680  -22.8320   -8.4440 H       1  UNL1        0.1690
     15  O         19.0640  -22.3520  -10.5920 O.2     1  UNL1       -0.2650
     16  C         19.4470  -22.8540   -7.6790 C.2     1  UNL1        0.0350
     17  C         18.6580  -24.0090   -7.6370 C.2     1  UNL1        0.0320
     18  C         17.7280  -24.1940   -6.6100 C.2     1  UNL1        0.0390
     19  C         17.5590  -23.2320   -5.6140 C.2     1  UNL1        0.0680
     20  C         18.3220  -22.0670   -5.6720 C.2     1  UNL1        0.0390
     21  C         19.2660  -21.8840   -6.6920 C.2     1  UNL1        0.0320
     22  O         16.6250  -23.5490   -4.6680 O.2     1  UNL1       -0.3520
     23  C         15.7320  -22.5330   -4.2150 C.3     1  UNL1        0.1710
     24  C         14.6170  -22.3190   -5.2240 C.3     1  UNL1        0.0340
     25  C         25.1540  -21.1810  -14.1780 C.2     1  UNL1       -0.0090
     26  C         25.6470  -19.8720  -14.0510 C.2     1  UNL1        0.0130
     27  C         25.9350  -19.1140  -15.1810 C.2     1  UNL1        0.0020
     28  C         25.7260  -19.6560  -16.4480 C.2     1  UNL1        0.0120
     29  C         25.2400  -20.9620  -16.6060 C.2     1  UNL1       -0.0250
     30  C         25.0450  -21.4880  -17.8950 C.2     1  UNL1        0.0120
     31  C         24.9500  -21.7540  -15.4650 C.2     1  UNL1       -0.0150
     32  C         24.5710  -22.7860  -18.0780 C.2     1  UNL1        0.0010
     33  C         24.2920  -23.5820  -16.9740 C.2     1  UNL1        0.0010
     34  C         24.4830  -23.0750  -15.6870 C.2     1  UNL1        0.0130
@<TRIPOS>BOND
     1    32    30    2
     2    32    33    1
     3    30    29    1
     4    33    34    2
     5    29    28    2
     6    29    31    1
     7    28    27    1
     8    34    31    1
     9    31    25    2
    10    27    26    2
    11    25    26    1
    12    25     5    1
    13     5     4   ar
    14     5     6   ar
    15     3     4   ar
    16     3     2   ar
    17     4     9   ar
    18     7     6    1
    19     6     8   ar
    20     2     1   ar
    21     9     8   ar
    22     9    10   ar
    23     1    10   ar
    24     1    12    1
    25    15    12    2
    26    10    11    1
    27    12    13   am
    28    13    14    1
    29    13    16    1
    30    16    17    2
    31    16    21    1
    32    17    18    1
    33    21    20    2
    34    18    19    2
    35    20    19    1
    36    19    22    1
    37    24    23    1
    38    22    23    1
