@<TRIPOS>MOLECULE
39613_out_ligand_01.pdbqt
 35 38 0 0 0
SMALL
GASTEIGER

@<TRIPOS>ATOM
      1  C         22.1050  -22.7320  -10.9360 C.2     1  UNL1        0.0320
      2  C         20.9470  -21.9730  -11.1680 C.2     1  UNL1        0.0180
      3  C         19.8610  -22.0600  -10.2940 C.2     1  UNL1        0.0150
      4  C         19.9440  -22.8950   -9.1770 C.2     1  UNL1       -0.0050
      5  C         21.0890  -23.6630   -8.9390 C.2     1  UNL1        0.0150
      6  C         22.1760  -23.5710   -9.8120 C.2     1  UNL1        0.0180
      7  C         23.2460  -22.5880  -11.8860 C.2     1  UNL1        0.2560
      8  N         23.0820  -21.6220  -12.8640 N.am    1  UNL1       -0.3230
      9  H         22.3000  -20.9900  -12.7550 H       1  UNL1        0.1690
     10  O         24.2360  -23.2880  -11.7080 O.2     1  UNL1       -0.2670
     11  C         23.9540  -21.3420  -13.9380 C.2     1  UNL1        0.0360
     12  C         24.7560  -20.2040  -13.8270 C.2     1  UNL1        0.0320
     13  C         25.6380  -19.8440  -14.8520 C.2     1  UNL1        0.0400
     14  C         25.7300  -20.6100  -16.0200 C.2     1  UNL1        0.0840
     15  C         24.9260  -21.7610  -16.1410 C.2     1  UNL1        0.0670
     16  C         24.0410  -22.1100  -15.0990 C.2     1  UNL1        0.0490
     17  O         26.5700  -20.2960  -17.0590 O.2     1  UNL1       -0.3550
     18  C         26.2180  -19.1940  -17.8900 C.3     1  UNL1        0.2100
     19  C         24.9210  -22.6640  -17.3370 C.2     1  UNL1        0.2520
     20  N         23.7810  -22.7480  -18.0810 N.am    1  UNL1       -0.3660
     21  H         22.9210  -22.3080  -17.7720 H       1  UNL1        0.1590
     22  H         23.7600  -23.4070  -18.8470 H       1  UNL1        0.1590
     23  O         25.9070  -23.3160  -17.6630 O.2     1  UNL1       -0.2680
     24  C         18.8050  -23.0030   -8.2410 C.ar    1  UNL1        0.0980
     25  N         17.8410  -23.8010   -8.5900 N.ar    1  UNL1       -0.1690
     26  N         16.7460  -23.9270   -7.7730 N.ar    1  UNL1       -0.2380
     27  C         15.7040  -24.8120   -8.2630 C.3     1  UNL1        0.1830
     28  C         16.5760  -23.2370   -6.5760 C.ar    1  UNL1        0.2740
     29  O         15.5800  -23.3230   -5.8600 O.2     1  UNL1       -0.2660
     30  C         17.6860  -22.3600   -6.1620 C.ar    1  UNL1        0.0460
     31  C         17.6200  -21.6720   -4.9400 C.2     1  UNL1        0.0180
     32  C         18.8060  -22.2370   -6.9760 C.ar    1  UNL1        0.0110
     33  C         18.6840  -20.8670   -4.5340 C.2     1  UNL1        0.0010
     34  C         19.8140  -20.7540   -5.3400 C.2     1  UNL1        0.0010
     35  C         19.8810  -21.4380   -6.5580 C.2     1  UNL1        0.0150
@<TRIPOS>BOND
     1    22    20    1
     2    20    21    1
     3    20    19   am
     4    18    17    1
     5    23    19    2
     6    19    15    1
     7    17    14    1
     8    15    14    2
     9    15    16    1
    10    14    13    1
    11    16    11    2
    12    13    12    2
    13    11    12    1
    14    11     8    1
    15     8     9    1
    16     8     7   am
    17     7    10    2
    18     7     1    1
    19     2     1    2
    20     2     3    1
    21     1     6    1
    22     3     4    2
    23     6     5    2
    24     4     5    1
    25     4    24    1
    26    25    24   ar
    27    25    26   ar
    28    27    26    1
    29    24    32   ar
    30    26    28   ar
    31    32    35    1
    32    32    30   ar
    33    28    30   ar
    34    28    29    2
    35    35    34    2
    36    30    31    1
    37    34    33    1
    38    31    33    2
