@<TRIPOS>MOLECULE
40112_out_ligand_01.pdbqt
 34 37 0 0 0
SMALL
GASTEIGER

@<TRIPOS>ATOM
      1  C         19.6840  -22.3190  -10.7460 C.2     1  UNL1        0.0340
      2  C         19.4440  -21.3350  -11.7120 C.2     1  UNL1        0.0180
      3  C         20.4770  -20.9040  -12.5520 C.2     1  UNL1        0.0170
      4  C         21.7570  -21.4650  -12.4520 C.ar    1  UNL1        0.0260
      5  C         22.8830  -21.0700  -13.3230 C.ar    1  UNL1        0.1050
      6  C         24.1030  -21.6160  -13.1630 C.ar    1  UNL1        0.1650
      7  C         24.3480  -22.5810  -12.0660 C.ar    1  UNL1        0.2700
      8  O         25.4570  -23.0090  -11.7690 O.2     1  UNL1       -0.2660
      9  N         23.2610  -22.9850  -11.3320 N.ar    1  UNL1       -0.3210
     10  C         21.9800  -22.4490  -11.4780 C.ar    1  UNL1        0.0490
     11  C         20.9570  -22.8870  -10.6330 C.2     1  UNL1        0.0470
     12  H         23.4620  -23.6620  -10.6070 H       1  UNL1        0.1690
     13  C         18.5540  -22.7540   -9.8810 C.2     1  UNL1        0.2560
     14  O         17.5990  -23.3030  -10.4170 O.2     1  UNL1       -0.2670
     15  N         18.6940  -22.4480   -8.5400 N.am    1  UNL1       -0.3230
     16  H         19.4770  -21.8630   -8.2780 H       1  UNL1        0.1690
     17  C         17.8030  -22.7760   -7.4940 C.2     1  UNL1        0.0370
     18  C         18.2400  -23.7250   -6.5560 C.2     1  UNL1        0.0290
     19  C         17.4190  -24.1120   -5.4920 C.2     1  UNL1        0.0050
     20  C         16.1510  -23.5560   -5.3590 C.2     1  UNL1        0.0420
     21  C         15.7180  -22.6190   -6.2910 C.2     1  UNL1        0.1180
     22  F         14.4950  -22.0880   -6.1630 F       1  UNL1       -0.2060
     23  C         16.5280  -22.2260   -7.3540 C.2     1  UNL1        0.0710
     24  O         22.6040  -20.1080  -14.2660 O.3     1  UNL1       -0.3580
     25  H         21.6760  -20.2100  -14.5500 H       1  UNL1        0.2170
     26  S         25.4290  -21.2150  -14.2030 S.O2    1  UNL1        0.2150
     27  O         25.5020  -19.7780  -14.4090 O.2     1  UNL1       -0.2170
     28  O         26.6550  -21.8970  -13.8180 O.2     1  UNL1       -0.2170
     29  C         24.9190  -21.9480  -15.7480 C.2     1  UNL1        0.0640
     30  C         24.5370  -23.2930  -15.7730 C.2     1  UNL1        0.0240
     31  C         24.1520  -23.8740  -16.9810 C.2     1  UNL1        0.0020
     32  C         24.1580  -23.1160  -18.1530 C.2     1  UNL1        0.0000
     33  C         24.5550  -21.7770  -18.1240 C.2     1  UNL1        0.0020
     34  C         24.9430  -21.1890  -16.9210 C.2     1  UNL1        0.0240
@<TRIPOS>BOND
     1    32    33    2
     2    32    31    1
     3    33    34    1
     4    31    30    2
     5    34    29    2
     6    30    29    1
     7    29    26    1
     8    25    24    1
     9    27    26    2
    10    24     5    1
    11    26    28    2
    12    26     6    1
    13     5     6   ar
    14     5     4   ar
    15     6     7   ar
    16     3     4    2
    17     3     2    1
    18     4    10   ar
    19     7     8    2
    20     7     9   ar
    21     2     1    2
    22    10     9   ar
    23    10    11    2
    24     9    12    1
    25     1    11    1
    26     1    13    1
    27    14    13    2
    28    13    15   am
    29    15    16    1
    30    15    17    1
    31    17    23    2
    32    17    18    1
    33    23    21    1
    34    18    19    2
    35    21    22    1
    36    21    20    2
    37    19    20    1
