@<TRIPOS>MOLECULE
40257_out_ligand_01.pdbqt
 38 42 0 0 0
SMALL
GASTEIGER

@<TRIPOS>ATOM
      1  C         20.6110  -22.4540  -10.6980 C.2     1  UNL1        0.0500
      2  C         21.4270  -21.9020  -11.7010 C.2     1  UNL1        0.0430
      3  C         22.7890  -22.2070  -11.7270 C.2     1  UNL1        0.0760
      4  C         23.3470  -23.0720  -10.7820 C.2     1  UNL1        0.0260
      5  C         22.5310  -23.6380   -9.8020 C.2     1  UNL1        0.0210
      6  C         21.1560  -23.3460   -9.7520 C.2     1  UNL1        0.0210
      7  C         19.1790  -22.0500  -10.7300 C.2     1  UNL1        0.2530
      8  N         18.2710  -23.0100  -10.3600 N.am    1  UNL1       -0.3530
      9  H         18.5970  -23.9480  -10.1590 H       1  UNL1        0.1630
     10  O         18.8840  -20.9020  -11.0460 O.2     1  UNL1       -0.2680
     11  C         16.8470  -22.7640  -10.3010 C.3     1  UNL1        0.1610
     12  C         16.2540  -23.0650   -8.9460 C.2     1  UNL1       -0.0410
     13  C         16.2710  -24.3810   -8.4600 C.2     1  UNL1        0.0090
     14  C         15.7850  -24.6830   -7.1850 C.2     1  UNL1        0.0070
     15  C         15.2700  -23.6740   -6.3670 C.2     1  UNL1       -0.0620
     16  C         14.7770  -23.9890   -4.9850 C.3     1  UNL1        0.0480
     17  C         15.2670  -22.3550   -6.8350 C.2     1  UNL1        0.0070
     18  C         15.7600  -22.0540   -8.1080 C.2     1  UNL1        0.0090
     19  S         20.2030  -24.1810   -8.4830 S.3     1  UNL1       -0.0900
     20  C         19.9570  -22.8310   -7.3400 C.2     1  UNL1        0.0050
     21  C         18.8010  -22.7990   -6.5470 C.2     1  UNL1        0.0220
     22  C         18.5940  -21.7470   -5.6530 C.2     1  UNL1        0.0430
     23  C         19.5450  -20.7380   -5.5500 C.2     1  UNL1        0.1160
     24  F         19.3450  -19.7270   -4.6950 F       1  UNL1       -0.2060
     25  C         20.7010  -20.7620   -6.3230 C.2     1  UNL1        0.0430
     26  C         20.9110  -21.8130   -7.2180 C.2     1  UNL1        0.0220
     27  S         23.8480  -21.5210  -12.9860 S.O2    1  UNL1        0.2480
     28  O         24.9240  -20.8070  -12.3290 O.2     1  UNL1       -0.2050
     29  O         22.9690  -20.8630  -13.9310 O.2     1  UNL1       -0.2050
     30  N         24.4970  -22.9410  -13.6810 N.pl3   1  UNL1       -0.1710
     31  C         25.5640  -23.6310  -12.8710 C.3     1  UNL1        0.1180
     32  C         26.8740  -23.5270  -13.6670 C.3     1  UNL1        0.0560
     33  C         26.3910  -23.1530  -15.0270 C.2     1  UNL1       -0.0350
     34  C         27.1200  -23.0920  -16.2040 C.2     1  UNL1        0.0090
     35  C         25.0510  -22.7740  -14.9930 C.2     1  UNL1        0.0310
     36  C         26.4720  -22.6590  -17.3620 C.2     1  UNL1        0.0010
     37  C         25.1160  -22.2920  -17.3280 C.2     1  UNL1        0.0020
     38  C         24.3920  -22.3520  -16.1350 C.2     1  UNL1        0.0250
@<TRIPOS>BOND
     1    36    37    2
     2    36    34    1
     3    37    38    1
     4    34    33    2
     5    38    35    2
     6    33    35    1
     7    33    32    1
     8    35    30    1
     9    29    27    2
    10    30    27    1
    11    30    31    1
    12    32    31    1
    13    27    28    2
    14    27     3    1
    15     3     2    1
    16     3     4    2
    17     2     1    2
    18    10     7    2
    19     4     5    1
    20     7     1    1
    21     7     8   am
    22     1     6    1
    23     8    11    1
    24     8     9    1
    25    11    12    1
    26     5     6    2
    27     6    19    1
    28    12    13    2
    29    12    18    1
    30    19    20    1
    31    13    14    1
    32    18    17    2
    33    20    26    2
    34    20    21    1
    35    26    25    1
    36    14    15    2
    37    17    15    1
    38    21    22    2
    39    15    16    1
    40    25    23    2
    41    22    23    1
    42    23    24    1
