@<TRIPOS>MOLECULE
40746_out_ligand_01.pdbqt
 34 37 0 0 0
SMALL
GASTEIGER

@<TRIPOS>ATOM
      1  C         23.3870  -21.9500  -10.2450 C.2     1  UNL1        0.2560
      2  O         23.3400  -21.1010   -9.3640 O.2     1  UNL1       -0.2670
      3  N         22.4390  -22.9160  -10.5330 N.am    1  UNL1       -0.3230
      4  H         22.5890  -23.4690  -11.3650 H       1  UNL1        0.1690
      5  C         21.2320  -23.1600   -9.8460 C.2     1  UNL1        0.0350
      6  C         20.1790  -22.2620  -10.0650 C.2     1  UNL1        0.0300
      7  C         18.9450  -22.4360   -9.4280 C.2     1  UNL1        0.0170
      8  C         18.7440  -23.5150   -8.5630 C.2     1  UNL1        0.0120
      9  C         19.7990  -24.4000   -8.3280 C.2     1  UNL1        0.0170
     10  C         21.0330  -24.2280   -8.9710 C.2     1  UNL1        0.0300
     11  C         17.4680  -23.7120   -7.8870 C.ar    1  UNL1        0.1630
     12  N         16.3210  -23.9860   -8.4790 N.ar    1  UNL1       -0.1290
     13  N         15.3510  -24.1140   -7.5160 N.ar    1  UNL1       -0.1340
     14  C         15.9080  -23.8910   -6.3480 C.ar    1  UNL1        0.1300
     15  N         17.2370  -23.6140   -6.5350 N.ar    1  UNL1       -0.3160
     16  C         15.2320  -23.9100   -5.0260 C.3     1  UNL1        0.0810
     17  C         18.1680  -23.2400   -5.4940 C.3     1  UNL1        0.1320
     18  C         17.7540  -21.9800   -4.7360 C.3     1  UNL1        0.0200
     19  C         16.6310  -22.2050   -3.7210 C.3     1  UNL1        0.0020
     20  C         15.2700  -22.5500   -4.3310 C.3     1  UNL1        0.0080
     21  C         24.5750  -21.9580  -11.1390 C.2     1  UNL1        0.0330
     22  C         25.6720  -21.1140  -10.9060 C.2     1  UNL1        0.0170
     23  C         26.7660  -21.1330  -11.7760 C.2     1  UNL1        0.0030
     24  C         26.7620  -21.9810  -12.8840 C.2     1  UNL1        0.0250
     25  C         25.6550  -22.8010  -13.1260 C.2     1  UNL1        0.0800
     26  C         24.5640  -22.8020  -12.2530 C.2     1  UNL1        0.0420
     27  S         25.6590  -23.8900  -14.5270 S.O2    1  UNL1        0.2590
     28  O         26.9620  -23.7970  -15.1490 O.2     1  UNL1       -0.2010
     29  O         25.0950  -25.1590  -14.1290 O.2     1  UNL1       -0.2010
     30  N         24.5940  -23.1210  -15.5630 N.3     1  UNL1       -0.3110
     31  H         23.8690  -22.5800  -15.0950 H       1  UNL1        0.1720
     32  C         25.0070  -22.7520  -16.9210 C.3     1  UNL1        0.0850
     33  C         24.0310  -23.3850  -17.9050 C.3     1  UNL1        0.0320
     34  C         25.0060  -21.2340  -17.0530 C.3     1  UNL1        0.0320
@<TRIPOS>BOND
     1    33    32    1
     2    34    32    1
     3    32    30    1
     4    30    31    1
     5    30    27    1
     6    28    27    2
     7    27    29    2
     8    27    25    1
     9    25    24    2
    10    25    26    1
    11    24    23    1
    12    26    21    2
    13    23    22    2
    14     4     3    1
    15    21    22    1
    16    21     1    1
    17     3     1   am
    18     3     5    1
    19     1     2    2
    20     6     5    2
    21     6     7    1
    22     5    10    1
    23     7     8    2
    24    10     9    2
    25     8     9    1
    26     8    11    1
    27    12    11   ar
    28    12    13   ar
    29    11    15   ar
    30    13    14   ar
    31    15    14   ar
    32    15    17    1
    33    14    16    1
    34    17    18    1
    35    16    20    1
    36    18    19    1
    37    20    19    1
