@<TRIPOS>MOLECULE
41066_out_ligand_01.pdbqt
 40 43 0 0 0
SMALL
GASTEIGER

@<TRIPOS>ATOM
      1  C         16.7170  -21.7220  -10.5150 C.3     1  UNL1        0.2780
      2  O         16.3380  -23.0320  -10.1070 O.2     1  UNL1       -0.3420
      3  C         16.1150  -23.2480   -8.7740 C.2     1  UNL1        0.0690
      4  C         15.7570  -22.1020   -8.0550 C.2     1  UNL1        0.0380
      5  C         15.5270  -22.1660   -6.6790 C.2     1  UNL1        0.0280
      6  C         15.6500  -23.3910   -6.0210 C.2     1  UNL1        0.0800
      7  C         16.0200  -24.5400   -6.7260 C.2     1  UNL1        0.0280
      8  C         16.2480  -24.4670   -8.1030 C.2     1  UNL1        0.0380
      9  S         15.4040  -23.4820   -4.2660 S.O2    1  UNL1        0.2630
     10  O         14.7180  -22.2700   -3.8650 O.2     1  UNL1       -0.2000
     11  O         14.8630  -24.7830   -3.9370 O.2     1  UNL1       -0.2000
     12  N         16.9750  -23.3440   -3.6640 N.pl3   1  UNL1       -0.2810
     13  H         17.3460  -24.2600   -3.4130 H       1  UNL1        0.1790
     14  C         17.8610  -22.4400   -4.3100 C.2     1  UNL1        0.0430
     15  C         18.0820  -21.1730   -3.7740 C.2     1  UNL1        0.0300
     16  C         18.9660  -20.3000   -4.4060 C.2     1  UNL1        0.0030
     17  C         19.6290  -20.6970   -5.5690 C.2     1  UNL1        0.0070
     18  C         19.4260  -21.9760   -6.1020 C.2     1  UNL1       -0.0600
     19  C         20.1130  -22.3910   -7.3690 C.3     1  UNL1        0.0480
     20  C         18.5280  -22.8440   -5.4670 C.2     1  UNL1        0.0370
     21  C         18.0040  -21.6470  -11.3460 C.2     1  UNL1        0.2460
     22  O         17.9810  -21.2260  -12.5010 O.2     1  UNL1       -0.2710
     23  N         19.1200  -22.0610  -10.6390 N.am    1  UNL1       -0.3250
     24  H         18.9340  -22.3920   -9.6970 H       1  UNL1        0.1690
     25  C         20.4510  -22.1420  -11.0890 C.2     1  UNL1        0.0340
     26  C         20.7940  -21.3750  -12.2110 C.2     1  UNL1        0.0310
     27  C         22.0940  -21.3990  -12.7240 C.2     1  UNL1        0.0270
     28  C         23.0590  -22.2050  -12.1170 C.2     1  UNL1        0.0790
     29  C         22.7400  -22.9460  -10.9790 C.2     1  UNL1        0.0270
     30  C         21.4350  -22.9240  -10.4770 C.2     1  UNL1        0.0310
     31  S         24.7280  -22.2160  -12.7460 S.O2    1  UNL1        0.2600
     32  O         25.4030  -21.0620  -12.1880 O.2     1  UNL1       -0.2000
     33  O         25.2500  -23.5530  -12.5640 O.2     1  UNL1       -0.2000
     34  N         24.5250  -21.9490  -14.4030 N.3     1  UNL1       -0.3030
     35  C         24.9620  -20.6330  -14.9450 C.3     1  UNL1        0.1650
     36  C         24.8540  -20.6050  -16.4810 C.3     1  UNL1        0.2920
     37  N         25.6470  -21.6430  -17.1720 N.3     1  UNL1        0.0870
     38  C         26.9160  -21.1210  -17.6730 C.3     1  UNL1        0.3100
     39  C         25.8690  -22.8260  -16.3170 C.3     1  UNL1        0.2920
     40  C         24.7150  -23.0960  -15.3330 C.3     1  UNL1        0.1650
@<TRIPOS>BOND
     1    38    37    1
     2    37    36    1
     3    37    39    1
     4    36    35    1
     5    39    40    1
     6    40    34    1
     7    35    34    1
     8    34    31    1
     9    31    33    2
    10    31    32    2
    11    31    28    1
    12    27    26    1
    13    27    28    2
    14    22    21    2
    15    26    25    2
    16    28    29    1
    17    21    23   am
    18    21     1    1
    19    25    23    1
    20    25    30    1
    21    29    30    2
    22    23    24    1
    23     1     2    1
    24     2     3    1
    25     3     8    2
    26     3     4    1
    27     8     7    1
    28     4     5    2
    29    19    18    1
    30     7     6    2
    31     5     6    1
    32    18    17    2
    33    18    20    1
    34     6     9    1
    35    17    16    1
    36    20    14    2
    37    16    15    2
    38    14    15    1
    39    14    12    1
    40     9    11    2
    41     9    10    2
    42     9    12    1
    43    12    13    1
