@<TRIPOS>MOLECULE
4162_out_ligand_01.pdbqt
 38 42 0 0 0
SMALL
GASTEIGER

@<TRIPOS>ATOM
      1  C         22.6330  -22.6380  -10.3940 C.2     1  UNL1        0.0340
      2  C         22.6100  -23.5270   -9.3120 C.2     1  UNL1        0.0180
      3  C         21.3840  -23.8930   -8.7540 C.2     1  UNL1        0.0200
      4  C         20.1980  -23.3510   -9.2660 C.ar    1  UNL1        0.0590
      5  C         18.8850  -23.7160   -8.7000 C.ar    1  UNL1        0.2640
      6  O         18.8370  -24.5410   -7.7890 O.2     1  UNL1       -0.2670
      7  N         17.7670  -23.0890   -9.2460 N.ar    1  UNL1       -0.2650
      8  C         17.8240  -22.1300  -10.2490 C.ar    1  UNL1        0.3290
      9  O         16.8570  -21.4940  -10.6660 O.2     1  UNL1       -0.2460
     10  N         19.0540  -21.8750  -10.7840 N.ar    1  UNL1       -0.3070
     11  C         20.2360  -22.4500  -10.3280 C.ar    1  UNL1        0.0530
     12  C         21.4510  -22.1010  -10.9140 C.2     1  UNL1        0.0470
     13  H         19.0610  -21.1880  -11.5310 H       1  UNL1        0.1700
     14  C         23.9150  -22.2490  -11.0110 C.2     1  UNL1        0.2520
     15  O         24.7490  -21.6450  -10.3510 O.2     1  UNL1       -0.2680
     16  N         24.0760  -22.6610  -12.3120 N.am    1  UNL1       -0.3520
     17  H         23.3440  -23.2160  -12.7420 H       1  UNL1        0.1630
     18  C         25.3140  -22.4320  -13.0520 C.3     1  UNL1        0.0880
     19  C         25.6390  -20.9360  -13.1360 C.3     1  UNL1        0.0550
     20  C         24.7620  -20.2060  -14.1600 C.3     1  UNL1        0.2750
     21  N         24.7490  -20.8340  -15.4910 N.3     1  UNL1        0.0920
     22  C         24.3870  -22.2530  -15.3950 C.3     1  UNL1        0.2750
     23  C         25.2770  -23.0560  -14.4510 C.3     1  UNL1        0.0550
     24  C         25.9970  -20.6220  -16.2420 C.3     1  UNL1        0.3110
     25  C         26.2130  -19.1590  -16.5780 C.2     1  UNL1       -0.0300
     26  C         25.8330  -18.6620  -17.8360 C.2     1  UNL1        0.0090
     27  C         26.0180  -17.3160  -18.1530 C.2     1  UNL1        0.0010
     28  C         26.5890  -16.4520  -17.2180 C.2     1  UNL1        0.0000
     29  C         26.9760  -16.9350  -15.9680 C.2     1  UNL1        0.0010
     30  C         26.7850  -18.2810  -15.6450 C.2     1  UNL1        0.0090
     31  C         16.4550  -23.4740   -8.7300 C.3     1  UNL1        0.1420
     32  C         15.8690  -22.4440   -7.7490 C.3     1  UNL1        0.0590
     33  C         16.0700  -22.8010   -6.2950 C.2     1  UNL1       -0.0570
     34  C         15.0920  -23.5200   -5.5960 C.2     1  UNL1        0.0070
     35  C         15.2700  -23.8310   -4.2440 C.2     1  UNL1        0.0010
     36  C         16.4310  -23.4260   -3.5840 C.2     1  UNL1        0.0000
     37  C         17.4060  -22.7050   -4.2680 C.2     1  UNL1        0.0010
     38  C         17.2310  -22.3980   -5.6190 C.2     1  UNL1        0.0070
@<TRIPOS>BOND
     1    27    26    1
     2    27    28    2
     3    26    25    2
     4    28    29    1
     5    25    24    1
     6    25    30    1
     7    24    21    1
     8    29    30    2
     9    21    22    1
    10    21    20    1
    11    22    23    1
    12    23    18    1
    13    20    19    1
    14    19    18    1
    15    18    16    1
    16    17    16    1
    17    16    14   am
    18    13    10    1
    19    14     1    1
    20    14    15    2
    21    12     1    2
    22    12    11    1
    23    10    11   ar
    24    10     8   ar
    25     9     8    2
    26     1     2    1
    27    11     4   ar
    28     8     7   ar
    29     2     3    2
    30     4     3    1
    31     4     5   ar
    32     7    31    1
    33     7     5   ar
    34    31    32    1
    35     5     6    2
    36    32    33    1
    37    33    38    2
    38    33    34    1
    39    38    37    1
    40    34    35    2
    41    37    36    2
    42    35    36    1
