@<TRIPOS>MOLECULE
42060_out_ligand_01.pdbqt
 35 38 0 0 0
SMALL
GASTEIGER

@<TRIPOS>ATOM
      1  N         17.8920  -22.2760  -10.4450 N.am    1  UNL1       -0.3570
      2  C         18.6920  -21.3320  -11.0530 C.2     1  UNL1        0.2510
      3  O         18.2670  -20.2650  -11.4820 O.2     1  UNL1       -0.2680
      4  H         18.2350  -23.2230  -10.3530 H       1  UNL1        0.1620
      5  C         20.1300  -21.6830  -11.2210 C.2     1  UNL1        0.0340
      6  C         20.8930  -22.2240  -10.1850 C.2     1  UNL1        0.0180
      7  C         22.2310  -22.5560  -10.4120 C.2     1  UNL1        0.0220
      8  C         22.8330  -22.3210  -11.6580 C.2     1  UNL1        0.0320
      9  C         22.0870  -21.7240  -12.6840 C.2     1  UNL1        0.0530
     10  S         24.4770  -22.9620  -11.8890 S.3     1  UNL1       -0.0870
     11  C         20.7310  -21.4370  -12.4630 C.2     1  UNL1        0.0480
     12  N         22.5730  -21.4430  -13.9730 N.am    1  UNL1       -0.3220
     13  C         23.8240  -21.1070  -14.4290 C.2     1  UNL1        0.2570
     14  H         21.8850  -21.3300  -14.7090 H       1  UNL1        0.1690
     15  O         23.9820  -20.9530  -15.6420 O.2     1  UNL1       -0.2670
     16  C         24.9370  -20.7460  -13.5220 C.2     1  UNL1        0.0490
     17  C         25.6830  -19.6080  -13.8790 C.2     1  UNL1        0.0180
     18  C         25.3000  -21.4770  -12.3890 C.2     1  UNL1        0.0210
     19  C         26.7650  -19.1880  -13.1050 C.2     1  UNL1        0.0010
     20  C         27.1200  -19.9100  -11.9730 C.2     1  UNL1        0.0010
     21  C         26.3960  -21.0500  -11.6210 C.2     1  UNL1        0.0200
     22  C         16.4520  -22.0940  -10.3600 C.3     1  UNL1        0.1270
     23  C         15.7340  -23.2790   -9.7030 C.3     1  UNL1        0.0580
     24  C         16.0460  -23.4020   -8.2280 C.2     1  UNL1       -0.0570
     25  C         16.9030  -24.4130   -7.7690 C.2     1  UNL1        0.0090
     26  C         17.2200  -24.5110   -6.4140 C.2     1  UNL1        0.0250
     27  C         16.6710  -23.5960   -5.5120 C.2     1  UNL1        0.0740
     28  C         15.8240  -22.5780   -5.9540 C.2     1  UNL1        0.0250
     29  C         15.5120  -22.4840   -7.3110 C.2     1  UNL1        0.0090
     30  S         17.0880  -23.7200   -3.7950 S.O2    1  UNL1        0.2390
     31  O         17.1600  -22.3870   -3.2400 O.2     1  UNL1       -0.2060
     32  O         18.1600  -24.6770   -3.6560 O.2     1  UNL1       -0.2060
     33  N         15.6900  -24.4030   -3.1540 N.3     1  UNL1       -0.2250
     34  H         15.2730  -23.7440   -2.4920 H       1  UNL1        0.1360
     35  H         15.0220  -24.6990   -3.8650 H       1  UNL1        0.1360
@<TRIPOS>BOND
     1    15    13    2
     2    14    12    1
     3    13    12   am
     4    13    16    1
     5    12     9    1
     6    17    16    2
     7    17    19    1
     8    16    18    1
     9    19    20    2
    10     9    11    1
    11     9     8    2
    12    11     5    2
    13    18    10    1
    14    18    21    2
    15    20    21    1
    16    10     8    1
    17     8     7    1
    18     3     2    2
    19     5     2    1
    20     5     6    1
    21     2     1   am
    22     1    22    1
    23     1     4    1
    24     7     6    2
    25    22    23    1
    26    23    24    1
    27    24    25    2
    28    24    29    1
    29    25    26    1
    30    29    28    2
    31    26    27    2
    32    28    27    1
    33    27    30    1
    34    35    33    1
    35    30    32    2
    36    30    31    2
    37    30    33    1
    38    33    34    1
