@<TRIPOS>MOLECULE
42127_out_ligand_01.pdbqt
 34 37 0 0 0
SMALL
GASTEIGER

@<TRIPOS>ATOM
      1  C         22.9450  -22.7340   -8.9480 C.2     1  UNL1        0.0810
      2  C         22.9220  -21.6980   -8.0360 C.2     1  UNL1        0.0370
      3  C         21.5990  -21.6320   -7.5390 C.2     1  UNL1        0.0390
      4  C         20.8760  -22.6190   -8.1870 C.2     1  UNL1        0.0970
      5  O         21.7070  -23.2990   -9.0390 O.2     1  UNL1       -0.3140
      6  C         19.4250  -23.0530   -8.1250 C.3     1  UNL1        0.1610
      7  O         19.4610  -24.4810   -8.3310 O.3     1  UNL1       -0.3730
      8  H         18.6090  -24.8250   -8.0220 H       1  UNL1        0.2120
      9  C         18.6310  -22.4090   -9.2750 C.2     1  UNL1       -0.0100
     10  C         17.2230  -22.4130   -9.2970 C.2     1  UNL1        0.0110
     11  C         16.5120  -21.8140  -10.3420 C.2     1  UNL1        0.0040
     12  C         17.1980  -21.2020  -11.3870 C.2     1  UNL1        0.0420
     13  C         18.5860  -21.2010  -11.3840 C.2     1  UNL1        0.1170
     14  F         19.2470  -20.6120  -12.3900 F       1  UNL1       -0.2060
     15  C         19.3030  -21.8020  -10.3530 C.2     1  UNL1        0.0530
     16  C         18.7440  -22.8740   -6.7490 C.2     1  UNL1       -0.0100
     17  C         18.0120  -23.9510   -6.1930 C.2     1  UNL1        0.0110
     18  C         17.4030  -23.8510   -4.9380 C.2     1  UNL1        0.0040
     19  C         17.5240  -22.6770   -4.2020 C.2     1  UNL1        0.0420
     20  C         18.2560  -21.6170   -4.7270 C.2     1  UNL1        0.1170
     21  F         18.3870  -20.4950   -4.0100 F       1  UNL1       -0.2060
     22  C         18.8650  -21.7060   -5.9770 C.2     1  UNL1        0.0530
     23  C         24.0080  -23.3000   -9.8320 C.3     1  UNL1        0.3370
     24  N         24.3140  -22.5340  -11.0530 N.3     1  UNL1        0.1000
     25  C         23.4750  -22.9000  -12.2090 C.3     1  UNL1        0.2730
     26  C         22.4690  -21.8050  -12.5920 C.3     1  UNL1        0.0260
     27  C         22.8790  -21.1060  -13.8820 C.3     1  UNL1        0.0070
     28  C         25.7460  -22.5940  -11.3810 C.3     1  UNL1        0.3290
     29  C         26.2570  -21.3060  -11.9560 C.2     1  UNL1        0.0390
     30  C         26.4430  -20.0880  -11.3270 C.2     1  UNL1        0.0280
     31  C         26.9320  -19.1730  -12.2840 C.2     1  UNL1        0.0190
     32  C         27.0330  -19.8470  -13.4780 C.2     1  UNL1        0.0900
     33  N         26.6230  -21.1380  -13.2740 N.pl3   1  UNL1       -0.3630
     34  C         26.5970  -22.1510  -14.3030 C.3     1  UNL1        0.1550
@<TRIPOS>BOND
     1    34    33    1
     2    27    26    1
     3    32    33    1
     4    32    31    2
     5    33    29    1
     6    26    25    1
     7    14    13    1
     8    31    30    1
     9    25    24    1
    10    29    28    1
    11    29    30    2
    12    12    13    2
    13    12    11    1
    14    13    15    1
    15    28    24    1
    16    24    23    1
    17    15     9    2
    18    11    10    2
    19    23     1    1
    20    10     9    1
    21     9     6    1
    22     5     1    1
    23     5     4    1
    24     1     2    2
    25     7     6    1
    26     7     8    1
    27     4     6    1
    28     4     3    2
    29     6    16    1
    30     2     3    1
    31    16    17    2
    32    16    22    1
    33    17    18    1
    34    22    20    2
    35    18    19    2
    36    20    19    1
    37    20    21    1
