@<TRIPOS>MOLECULE
42136_out_ligand_01.pdbqt
 33 36 0 0 0
SMALL
GASTEIGER

@<TRIPOS>ATOM
      1  C         18.7570  -22.3480  -10.3880 C.2     1  UNL1        0.0320
      2  C         19.7630  -23.1700   -9.8700 C.2     1  UNL1        0.0190
      3  C         21.0860  -23.0310  -10.3110 C.2     1  UNL1        0.0300
      4  C         21.4220  -22.0640  -11.2600 C.2     1  UNL1        0.0360
      5  C         20.4130  -21.2350  -11.7660 C.2     1  UNL1        0.0300
      6  C         19.0910  -21.3710  -11.3310 C.2     1  UNL1        0.0190
      7  N         22.7230  -21.8670  -11.7600 N.am    1  UNL1       -0.3090
      8  C         23.8480  -21.4320  -11.0820 C.2     1  UNL1        0.3270
      9  O         23.8450  -21.0390   -9.9170 O.2     1  UNL1       -0.2460
     10  N         25.0090  -21.4060  -11.8760 N.am    1  UNL1       -0.2990
     11  C         26.2210  -20.7970  -11.3170 C.3     1  UNL1        0.1340
     12  C         25.2170  -22.2320  -13.0200 C.2     1  UNL1        0.0450
     13  C         26.5860  -19.4800  -11.9890 C.3     1  UNL1        0.0210
     14  C         27.1150  -19.6650  -13.4080 C.3     1  UNL1        0.0060
     15  C         26.0760  -20.2340  -14.3680 C.3     1  UNL1        0.0410
     16  C         25.7970  -21.7090  -14.1900 C.2     1  UNL1       -0.0310
     17  C         26.0220  -22.5730  -15.2760 C.2     1  UNL1        0.0090
     18  C         25.6820  -23.9250  -15.2050 C.2     1  UNL1        0.0010
     19  C         25.1020  -24.4340  -14.0480 C.2     1  UNL1        0.0020
     20  C         24.8710  -23.5920  -12.9610 C.2     1  UNL1        0.0300
     21  H         22.8390  -21.9560  -12.7590 H       1  UNL1        0.1700
     22  C         17.3360  -22.4570   -9.9530 C.2     1  UNL1        0.2510
     23  O         16.4770  -21.7590  -10.4790 O.2     1  UNL1       -0.2680
     24  N         17.0600  -23.3990   -8.9830 N.am    1  UNL1       -0.3570
     25  H         17.7650  -24.0780   -8.7320 H       1  UNL1        0.1620
     26  C         15.6980  -23.6420   -8.5390 C.3     1  UNL1        0.1270
     27  C         15.6410  -24.5840   -7.3340 C.3     1  UNL1        0.0580
     28  C         15.8700  -23.8480   -6.0390 C.2     1  UNL1       -0.0570
     29  C         17.0920  -23.9560   -5.3610 C.2     1  UNL1        0.0070
     30  C         17.3030  -23.2560   -4.1720 C.2     1  UNL1        0.0010
     31  C         16.3000  -22.4400   -3.6530 C.2     1  UNL1        0.0000
     32  C         15.0830  -22.3220   -4.3230 C.2     1  UNL1        0.0010
     33  C         14.8700  -23.0210   -5.5120 C.2     1  UNL1        0.0070
@<TRIPOS>BOND
     1    17    18    2
     2    17    16    1
     3    18    19    1
     4    15    16    1
     5    15    14    1
     6    16    12    2
     7    19    20    2
     8    14    13    1
     9    12    20    1
    10    12    10    1
    11    21     7    1
    12    13    11    1
    13    10    11    1
    14    10     8   am
    15     5     6    1
    16     5     4    2
    17     7     4    1
    18     7     8   am
    19     6     1    2
    20     4     3    1
    21     8     9    2
    22    23    22    2
    23     1    22    1
    24     1     2    1
    25     3     2    2
    26    22    24   am
    27    24    25    1
    28    24    26    1
    29    26    27    1
    30    27    28    1
    31    28    33    2
    32    28    29    1
    33    33    32    1
    34    29    30    2
    35    32    31    2
    36    30    31    1
