@<TRIPOS>MOLECULE
42452_out_ligand_01.pdbqt
 33 36 0 0 0
SMALL
GASTEIGER

@<TRIPOS>ATOM
      1  C         21.5640  -21.5910  -12.3910 C.2     1  UNL1        0.0340
      2  C         20.3710  -20.8960  -12.6320 C.2     1  UNL1        0.0180
      3  C         19.2550  -21.0980  -11.8130 C.2     1  UNL1        0.0170
      4  C         19.3180  -21.9830  -10.7290 C.ar    1  UNL1        0.0260
      5  C         18.1840  -22.2260   -9.8140 C.ar    1  UNL1        0.1050
      6  C         18.2860  -23.1190   -8.8110 C.ar    1  UNL1        0.1650
      7  C         19.5240  -23.9150   -8.6480 C.ar    1  UNL1        0.2700
      8  O         19.6370  -24.8400   -7.8520 O.2     1  UNL1       -0.2660
      9  N         20.5820  -23.6030   -9.4620 N.ar    1  UNL1       -0.3210
     10  C         20.5170  -22.6750  -10.5040 C.ar    1  UNL1        0.0490
     11  C         21.6380  -22.4810  -11.3160 C.2     1  UNL1        0.0470
     12  H         21.4180  -24.1540   -9.3120 H       1  UNL1        0.1690
     13  C         22.7220  -21.3360  -13.2910 C.2     1  UNL1        0.2510
     14  O         22.6360  -20.4870  -14.1700 O.2     1  UNL1       -0.2680
     15  N         23.8320  -22.1230  -13.0930 N.am    1  UNL1       -0.3540
     16  H         23.7650  -22.9610  -12.5300 H       1  UNL1        0.1620
     17  C         24.9880  -22.0660  -13.9750 C.3     1  UNL1        0.1550
     18  C         26.2440  -21.5210  -13.2800 C.3     1  UNL1        0.1390
     19  C         26.4280  -21.9550  -11.8300 C.3     1  UNL1        0.0350
     20  C         26.0550  -20.7250  -11.0390 C.3     1  UNL1        0.0290
     21  C         26.4830  -19.6120  -11.9640 C.3     1  UNL1        0.1680
     22  O         26.1990  -20.0740  -13.2900 O.3     1  UNL1       -0.3840
     23  O         17.0390  -21.5080  -10.0730 O.3     1  UNL1       -0.3580
     24  H         17.2030  -20.9260  -10.8390 H       1  UNL1        0.2170
     25  S         16.9950  -23.3850   -7.6890 S.O2    1  UNL1        0.2150
     26  O         16.8310  -24.7930   -7.3610 O.2     1  UNL1       -0.2170
     27  O         15.8050  -22.6530   -8.0930 O.2     1  UNL1       -0.2170
     28  C         17.6220  -22.6040   -6.2120 C.2     1  UNL1        0.0640
     29  C         18.5270  -21.5450   -6.3130 C.2     1  UNL1        0.0240
     30  C         19.0000  -20.9350   -5.1510 C.2     1  UNL1        0.0020
     31  C         18.5600  -21.3750   -3.9020 C.2     1  UNL1        0.0000
     32  C         17.6420  -22.4230   -3.8070 C.2     1  UNL1        0.0020
     33  C         17.1660  -23.0400   -4.9640 C.2     1  UNL1        0.0240
@<TRIPOS>BOND
     1    14    13    2
     2    17    18    1
     3    17    15    1
     4    13    15   am
     5    13     1    1
     6    22    18    1
     7    22    21    1
     8    18    19    1
     9    15    16    1
    10     2     1    2
    11     2     3    1
    12     1    11    1
    13    21    20    1
    14    19    20    1
    15     3     4    2
    16    11    10    2
    17    24    23    1
    18     4    10   ar
    19     4     5   ar
    20    10     9   ar
    21    23     5    1
    22     5     6   ar
    23     9    12    1
    24     9     7   ar
    25     6     7   ar
    26     6    25    1
    27     7     8    2
    28    27    25    2
    29    25    26    2
    30    25    28    1
    31    29    28    2
    32    29    30    1
    33    28    33    1
    34    30    31    2
    35    33    32    2
    36    31    32    1
