@<TRIPOS>MOLECULE
42697_out_ligand_01.pdbqt
 40 43 0 0 0
SMALL
GASTEIGER

@<TRIPOS>ATOM
      1  C         23.1130  -22.0170   -8.9130 C.3     1  UNL1        0.1080
      2  C         23.8670  -21.7630  -10.2100 C.2     1  UNL1        0.2220
      3  N         23.3590  -22.4950  -11.2680 N.am    1  UNL1       -0.3270
      4  H         22.5550  -23.0800  -11.0770 H       1  UNL1        0.1690
      5  O         24.7880  -20.9530  -10.2590 O.2     1  UNL1       -0.2730
      6  C         23.8400  -22.5380  -12.5940 C.2     1  UNL1        0.0340
      7  C         24.8370  -23.4060  -13.0350 C.2     1  UNL1        0.0300
      8  C         25.2450  -23.3990  -14.3740 C.2     1  UNL1        0.0100
      9  C         24.6630  -22.5220  -15.2980 C.2     1  UNL1       -0.0510
     10  C         23.6670  -21.6450  -14.8510 C.2     1  UNL1        0.0100
     11  C         23.2600  -21.6570  -13.5130 C.2     1  UNL1        0.0300
     12  C         25.0990  -22.5230  -16.7430 C.3     1  UNL1        0.1210
     13  C         25.2520  -21.1010  -17.1380 C.2     1  UNL1        0.1600
     14  N         26.2450  -20.2980  -16.6250 N.2     1  UNL1       -0.2080
     15  C         26.0230  -19.1590  -17.2420 C.2     1  UNL1        0.1760
     16  O         24.9780  -19.2130  -18.1220 O.2     1  UNL1       -0.1960
     17  N         24.4750  -20.5150  -18.0610 N.4     1  UNL1       -0.1110
     18  C         26.7420  -17.8620  -17.1080 C.3     1  UNL1        0.0570
     19  C         26.6850  -17.3490  -15.6700 C.3     1  UNL1        0.0180
     20  C         26.1920  -16.8220  -18.0810 C.3     1  UNL1        0.0180
     21  C         22.4300  -23.3850   -8.9030 C.3     1  UNL1        0.0480
     22  C         21.0520  -23.3260   -8.2810 C.2     1  UNL1       -0.0580
     23  C         20.5990  -22.1450   -7.6740 C.2     1  UNL1        0.0090
     24  C         19.3480  -22.0980   -7.0590 C.2     1  UNL1        0.0260
     25  C         18.5380  -23.2350   -7.0620 C.2     1  UNL1        0.0790
     26  C         18.9760  -24.4210   -7.6560 C.2     1  UNL1        0.0260
     27  C         20.2320  -24.4640   -8.2640 C.2     1  UNL1        0.0090
     28  S         16.9570  -23.1990   -6.2600 S.O2    1  UNL1        0.2580
     29  O         16.5480  -24.5700   -6.0380 O.2     1  UNL1       -0.2010
     30  O         16.9890  -22.2310   -5.1860 O.2     1  UNL1       -0.2010
     31  N         15.9700  -22.6030   -7.4780 N.3     1  UNL1       -0.3150
     32  H         15.8710  -21.5880   -7.4350 H       1  UNL1        0.1720
     33  C         16.0570  -23.2140   -8.8130 C.3     1  UNL1        0.1370
     34  C         15.9940  -22.1330   -9.8970 C.3     1  UNL1        0.0580
     35  C         17.3240  -21.8850  -10.5720 C.2     1  UNL1       -0.0570
     36  C         18.2760  -22.9070  -10.6720 C.2     1  UNL1        0.0070
     37  C         19.5100  -22.6660  -11.2760 C.2     1  UNL1        0.0010
     38  C         19.8040  -21.4020  -11.7850 C.2     1  UNL1        0.0000
     39  C         18.8640  -20.3790  -11.6900 C.2     1  UNL1        0.0010
     40  C         17.6290  -20.6170  -11.0870 C.2     1  UNL1        0.0070
@<TRIPOS>BOND
     1    16    17    1
     2    16    15    1
     3    20    18    1
     4    17    13    1
     5    15    18    1
     6    15    14    2
     7    13    12    1
     8    13    14    2
     9    18    19    1
    10    12     9    1
    11     9    10    2
    12     9     8    1
    13    10    11    1
    14     8     7    2
    15    11     6    2
    16     7     6    1
    17     6     3    1
    18    38    39    2
    19    38    37    1
    20    39    40    1
    21    37    36    2
    22     3     4    1
    23     3     2   am
    24    40    35    2
    25    36    35    1
    26    35    34    1
    27     5     2    2
    28     2     1    1
    29    34    33    1
    30     1    21    1
    31    21    22    1
    32    33    31    1
    33    22    27    2
    34    22    23    1
    35    27    26    1
    36    23    24    2
    37    26    25    2
    38    31    32    1
    39    31    28    1
    40    25    24    1
    41    25    28    1
    42    28    29    2
    43    28    30    2
