@<TRIPOS>MOLECULE
42704_out_ligand_01.pdbqt
 40 43 0 0 0
SMALL
GASTEIGER

@<TRIPOS>ATOM
      1  N         23.5860  -22.3520  -10.8720 N.3     1  UNL1       -0.2940
      2  S         25.1830  -22.1980  -11.4510 S.O2    1  UNL1        0.2610
      3  O         25.6020  -20.8340  -11.2220 O.2     1  UNL1       -0.2000
      4  O         25.9390  -23.3030  -10.9010 O.2     1  UNL1       -0.2000
      5  C         25.0480  -22.4400  -13.2040 C.2     1  UNL1        0.0790
      6  C         25.2950  -23.7020  -13.7510 C.2     1  UNL1        0.0260
      7  C         25.2250  -23.8780  -15.1350 C.2     1  UNL1        0.0080
      8  C         24.9110  -22.7990  -15.9760 C.2     1  UNL1       -0.0620
      9  C         24.8760  -22.9920  -17.4640 C.3     1  UNL1        0.0480
     10  C         24.7020  -21.5330  -15.4170 C.2     1  UNL1        0.0080
     11  C         24.7770  -21.3470  -14.0340 C.2     1  UNL1        0.0260
     12  C         22.5170  -22.5110  -11.9060 C.3     1  UNL1        0.2380
     13  C         21.2440  -21.7240  -11.6180 C.2     1  UNL1        0.2400
     14  O         21.2360  -20.5010  -11.7350 O.2     1  UNL1       -0.2710
     15  N         20.1670  -22.5290  -11.3060 N.am    1  UNL1       -0.3260
     16  H         20.4040  -23.5060  -11.1640 H       1  UNL1        0.1690
     17  C         18.8540  -22.1390  -10.9930 C.2     1  UNL1        0.0350
     18  C         18.0460  -21.3770  -11.8380 C.2     1  UNL1        0.0290
     19  C         16.7520  -21.0190  -11.4500 C.2     1  UNL1        0.0030
     20  C         16.2540  -21.4150  -10.2090 C.2     1  UNL1        0.0150
     21  C         17.0560  -22.1760   -9.3530 C.2     1  UNL1        0.0120
     22  C         18.3470  -22.5460   -9.7540 C.2     1  UNL1        0.0440
     23  C         16.5790  -22.6130   -8.0150 C.2     1  UNL1        0.1410
     24  N         15.5440  -22.0540   -7.4670 N.2     1  UNL1       -0.2350
     25  C         15.1480  -22.5090   -6.2330 C.2     1  UNL1        0.0380
     26  C         13.9600  -21.8040   -5.6450 C.3     1  UNL1        0.0700
     27  C         15.7520  -23.5110   -5.5770 C.2     1  UNL1        0.1010
     28  C         16.9050  -24.1590   -6.2120 C.2     1  UNL1        0.2480
     29  O         17.4830  -25.1040   -5.6870 O.2     1  UNL1       -0.2680
     30  N         17.2720  -23.6390   -7.4160 N.am    1  UNL1       -0.3070
     31  H         18.0300  -24.1140   -7.8810 H       1  UNL1        0.1700
     32  C         23.4130  -23.2690   -9.7150 C.3     1  UNL1        0.1760
     33  C         22.3880  -22.7480   -8.7270 C.2     1  UNL1       -0.0180
     34  C         22.6150  -21.4980   -8.1190 C.2     1  UNL1        0.0120
     35  C         21.7120  -20.9760   -7.1890 C.2     1  UNL1        0.0240
     36  C         20.5740  -21.7010   -6.8510 C.2     1  UNL1        0.0350
     37 CL         19.4600  -21.0620   -5.7070 Cl      1  UNL1       -0.0840
     38  C         20.3300  -22.9430   -7.4300 C.2     1  UNL1        0.0480
     39  C         21.2340  -23.4650   -8.3610 C.2     1  UNL1        0.0430
     40 CL         20.8650  -25.0140   -9.0350 Cl      1  UNL1       -0.0840
@<TRIPOS>BOND
     1     9     8    1
     2     8    10    2
     3     8     7    1
     4    10    11    1
     5     7     6    2
     6    11     5    2
     7     6     5    1
     8     5     2    1
     9    12    13    1
    10    12     1    1
    11    18    19    1
    12    18    17    2
    13    14    13    2
    14    13    15   am
    15     2     3    2
    16     2     4    2
    17     2     1    1
    18    19    20    2
    19    15    16    1
    20    15    17    1
    21    17    22    1
    22     1    32    1
    23    20    21    1
    24    22    21    2
    25    32    33    1
    26    21    23    1
    27    40    39    1
    28    33    39    2
    29    33    34    1
    30    39    38    1
    31    34    35    2
    32    23    24    2
    33    23    30    1
    34    31    30    1
    35    24    25    1
    36    38    36    2
    37    30    28   am
    38    35    36    1
    39    36    37    1
    40    25    26    1
    41    25    27    2
    42    28    29    2
    43    28    27    1
