@<TRIPOS>MOLECULE
4277_out_ligand_01.pdbqt
 40 43 0 0 0
SMALL
GASTEIGER

@<TRIPOS>ATOM
      1  C         21.3220  -22.8070   -9.7940 C.2     1  UNL1        0.2560
      2  O         21.2780  -24.0310   -9.5270 O.2     1  UNL1       -0.2670
      3  N         20.4090  -21.8740   -9.2980 N.am    1  UNL1       -0.3160
      4  H         20.5440  -20.8740   -9.6530 H       1  UNL1        0.1690
      5  C         19.3250  -22.0910   -8.3870 C.ar    1  UNL1        0.0930
      6  S         19.6050  -22.1670   -6.6640 S.2     1  UNL1       -0.0730
      7  C         18.0310  -22.4510   -6.1540 C.ar    1  UNL1        0.0300
      8  C         17.2950  -22.4940   -7.2950 C.ar    1  UNL1       -0.0210
      9  C         17.4000  -22.6290   -4.7780 C.3     1  UNL1        0.1850
     10  C         17.9980  -22.3060   -8.4820 C.ar    1  UNL1        0.0730
     11  C         15.7970  -22.7260   -7.2230 C.3     1  UNL1        0.0810
     12  C         15.2830  -22.6060   -5.8740 C.3     1  UNL1        0.1550
     13  C         14.6630  -23.9460   -5.4620 C.3     1  UNL1        0.0490
     14  C         14.0390  -21.6680   -5.9460 C.3     1  UNL1        0.0490
     15  N         16.0730  -22.0570   -4.8270 N.3     1  UNL1        0.1060
     16  H         16.0680  -21.0350   -4.8670 H       1  UNL1        0.3180
     17  C         17.4630  -24.0540   -4.3690 C.3     1  UNL1        0.0540
     18  C         18.2340  -21.7950   -3.8350 C.3     1  UNL1        0.0540
     19  C         17.3610  -22.6150   -9.8050 C.2     1  UNL1        0.2520
     20  N         16.2180  -21.9360  -10.3010 N.am    1  UNL1       -0.3660
     21  H         15.2550  -22.2930  -10.1570 H       1  UNL1        0.1590
     22  H         16.3120  -21.0430  -10.8470 H       1  UNL1        0.1590
     23  O         17.8030  -23.5030  -10.5690 O.2     1  UNL1       -0.2680
     24  C         22.3990  -22.3030  -10.6860 C.2     1  UNL1        0.0320
     25  C         23.6530  -22.0200  -10.2430 C.2     1  UNL1        0.0180
     26  C         24.6480  -21.5280  -11.0960 C.2     1  UNL1        0.0260
     27  C         24.3200  -21.3340  -12.4260 C.2     1  UNL1        0.0790
     28  C         23.0540  -21.6180  -12.8860 C.2     1  UNL1        0.0260
     29  C         22.0870  -22.1060  -12.0130 C.2     1  UNL1        0.0180
     30  S         25.5890  -20.6990  -13.4860 S.O2    1  UNL1        0.2600
     31  O         25.1360  -19.4340  -14.1530 O.2     1  UNL1       -0.2000
     32  O         26.7550  -20.3660  -12.6100 O.2     1  UNL1       -0.2000
     33  N         26.0180  -21.9230  -14.5730 N.3     1  UNL1       -0.3060
     34  C         25.6980  -23.2480  -14.2250 C.3     1  UNL1        0.1390
     35  C         24.8610  -24.0360  -15.1620 C.3     1  UNL1        0.0010
     36  C         25.0000  -23.6520  -16.6050 C.3     1  UNL1        0.0110
     37  C         25.2730  -25.4990  -15.0270 C.3     1  UNL1        0.0110
     38  C         24.8670  -22.1240  -16.6480 C.3     1  UNL1        0.0010
     39  C         24.7090  -21.6400  -18.0620 C.3     1  UNL1        0.0110
     40  C         26.0740  -21.5760  -15.9430 C.3     1  UNL1        0.1390
@<TRIPOS>BOND
     1    39    38    1
     2    38    36    1
     3    38    40    1
     4    36    35    1
     5    40    33    1
     6    35    37    1
     7    35    34    1
     8    33    34    1
     9    33    30    1
    10    31    30    2
    11    30    32    2
    12    30    27    1
    13    28    27    2
    14    28    29    1
    15    27    26    1
    16    29    24    2
    17    26    25    2
    18    22    20    1
    19    24    25    1
    20    24     1    1
    21    23    19    2
    22    20    21    1
    23    20    19   am
    24    19    10    1
    25     1     2    2
    26     1     3   am
    27     4     3    1
    28     3     5    1
    29    10     5   ar
    30    10     8   ar
    31     5     6   ar
    32     8    11    1
    33     8     7   ar
    34    11    12    1
    35     6     7   ar
    36     7     9    1
    37    14    12    1
    38    12    13    1
    39    12    15    1
    40    16    15    1
    41    15     9    1
    42     9    17    1
    43     9    18    1
