@<TRIPOS>MOLECULE
43158_out_ligand_01.pdbqt
 32 35 0 0 0
SMALL
GASTEIGER

@<TRIPOS>ATOM
      1  N         23.6500  -22.1190  -11.7770 N.ar    1  UNL1       -0.1660
      2  C         24.2730  -21.9240  -10.5520 C.ar    1  UNL1        0.7260
      3  N         25.2250  -21.0120  -10.6530 N.ar    1  UNL1       -0.0420
      4  C         25.2510  -20.6660  -11.9640 C.ar    1  UNL1        0.1860
      5  C         24.3010  -21.3250  -12.6860 C.ar    1  UNL1        0.1670
      6  C         24.1350  -21.1230  -14.0840 C.ar    1  UNL1        0.2800
      7  O         23.3140  -21.6960  -14.7910 O.2     1  UNL1       -0.2650
      8  N         25.0180  -20.1970  -14.5930 N.ar    1  UNL1       -0.2730
      9  C         26.0030  -19.5100  -13.9060 C.ar    1  UNL1        0.3300
     10  O         26.7210  -18.7250  -14.5260 O.2     1  UNL1       -0.2460
     11  N         26.1110  -19.7570  -12.5430 N.ar    1  UNL1       -0.2860
     12  C         27.1200  -19.0860  -11.7450 C.3     1  UNL1        0.1630
     13  H         24.9600  -20.0100  -15.5810 H       1  UNL1        0.1730
     14  N         23.8800  -22.6120   -9.4400 N.pl3   1  UNL1       -0.1070
     15  H         24.6330  -22.8580   -8.7970 H       1  UNL1        0.2080
     16  N         22.7100  -22.3840   -8.7590 N.2     1  UNL1       -0.1720
     17  C         21.9070  -23.3960   -8.6520 C.2     1  UNL1        0.1500
     18  C         20.5990  -23.2850   -7.9750 C.2     1  UNL1       -0.0170
     19  C         20.3010  -22.1130   -7.2740 C.2     1  UNL1        0.0140
     20  C         19.0700  -21.9860   -6.6270 C.2     1  UNL1        0.0200
     21  C         18.1470  -23.0300   -6.6830 C.2     1  UNL1        0.0110
     22 BR         16.4810  -22.8550   -5.8050 Br      1  UNL1       -0.0510
     23  C         18.4410  -24.2010   -7.3800 C.2     1  UNL1        0.0200
     24  C         19.6700  -24.3310   -8.0280 C.2     1  UNL1        0.0140
     25  C         22.4470  -22.9030  -12.0210 C.3     1  UNL1        0.1860
     26  C         21.1840  -22.1100  -11.7890 C.2     1  UNL1       -0.0390
     27  C         21.1510  -20.7260  -12.0020 C.2     1  UNL1        0.0090
     28  C         19.9790  -20.0030  -11.7780 C.2     1  UNL1        0.0010
     29  C         18.8290  -20.6530  -11.3340 C.2     1  UNL1        0.0070
     30  C         18.8380  -22.0330  -11.1120 C.2     1  UNL1       -0.0610
     31  C         17.6120  -22.7250  -10.5920 C.3     1  UNL1        0.0480
     32  C         20.0230  -22.7510  -11.3230 C.2     1  UNL1        0.0150
@<TRIPOS>BOND
     1    13     8    1
     2     7     6    2
     3     8     6   ar
     4     8     9   ar
     5    10     9    2
     6     6     5   ar
     7     9    11   ar
     8     5     4   ar
     9     5     1   ar
    10    11     4   ar
    11    11    12    1
    12    25    26    1
    13    25     1    1
    14    27    26    2
    15    27    28    1
    16     4     3   ar
    17    26    32    1
    18    28    29    2
    19     1     2   ar
    20    29    30    1
    21    32    30    2
    22    30    31    1
    23     3     2   ar
    24     2    14    1
    25    14    15    1
    26    14    16    1
    27    16    17    2
    28    17    18    1
    29    24    18    2
    30    24    23    1
    31    18    19    1
    32    23    21    2
    33    19    20    2
    34    21    20    1
    35    21    22    1
