@<TRIPOS>MOLECULE
43185_out_ligand_01.pdbqt
 36 40 0 0 0
SMALL
GASTEIGER

@<TRIPOS>ATOM
      1  C         20.8680  -23.1980  -10.3820 C.ar    1  UNL1        0.1380
      2  N         22.0070  -23.0680  -11.0160 N.ar    1  UNL1       -0.2090
      3  C         22.0920  -22.1600  -12.0310 C.ar    1  UNL1        0.1810
      4  C         23.0920  -21.7470  -12.9000 C.ar    1  UNL1        0.1320
      5  N         22.6050  -20.7540  -13.7210 N.ar    1  UNL1       -0.1550
      6  N         21.3370  -20.5330  -13.4080 N.ar    1  UNL1        0.0120
      7  N         21.0250  -21.3680  -12.4010 N.ar    1  UNL1       -0.2170
      8  C         19.7710  -21.4500  -11.7930 C.ar    1  UNL1        0.0700
      9  C         18.6970  -20.6540  -12.1960 C.2     1  UNL1        0.0320
     10  C         17.4670  -20.8140  -11.5620 C.2     1  UNL1        0.0020
     11  C         17.3170  -21.7650  -10.5480 C.2     1  UNL1        0.0010
     12  C         18.4020  -22.5570  -10.1510 C.2     1  UNL1        0.0170
     13  C         19.6470  -22.3930  -10.7650 C.ar    1  UNL1        0.0380
     14  N         20.7750  -24.0890   -9.3290 N.pl3   1  UNL1       -0.3740
     15  H         19.9570  -24.6900   -9.3380 H       1  UNL1        0.1610
     16  C         21.1560  -23.7050   -7.9720 C.3     1  UNL1        0.1260
     17  C         20.4070  -22.4420   -7.5270 C.3     1  UNL1        0.0580
     18  C         19.1500  -22.7230   -6.7330 C.2     1  UNL1       -0.0570
     19  C         18.4880  -23.9530   -6.8540 C.2     1  UNL1        0.0090
     20  C         17.3390  -24.2160   -6.1060 C.2     1  UNL1        0.0250
     21  C         16.8440  -23.2390   -5.2390 C.2     1  UNL1        0.0740
     22  C         17.4950  -22.0110   -5.1000 C.2     1  UNL1        0.0250
     23  C         18.6430  -21.7550   -5.8490 C.2     1  UNL1        0.0090
     24  S         15.3900  -23.5820   -4.2850 S.O2    1  UNL1        0.2390
     25  O         15.7450  -24.4900   -3.2190 O.2     1  UNL1       -0.2060
     26  O         14.3000  -23.8380   -5.1950 O.2     1  UNL1       -0.2060
     27  N         15.1150  -22.0950   -3.5440 N.3     1  UNL1       -0.2250
     28  H         15.8710  -21.8060   -2.9250 H       1  UNL1        0.1360
     29  H         14.2150  -22.1250   -3.0620 H       1  UNL1        0.1360
     30  C         24.4660  -22.2250  -12.9820 C.2     1  UNL1       -0.0010
     31  C         25.2460  -22.0790  -14.1400 C.2     1  UNL1        0.0140
     32  C         26.5620  -22.5480  -14.1850 C.2     1  UNL1        0.0020
     33  C         27.1210  -23.1660  -13.0700 C.2     1  UNL1        0.0190
     34  C         26.3610  -23.3090  -11.9120 C.2     1  UNL1        0.0110
     35 BR         27.1190  -24.1410  -10.3920 Br      1  UNL1       -0.0510
     36  C         25.0460  -22.8430  -11.8630 C.2     1  UNL1        0.0330
@<TRIPOS>BOND
     1    32    31    1
     2    32    33    2
     3    31    30    2
     4     5     6   ar
     5     5     4   ar
     6     6     7   ar
     7    33    34    1
     8    30     4    1
     9    30    36    1
    10     4     3   ar
    11     7     3   ar
    12     7     8   ar
    13     9     8    2
    14     9    10    1
    15     3     2   ar
    16    34    36    2
    17    34    35    1
    18     8    13   ar
    19    10    11    2
    20     2     1   ar
    21    13     1   ar
    22    13    12    2
    23    11    12    1
    24     1    14    1
    25    15    14    1
    26    14    16    1
    27    16    17    1
    28    17    18    1
    29    19    18    2
    30    19    20    1
    31    18    23    1
    32    20    21    2
    33    23    22    2
    34    21    22    1
    35    21    24    1
    36    26    24    2
    37    24    27    1
    38    24    25    2
    39    27    29    1
    40    27    28    1
