@<TRIPOS>MOLECULE
43237_out_ligand_01.pdbqt
 42 46 0 0 0
SMALL
GASTEIGER

@<TRIPOS>ATOM
      1  C         21.0040  -23.9680   -9.2200 C.ar    1  UNL1        0.1530
      2  N         22.2760  -24.3290   -9.1870 N.ar    1  UNL1       -0.1320
      3  N         22.9590  -23.5980  -10.1170 N.ar    1  UNL1       -0.1220
      4  C         22.1010  -22.8090  -10.7140 C.ar    1  UNL1        0.1960
      5  N         20.8210  -22.9990  -10.2090 N.ar    1  UNL1       -0.2740
      6  S         22.5910  -21.5710  -11.8230 S.3     1  UNL1       -0.0800
      7  C         24.3940  -21.7920  -11.7330 C.3     1  UNL1        0.1850
      8  C         24.8810  -22.6170  -12.9170 C.2     1  UNL1        0.2340
      9  O         24.7630  -23.8510  -12.8730 O.2     1  UNL1       -0.2720
     10  N         25.2970  -21.9680  -14.0810 N.am    1  UNL1       -0.3170
     11  C         25.1780  -22.7250  -15.3310 C.3     1  UNL1        0.1320
     12  C         25.9080  -20.6750  -14.1900 C.2     1  UNL1        0.0430
     13  C         24.5340  -21.8730  -16.4120 C.3     1  UNL1        0.0250
     14  C         25.4190  -20.6760  -16.7010 C.3     1  UNL1        0.0420
     15  C         25.9390  -20.0230  -15.4430 C.2     1  UNL1       -0.0310
     16  C         26.5220  -18.7480  -15.5630 C.2     1  UNL1        0.0090
     17  C         27.0930  -18.1220  -14.4600 C.2     1  UNL1        0.0010
     18  C         27.1170  -18.7800  -13.2370 C.2     1  UNL1        0.0020
     19  C         26.5460  -20.0510  -13.1100 C.2     1  UNL1        0.0300
     20  C         19.6040  -22.3680  -10.6000 C.2     1  UNL1        0.0440
     21  C         19.6070  -21.3410  -11.5510 C.2     1  UNL1        0.0300
     22  C         18.4100  -20.7250  -11.9270 C.2     1  UNL1        0.0030
     23  C         17.2020  -21.1380  -11.3690 C.2     1  UNL1        0.0160
     24  C         17.1730  -22.1710  -10.4250 C.2     1  UNL1        0.0500
     25  C         18.3840  -22.7730  -10.0360 C.2     1  UNL1        0.0460
     26  C         15.8610  -22.6000   -9.8080 C.3     1  UNL1        0.4170
     27  F         15.6630  -23.9460   -9.8390 F       1  UNL1       -0.1660
     28  F         14.7800  -22.0470  -10.4250 F       1  UNL1       -0.1660
     29  F         15.7690  -22.2420   -8.4990 F       1  UNL1       -0.1660
     30  C         19.9310  -24.5680   -8.3810 C.3     1  UNL1        0.2040
     31  N         19.6370  -23.6950   -7.2720 N.am    1  UNL1       -0.3500
     32  C         18.3990  -23.6750   -6.6780 C.2     1  UNL1        0.2540
     33  O         17.4600  -24.3480   -7.0920 O.2     1  UNL1       -0.2680
     34  H         20.4000  -23.1770   -6.8390 H       1  UNL1        0.1630
     35  C         18.2250  -22.7610   -5.5090 C.2     1  UNL1        0.0650
     36  C         18.9580  -21.5610   -5.5410 C.2     1  UNL1        0.0200
     37  C         18.8770  -20.6500   -4.4900 C.2     1  UNL1        0.0010
     38  C         18.0560  -20.9260   -3.4000 C.2     1  UNL1        0.0030
     39  C         17.3140  -22.1100   -3.3590 C.2     1  UNL1        0.0380
     40  C         17.3790  -23.0320   -4.4130 C.2     1  UNL1        0.0840
     41  O         16.6660  -24.2050   -4.4290 O.2     1  UNL1       -0.3550
     42  C         15.2480  -24.1060   -4.2920 C.3     1  UNL1        0.2100
@<TRIPOS>BOND
     1    14    13    1
     2    14    15    1
     3    13    11    1
     4    16    15    1
     5    16    17    2
     6    15    12    2
     7    11    10    1
     8    17    18    1
     9    12    10    1
    10    12    19    1
    11    10     8   am
    12    18    19    2
    13     8     9    2
    14     8     7    1
    15    22    21    1
    16    22    23    2
    17     6     7    1
    18     6     4    1
    19    21    20    2
    20    23    24    1
    21     4     5   ar
    22     4     3   ar
    23    20     5    1
    24    20    25    1
    25    24    25    2
    26    24    26    1
    27    28    26    1
    28     5     1   ar
    29     3     2   ar
    30    27    26    1
    31    26    29    1
    32     1     2   ar
    33     1    30    1
    34    30    31    1
    35    31    34    1
    36    31    32   am
    37    33    32    2
    38    32    35    1
    39    36    35    2
    40    36    37    1
    41    35    40    1
    42    37    38    2
    43    41    40    1
    44    41    42    1
    45    40    39    2
    46    38    39    1
