@<TRIPOS>MOLECULE
43278_out_ligand_01.pdbqt
 41 44 0 0 0
SMALL
GASTEIGER

@<TRIPOS>ATOM
      1  C         21.3460  -22.8450   -9.1300 C.ar    1  UNL1        0.1960
      2  N         22.6270  -23.0730   -9.3230 N.ar    1  UNL1       -0.1220
      3  N         22.9190  -22.7590  -10.6170 N.ar    1  UNL1       -0.1320
      4  C         21.8070  -22.3600  -11.2130 C.ar    1  UNL1        0.1530
      5  N         20.7540  -22.4120  -10.3060 N.ar    1  UNL1       -0.2740
      6  S         20.5020  -23.1930   -7.6560 S.3     1  UNL1       -0.0800
      7  C         20.4870  -21.5680   -6.8550 C.3     1  UNL1        0.1850
      8  C         19.2800  -21.4140   -5.9390 C.2     1  UNL1        0.2310
      9  N         18.4390  -22.5140   -5.9600 N.am    1  UNL1       -0.3260
     10  H         18.8210  -23.3630   -6.3650 H       1  UNL1        0.1690
     11  O         19.1120  -20.3850   -5.2880 O.2     1  UNL1       -0.2720
     12  C         17.1420  -22.6380   -5.4030 C.2     1  UNL1        0.0410
     13  C         16.9730  -23.4620   -4.2660 C.2     1  UNL1       -0.0350
     14  C         15.6800  -23.6840   -3.7570 C.2     1  UNL1        0.0090
     15  C         18.1260  -24.1780   -3.6060 C.3     1  UNL1        0.0500
     16  C         14.5720  -23.0590   -4.3270 C.2     1  UNL1        0.0070
     17  C         14.7380  -22.1880   -5.4070 C.2     1  UNL1       -0.0600
     18  C         13.5650  -21.4810   -6.0160 C.3     1  UNL1        0.0480
     19  C         16.0200  -22.0050   -5.9530 C.2     1  UNL1        0.0370
     20  C         19.3950  -22.0790  -10.5420 C.2     1  UNL1        0.0440
     21  C         19.0730  -21.0120  -11.3910 C.2     1  UNL1        0.0300
     22  C         17.7370  -20.6780  -11.6120 C.2     1  UNL1        0.0030
     23  C         16.7190  -21.4000  -10.9890 C.2     1  UNL1        0.0160
     24  C         17.0250  -22.4780  -10.1430 C.2     1  UNL1        0.0500
     25  C         18.3740  -22.8130   -9.9230 C.2     1  UNL1        0.0460
     26  C         15.9300  -23.2650   -9.4600 C.3     1  UNL1        0.4170
     27  F         16.3900  -24.0070   -8.4150 F       1  UNL1       -0.1660
     28  F         14.9580  -22.4600   -8.9500 F       1  UNL1       -0.1660
     29  F         15.2960  -24.1400  -10.2870 F       1  UNL1       -0.1660
     30  C         21.7380  -21.7680  -12.5820 C.3     1  UNL1        0.2040
     31  N         23.0580  -21.7950  -13.1720 N.am    1  UNL1       -0.3500
     32  C         23.3780  -21.0110  -14.2590 C.2     1  UNL1        0.2550
     33  O         22.6310  -20.1310  -14.6770 O.2     1  UNL1       -0.2680
     34  H         23.6190  -22.6190  -12.9850 H       1  UNL1        0.1630
     35  C         24.6930  -21.2560  -14.9160 C.2     1  UNL1        0.0700
     36  C         24.9070  -22.4890  -15.5570 C.2     1  UNL1        0.0200
     37  C         26.1170  -22.7500  -16.2140 C.2     1  UNL1        0.0010
     38  C         27.1210  -21.7790  -16.2470 C.2     1  UNL1        0.0030
     39  C         26.9200  -20.5560  -15.6080 C.2     1  UNL1        0.0430
     40  C         25.7230  -20.3120  -14.9320 C.2     1  UNL1        0.1320
     41  F         25.5940  -19.1280  -14.3140 F       1  UNL1       -0.2050
@<TRIPOS>BOND
     1    38    37    2
     2    38    39    1
     3    37    36    1
     4    39    40    2
     5    36    35    2
     6    40    35    1
     7    40    41    1
     8    35    32    1
     9    33    32    2
    10    32    31   am
    11    31    34    1
    12    31    30    1
    13    30     4    1
    14    22    21    1
    15    22    23    2
    16    21    20    2
    17     4     3   ar
    18     4     5   ar
    19    23    24    1
    20     3     2   ar
    21    20     5    1
    22    20    25    1
    23     5     1   ar
    24    29    26    1
    25    24    25    2
    26    24    26    1
    27    26    28    1
    28    26    27    1
    29     2     1   ar
    30     1     6    1
    31     6     7    1
    32     7     8    1
    33    10     9    1
    34    18    17    1
    35     9     8   am
    36     9    12    1
    37    19    17    1
    38    19    12    2
    39     8    11    2
    40    17    16    2
    41    12    13    1
    42    16    14    1
    43    13    14    2
    44    13    15    1
