@<TRIPOS>MOLECULE
43399_out_ligand_01.pdbqt
 34 37 0 0 0
SMALL
GASTEIGER

@<TRIPOS>ATOM
      1  C         24.1990  -21.8550  -10.4320 C.ar    1  UNL1        0.7260
      2  N         25.1480  -20.9370  -10.5220 N.ar    1  UNL1       -0.0420
      3  C         25.2070  -20.6090  -11.8350 C.ar    1  UNL1        0.1860
      4  C         24.2780  -21.2820  -12.5740 C.ar    1  UNL1        0.1670
      5  C         24.1430  -21.0940  -13.9750 C.ar    1  UNL1        0.2800
      6  O         23.3460  -21.6820  -14.6970 O.2     1  UNL1       -0.2650
      7  N         25.0300  -20.1650  -14.4720 N.ar    1  UNL1       -0.2730
      8  C         25.9990  -19.4700  -13.7710 C.ar    1  UNL1        0.3300
      9  O         26.7320  -18.6930  -14.3820 O.2     1  UNL1       -0.2460
     10  N         26.0770  -19.7030  -12.4030 N.ar    1  UNL1       -0.2860
     11  C         27.0680  -19.0260  -11.5900 C.3     1  UNL1        0.1630
     12  N         23.6130  -22.0720  -11.6720 N.ar    1  UNL1       -0.1660
     13  H         24.9960  -19.9920  -15.4640 H       1  UNL1        0.1730
     14  N         23.7810  -22.5280   -9.3210 N.pl3   1  UNL1       -0.1070
     15  H         24.5300  -22.8900   -8.7300 H       1  UNL1        0.2080
     16  N         22.6860  -22.1840   -8.5660 N.2     1  UNL1       -0.1720
     17  C         21.7820  -23.1030   -8.4200 C.2     1  UNL1        0.1500
     18  C         20.5370  -22.8580   -7.6640 C.2     1  UNL1       -0.0170
     19  C         20.4160  -21.6740   -6.9330 C.2     1  UNL1        0.0150
     20  C         19.2470  -21.4160   -6.2060 C.2     1  UNL1        0.0370
     21  C         18.2010  -22.3400   -6.2100 C.2     1  UNL1        0.0680
     22  C         18.3330  -23.5230   -6.9430 C.2     1  UNL1        0.0370
     23  C         19.4960  -23.7860   -7.6700 C.2     1  UNL1        0.0150
     24  O         17.0110  -22.2110   -5.5460 O.2     1  UNL1       -0.3520
     25  C         15.9320  -23.0410   -5.9760 C.3     1  UNL1        0.1710
     26  C         14.6370  -22.2860   -5.7360 C.3     1  UNL1        0.0340
     27  C         22.4280  -22.8770  -11.9380 C.3     1  UNL1        0.1860
     28  C         21.1470  -22.1150  -11.7040 C.2     1  UNL1       -0.0390
     29  C         21.0700  -20.7500  -12.0190 C.2     1  UNL1        0.0090
     30  C         19.8860  -20.0420  -11.8060 C.2     1  UNL1        0.0010
     31  C         18.7660  -20.6890  -11.2870 C.2     1  UNL1        0.0070
     32  C         18.8190  -22.0500  -10.9710 C.2     1  UNL1       -0.0610
     33  C         17.6000  -22.7600  -10.4560 C.3     1  UNL1        0.0480
     34  C         20.0060  -22.7580  -11.1980 C.2     1  UNL1        0.0150
@<TRIPOS>BOND
     1    13     7    1
     2     6     5    2
     3     7     5   ar
     4     7     8   ar
     5     9     8    2
     6     5     4   ar
     7     8    10   ar
     8     4     3   ar
     9     4    12   ar
    10    10     3   ar
    11    10    11    1
    12    29    30    1
    13    29    28    2
    14    27    28    1
    15    27    12    1
    16     3     2   ar
    17    30    31    2
    18    28    34    1
    19    12     1   ar
    20    31    32    1
    21    34    32    2
    22    32    33    1
    23     2     1   ar
    24     1    14    1
    25    14    15    1
    26    14    16    1
    27    16    17    2
    28    17    18    1
    29    23    18    2
    30    23    22    1
    31    18    19    1
    32    22    21    2
    33    19    20    2
    34    21    20    1
    35    21    24    1
    36    25    26    1
    37    25    24    1
