@<TRIPOS>MOLECULE
43390_out_ligand_01.pdbqt
 37 40 0 0 0
SMALL
GASTEIGER

@<TRIPOS>ATOM
      1  N         22.0280  -22.1870  -10.7330 N.ar    1  UNL1       -0.2570
      2  C         21.1350  -21.5480  -11.5760 C.ar    1  UNL1        0.2640
      3  O         21.4870  -20.9350  -12.5850 O.2     1  UNL1       -0.2670
      4  C         19.7070  -21.6560  -11.2450 C.ar    1  UNL1        0.0590
      5  C         18.7700  -20.9210  -11.9910 C.2     1  UNL1        0.0190
      6  C         17.4210  -20.9910  -11.6680 C.2     1  UNL1        0.0010
      7  C         17.0130  -21.7810  -10.5980 C.2     1  UNL1        0.0020
      8  C         17.9510  -22.5120   -9.8610 C.2     1  UNL1        0.0310
      9  C         19.3150  -22.4740  -10.1860 C.ar    1  UNL1        0.0550
     10  N         20.3000  -23.2330   -9.4970 N.ar    1  UNL1       -0.2900
     11  C         21.6610  -23.0800   -9.7420 C.ar    1  UNL1        0.3330
     12  O         22.4970  -23.6980   -9.0750 O.2     1  UNL1       -0.2460
     13  C         23.4540  -21.9390  -10.9300 C.3     1  UNL1        0.2390
     14  C         23.9800  -22.4750  -12.2620 C.2     1  UNL1        0.2360
     15  O         24.2090  -23.6690  -12.4360 O.2     1  UNL1       -0.2720
     16  N         24.3000  -21.5090  -13.1880 N.am    1  UNL1       -0.3550
     17  H         24.2290  -20.5300  -12.9150 H       1  UNL1        0.1620
     18  C         24.9440  -21.8110  -14.4500 C.3     1  UNL1        0.1620
     19  C         25.4680  -20.5770  -15.1530 C.2     1  UNL1       -0.0190
     20  C         25.9580  -19.4840  -14.4120 C.2     1  UNL1        0.0120
     21  C         26.4440  -18.3380  -15.0510 C.2     1  UNL1        0.0240
     22  C         26.4670  -18.2770  -16.4410 C.2     1  UNL1        0.0350
     23 CL         27.0450  -16.8610  -17.2250 Cl      1  UNL1       -0.0840
     24  C         26.0270  -19.3590  -17.1970 C.2     1  UNL1        0.0480
     25  C         25.5410  -20.5050  -16.5580 C.2     1  UNL1        0.0430
     26 CL         25.0450  -21.8200  -17.5660 Cl      1  UNL1       -0.0840
     27  C         19.9330  -24.1480   -8.4140 C.3     1  UNL1        0.2370
     28  C         19.2370  -23.3670   -7.2950 C.2     1  UNL1        0.2400
     29  O         19.7620  -22.3670   -6.8050 O.2     1  UNL1       -0.2710
     30  N         18.0590  -23.9700   -6.8900 N.am    1  UNL1       -0.3260
     31  H         17.8660  -24.8850   -7.2980 H       1  UNL1        0.1690
     32  C         17.1750  -23.5520   -5.8790 C.2     1  UNL1        0.0340
     33  C         17.4080  -23.7270   -4.5150 C.2     1  UNL1        0.0290
     34  C         16.4700  -23.2820   -3.5760 C.2     1  UNL1        0.0020
     35  C         15.2980  -22.6540   -3.9950 C.2     1  UNL1        0.0000
     36  C         15.0580  -22.4690   -5.3540 C.2     1  UNL1        0.0020
     37  C         15.9900  -22.9200   -6.2930 C.2     1  UNL1        0.0290
@<TRIPOS>BOND
     1    26    25    1
     2    23    22    1
     3    24    25    1
     4    24    22    2
     5    25    19    2
     6    22    21    1
     7    19    18    1
     8    19    20    1
     9    21    20    2
    10    18    16    1
    11    16    17    1
    12    16    14   am
    13     3     2    2
    14    15    14    2
    15    14    13    1
    16     5     6    1
    17     5     4    2
    18     6     7    2
    19     2     4   ar
    20     2     1   ar
    21     4     9   ar
    22    13     1    1
    23     1    11   ar
    24     7     8    1
    25     9     8    2
    26     9    10   ar
    27    11    10   ar
    28    11    12    2
    29    10    27    1
    30    27    28    1
    31    31    30    1
    32    28    30   am
    33    28    29    2
    34    30    32    1
    35    37    32    2
    36    37    36    1
    37    32    33    1
    38    36    35    2
    39    33    34    2
    40    35    34    1
