@<TRIPOS>MOLECULE
43433_out_ligand_01.pdbqt
 32 35 0 0 0
SMALL
GASTEIGER

@<TRIPOS>ATOM
      1  C         24.1530  -21.7940  -10.4550 C.ar    1  UNL1        0.7260
      2  N         25.1910  -20.9960  -10.6400 N.ar    1  UNL1       -0.0420
      3  C         25.1440  -20.6360  -11.9460 C.ar    1  UNL1        0.1860
      4  C         24.0920  -21.2100  -12.5950 C.ar    1  UNL1        0.1670
      5  C         23.8230  -20.9660  -13.9690 C.ar    1  UNL1        0.2800
      6  O         22.8670  -21.4110  -14.5940 O.2     1  UNL1       -0.2650
      7  N         24.7560  -20.1360  -14.5500 N.ar    1  UNL1       -0.2730
      8  C         25.8290  -19.5180  -13.9350 C.ar    1  UNL1        0.3300
      9  O         26.5440  -18.7700  -14.6000 O.2     1  UNL1       -0.2460
     10  N         26.0240  -19.7880  -12.5850 N.ar    1  UNL1       -0.2860
     11  C         27.1210  -19.1800  -11.8580 C.3     1  UNL1        0.1630
     12  N         23.4730  -21.9910  -11.6500 N.ar    1  UNL1       -0.1660
     13  H         24.6200  -19.9150  -15.5240 H       1  UNL1        0.1730
     14  N         23.7590  -22.3930   -9.2930 N.pl3   1  UNL1       -0.1070
     15  H         23.9670  -23.3830   -9.1930 H       1  UNL1        0.2080
     16  N         22.6430  -22.0500   -8.5740 N.2     1  UNL1       -0.1720
     17  C         21.7730  -22.9940   -8.3800 C.2     1  UNL1        0.1500
     18  C         20.5430  -22.7730   -7.5960 C.2     1  UNL1       -0.0170
     19  C         19.5470  -23.7530   -7.6190 C.2     1  UNL1        0.0130
     20  C         18.3720  -23.5660   -6.8850 C.2     1  UNL1        0.0070
     21  C         18.1810  -22.3990   -6.1350 C.2     1  UNL1       -0.0620
     22  C         16.9340  -22.2170   -5.3210 C.3     1  UNL1        0.0480
     23  C         19.1930  -21.4300   -6.1070 C.2     1  UNL1        0.0070
     24  C         20.3690  -21.6130   -6.8380 C.2     1  UNL1        0.0130
     25  C         22.3350  -22.8640  -11.8870 C.3     1  UNL1        0.1860
     26  C         21.0230  -22.1550  -11.6480 C.2     1  UNL1       -0.0380
     27  C         20.8710  -20.7910  -11.9460 C.2     1  UNL1        0.0090
     28  C         19.6550  -20.1420  -11.7180 C.2     1  UNL1        0.0020
     29  C         18.5740  -20.8470  -11.1920 C.2     1  UNL1        0.0240
     30  C         18.7140  -22.2000  -10.8940 C.2     1  UNL1        0.0340
     31 CL         17.3800  -23.0710  -10.2440 Cl      1  UNL1       -0.0840
     32  C         19.9250  -22.8540  -11.1200 C.2     1  UNL1        0.0320
@<TRIPOS>BOND
     1    13     7    1
     2     9     8    2
     3     6     5    2
     4     7     5   ar
     5     7     8   ar
     6     5     4   ar
     7     8    10   ar
     8     4     3   ar
     9     4    12   ar
    10    10     3   ar
    11    10    11    1
    12    27    28    1
    13    27    26    2
    14     3     2   ar
    15    25    12    1
    16    25    26    1
    17    28    29    2
    18    12     1   ar
    19    26    32    1
    20    29    30    1
    21    32    30    2
    22    30    31    1
    23     2     1   ar
    24     1    14    1
    25    14    15    1
    26    14    16    1
    27    16    17    2
    28    17    18    1
    29    19    18    2
    30    19    20    1
    31    18    24    1
    32    20    21    2
    33    24    23    2
    34    21    23    1
    35    21    22    1
