@<TRIPOS>MOLECULE
43747_out_ligand_01.pdbqt
 40 43 0 0 0
SMALL
GASTEIGER

@<TRIPOS>ATOM
      1  C         21.4980  -23.0230   -9.5520 C.ar    1  UNL1        0.1960
      2  N         22.7290  -23.3500   -9.8670 N.ar    1  UNL1       -0.1220
      3  N         22.9420  -22.9830  -11.1650 N.ar    1  UNL1       -0.1320
      4  C         21.8400  -22.4260  -11.6280 C.ar    1  UNL1        0.1530
      5  N         20.8520  -22.4870  -10.6510 N.ar    1  UNL1       -0.2740
      6  S         20.7610  -23.3930   -8.0240 S.3     1  UNL1       -0.0800
      7  C         20.7850  -21.7670   -7.2190 C.3     1  UNL1        0.1850
      8  C         19.6460  -21.6220   -6.2140 C.2     1  UNL1        0.2310
      9  N         18.7530  -22.6780   -6.2430 N.am    1  UNL1       -0.3270
     10  H         19.0540  -23.5140   -6.7480 H       1  UNL1        0.1690
     11  O         19.5730  -20.6310   -5.4930 O.2     1  UNL1       -0.2720
     12  C         17.5290  -22.7930   -5.5620 C.2     1  UNL1        0.0350
     13  C         17.5130  -23.5800   -4.4040 C.2     1  UNL1        0.0290
     14  C         16.3330  -23.7530   -3.6760 C.2     1  UNL1        0.0030
     15  C         15.1490  -23.1510   -4.1100 C.2     1  UNL1        0.0070
     16  C         15.1420  -22.3780   -5.2760 C.2     1  UNL1       -0.0600
     17  C         13.8690  -21.7200   -5.7270 C.3     1  UNL1        0.0480
     18  C         16.3420  -22.1930   -5.9920 C.2     1  UNL1        0.0360
     19  C         19.4860  -22.1380  -10.7830 C.2     1  UNL1        0.0440
     20  C         19.1290  -21.0300  -11.5660 C.2     1  UNL1        0.0300
     21  C         17.7880  -20.6540  -11.6660 C.2     1  UNL1        0.0030
     22  C         16.8080  -21.3780  -10.9850 C.2     1  UNL1        0.0160
     23  C         17.1530  -22.4950  -10.2010 C.2     1  UNL1        0.0500
     24  C         18.5030  -22.8750  -10.1100 C.2     1  UNL1        0.0460
     25  C         16.0720  -23.2530   -9.4680 C.3     1  UNL1        0.4170
     26  F         16.5830  -24.0630   -8.5000 F       1  UNL1       -0.1660
     27  F         15.1940  -22.4240   -8.8390 F       1  UNL1       -0.1660
     28  F         15.3240  -24.0540  -10.2730 F       1  UNL1       -0.1660
     29  C         21.7420  -21.7770  -12.9730 C.3     1  UNL1        0.2040
     30  N         22.8980  -20.9800  -13.3180 N.am    1  UNL1       -0.3500
     31  C         23.7050  -21.2870  -14.3890 C.2     1  UNL1        0.2520
     32  O         23.5080  -22.2410  -15.1230 O.2     1  UNL1       -0.2680
     33  H         23.2030  -20.2780  -12.6610 H       1  UNL1        0.1630
     34  C         24.8960  -20.4130  -14.5920 C.2     1  UNL1        0.0350
     35  C         25.6700  -19.9530  -13.5130 C.2     1  UNL1        0.0170
     36  C         26.7840  -19.1380  -13.7420 C.2     1  UNL1        0.0040
     37  C         27.1210  -18.7740  -15.0440 C.2     1  UNL1        0.0420
     38  C         26.3400  -19.2200  -16.1070 C.2     1  UNL1        0.1170
     39  F         26.6620  -18.8520  -17.3530 F       1  UNL1       -0.2060
     40  C         25.2310  -20.0330  -15.8970 C.2     1  UNL1        0.0590
@<TRIPOS>BOND
     1    39    38    1
     2    38    40    1
     3    38    37    2
     4    40    34    2
     5    32    31    2
     6    37    36    1
     7    34    31    1
     8    34    35    1
     9    31    30   am
    10    36    35    2
    11    30    29    1
    12    30    33    1
    13    29     4    1
    14    21    20    1
    15    21    22    2
    16     4     3   ar
    17     4     5   ar
    18    20    19    2
    19     3     2   ar
    20    22    23    1
    21    19     5    1
    22    19    24    1
    23     5     1   ar
    24    28    25    1
    25    23    24    2
    26    23    25    1
    27     2     1   ar
    28     1     6    1
    29    25    27    1
    30    25    26    1
    31     6     7    1
    32     7     8    1
    33    10     9    1
    34     9     8   am
    35     9    12    1
    36     8    11    2
    37    18    12    2
    38    18    16    1
    39    17    16    1
    40    12    13    1
    41    16    15    2
    42    13    14    2
    43    15    14    1
