@<TRIPOS>MOLECULE
44150_out_ligand_01.pdbqt
 43 46 0 0 0
SMALL
GASTEIGER

@<TRIPOS>ATOM
      1  C         22.2830  -22.4570  -10.5400 C.ar    1  UNL1        0.1000
      2  N         22.5570  -23.4180   -9.6310 N.ar    1  UNL1       -0.1470
      3  N         21.5490  -24.0250   -8.9380 N.ar    1  UNL1       -0.1310
      4  C         20.2610  -23.6790   -9.1390 C.ar    1  UNL1        0.1610
      5  C         19.9200  -22.6770  -10.0780 C.ar    1  UNL1        0.0240
      6  C         18.5850  -22.2610  -10.3150 C.2     1  UNL1        0.0160
      7  C         18.2720  -21.2950  -11.2720 C.2     1  UNL1        0.0010
      8  C         19.2840  -20.7200  -12.0210 C.2     1  UNL1        0.0010
      9  C         20.6090  -21.0980  -11.7990 C.2     1  UNL1        0.0150
     10  C         20.9600  -22.0610  -10.8180 C.ar    1  UNL1        0.0090
     11  C         23.4900  -21.9000  -11.1770 C.2     1  UNL1       -0.0030
     12  C         23.6090  -21.7860  -12.5690 C.2     1  UNL1        0.0390
     13  C         24.7600  -21.2330  -13.1660 C.2     1  UNL1        0.0860
     14  C         25.8170  -20.7560  -12.3710 C.2     1  UNL1       -0.0390
     15  C         25.6900  -20.8640  -10.9770 C.2     1  UNL1        0.0090
     16  C         27.0760  -20.1460  -12.9160 C.3     1  UNL1        0.0500
     17  C         24.5480  -21.4210  -10.3930 C.2     1  UNL1        0.0140
     18  S         24.7860  -21.2300  -14.9520 S.O2    1  UNL1        0.2590
     19  O         23.6470  -21.9440  -15.4810 O.2     1  UNL1       -0.2010
     20  O         25.0710  -19.8750  -15.3710 O.2     1  UNL1       -0.2010
     21  N         26.1540  -22.1220  -15.2770 N.3     1  UNL1       -0.3060
     22  H         27.0320  -21.5950  -15.2760 H       1  UNL1        0.1720
     23  C         26.0760  -23.3010  -16.1480 C.3     1  UNL1        0.2430
     24  C         25.8730  -24.5450  -15.3050 C.2     1  UNL1        0.2770
     25  O         25.0280  -25.4030  -15.5340 O.2     1  UNL1       -0.2630
     26  O         26.7550  -24.5580  -14.2660 O.3     1  UNL1       -0.3210
     27  C         26.1750  -24.6030  -12.9530 C.3     1  UNL1        0.1740
     28  C         27.1200  -23.9810  -11.9400 C.3     1  UNL1        0.0340
     29  N         19.2260  -24.3580   -8.4340 N.pl3   1  UNL1       -0.3390
     30  H         19.5060  -25.3290   -8.3320 H       1  UNL1        0.1670
     31  C         18.5200  -23.8970   -7.3010 C.2     1  UNL1        0.0340
     32  C         17.3040  -24.4960   -6.9640 C.2     1  UNL1        0.0320
     33  C         16.5480  -24.0420   -5.8770 C.2     1  UNL1        0.0400
     34  C         16.9760  -22.9510   -5.1100 C.2     1  UNL1        0.0840
     35  C         18.1750  -22.3020   -5.4670 C.2     1  UNL1        0.0670
     36  C         18.9250  -22.7810   -6.5610 C.2     1  UNL1        0.0490
     37  O         16.2730  -22.4710   -4.0320 O.2     1  UNL1       -0.3550
     38  C         14.8880  -22.1850   -4.2100 C.3     1  UNL1        0.2100
     39  C         18.7340  -21.0980   -4.7670 C.2     1  UNL1        0.2520
     40  N         18.5220  -20.9680   -3.4250 N.am    1  UNL1       -0.3660
     41  H         18.8990  -20.1570   -2.9550 H       1  UNL1        0.1590
     42  H         18.0010  -21.6610   -2.9020 H       1  UNL1        0.1590
     43  O         19.3660  -20.2320   -5.3640 O.2     1  UNL1       -0.2680
@<TRIPOS>BOND
     1    23    24    1
     2    23    21    1
     3    25    24    2
     4    19    18    2
     5    20    18    2
     6    24    26    1
     7    21    22    1
     8    21    18    1
     9    18    13    1
    10    26    27    1
    11    13    12    1
    12    13    14    2
    13    27    28    1
    14    16    14    1
    15    12    11    2
    16    14    15    1
    17     8     9    2
    18     8     7    1
    19     9    10    1
    20     7     6    2
    21    11     1    1
    22    11    17    1
    23    15    17    2
    24    10     1   ar
    25    10     5   ar
    26     1     2   ar
    27     6     5    1
    28     5     4   ar
    29     2     3   ar
    30     4     3   ar
    31     4    29    1
    32    29    30    1
    33    29    31    1
    34    31    32    2
    35    31    36    1
    36    32    33    1
    37    36    35    2
    38    33    34    2
    39    35    34    1
    40    35    39    1
    41    43    39    2
    42    34    37    1
    43    39    40   am
    44    38    37    1
    45    40    41    1
    46    40    42    1
