@<TRIPOS>MOLECULE
44376_out_ligand_01.pdbqt
 41 45 0 0 0
SMALL
GASTEIGER

@<TRIPOS>ATOM
      1  C         25.0380  -20.9050  -12.9600 C.2     1  UNL1        0.0320
      2  C         25.3910  -20.9070  -11.6050 C.2     1  UNL1        0.0180
      3  C         24.6060  -21.5910  -10.6750 C.2     1  UNL1        0.0120
      4  C         23.4540  -22.2660  -11.0900 C.2     1  UNL1       -0.0330
      5  C         23.0910  -22.2530  -12.4420 C.2     1  UNL1        0.0120
      6  C         23.8800  -21.5740  -13.3760 C.2     1  UNL1        0.0180
      7  C         22.6240  -22.9590  -10.1030 C.2     1  UNL1        0.0540
      8  C         21.2920  -22.7970  -10.0210 C.2     1  UNL1        0.1450
      9  O         20.6290  -21.9630  -10.9010 O.2     1  UNL1       -0.3030
     10  C         20.5660  -23.5330   -8.9350 C.2     1  UNL1        0.2820
     11  C         19.2780  -21.8090  -10.7600 C.2     1  UNL1        0.1030
     12  C         18.6710  -20.9530  -11.6850 C.2     1  UNL1        0.0390
     13  C         18.5340  -22.4510   -9.7670 C.2     1  UNL1        0.0710
     14  C         17.3010  -20.7260  -11.6320 C.2     1  UNL1        0.0030
     15  C         16.5410  -21.3540  -10.6510 C.2     1  UNL1        0.0020
     16  C         17.1520  -22.2110   -9.7270 C.2     1  UNL1        0.0330
     17  N         19.1970  -23.3160   -8.8500 N.am    1  UNL1       -0.3050
     18  O         21.1790  -24.2720   -8.1630 O.2     1  UNL1       -0.2650
     19  C         18.4640  -23.9900   -7.7750 C.3     1  UNL1        0.1740
     20  C         18.2930  -23.1460   -6.5340 C.2     1  UNL1       -0.0010
     21  C         19.0250  -21.9650   -6.3430 C.2     1  UNL1        0.0120
     22  C         18.8650  -21.2080   -5.1780 C.2     1  UNL1        0.0010
     23  C         17.9810  -21.6260   -4.1850 C.2     1  UNL1        0.0030
     24  C         17.2590  -22.8050   -4.3540 C.2     1  UNL1        0.0430
     25  C         17.4240  -23.5530   -5.5170 C.2     1  UNL1        0.1240
     26  F         16.7210  -24.6890   -5.6510 F       1  UNL1       -0.2050
     27  C         25.9020  -20.1520  -13.9110 C.2     1  UNL1        0.2510
     28  N         25.2500  -19.4290  -14.8860 N.am    1  UNL1       -0.3570
     29  H         24.2560  -19.5570  -15.0150 H       1  UNL1        0.1620
     30  O         27.1210  -20.2260  -13.8110 O.2     1  UNL1       -0.2680
     31  C         25.9700  -18.7180  -15.9300 C.3     1  UNL1        0.1240
     32  C         25.8160  -19.4300  -17.2720 C.3     1  UNL1        0.0500
     33  C         24.9550  -20.6970  -17.1660 C.3     1  UNL1        0.2740
     34  N         25.7320  -21.9390  -17.3020 N.3     1  UNL1        0.0880
     35  C         27.1080  -21.6680  -17.7320 C.3     1  UNL1        0.3100
     36  C         25.7080  -22.8160  -16.1080 C.3     1  UNL1        0.2220
     37  C         24.8650  -24.1040  -16.2510 C.3     1  UNL1        0.0360
     38  C         25.2270  -25.1850  -15.2270 C.3     1  UNL1        0.0020
     39  C         25.8010  -24.6000  -13.9460 C.3     1  UNL1        0.0000
     40  C         27.0780  -23.8000  -14.2080 C.3     1  UNL1        0.0020
     41  C         27.1210  -23.1440  -15.5940 C.3     1  UNL1        0.0360
@<TRIPOS>BOND
     1    35    34    1
     2    34    33    1
     3    34    36    1
     4    32    33    1
     5    32    31    1
     6    37    36    1
     7    37    38    1
     8    36    41    1
     9    31    28    1
    10    41    40    1
    11    38    39    1
    12    29    28    1
    13    28    27   am
    14    40    39    1
    15    27    30    2
    16    27     1    1
    17     6     1    2
    18     6     5    1
    19     1     2    1
    20     5     4    2
    21    12    14    1
    22    12    11    2
    23    14    15    2
    24     2     3    2
    25     4     3    1
    26     4     7    1
    27     9    11    1
    28     9     8    1
    29    11    13    1
    30    15    16    1
    31     7     8    2
    32     8    10    1
    33    13    16    2
    34    13    17    1
    35    10    17   am
    36    10    18    2
    37    17    19    1
    38    19    20    1
    39    20    21    2
    40    20    25    1
    41    21    22    1
    42    26    25    1
    43    25    24    2
    44    22    23    2
    45    24    23    1
