@<TRIPOS>MOLECULE
44500_out_ligand_01.pdbqt
 30 33 0 0 0
SMALL
GASTEIGER

@<TRIPOS>ATOM
      1  C         17.2150  -21.8220  -10.7380 C.ar    1  UNL1        0.1580
      2  N         17.0460  -20.8150  -11.6020 N.ar    1  UNL1       -0.1110
      3  O         18.3200  -20.6490  -12.1470 O.2     1  UNL1       -0.1890
      4  C         19.1360  -21.5700  -11.5440 C.ar    1  UNL1        0.2230
      5  C         20.5230  -21.7150  -11.8300 C.2     1  UNL1        0.0890
      6  C         21.3340  -21.0380  -12.7170 C.2     1  UNL1        0.0480
      7  C         22.6470  -21.5780  -12.6070 C.2     1  UNL1       -0.0070
      8  C         23.8740  -21.3030  -13.2410 C.2     1  UNL1        0.0200
      9  C         25.0210  -22.0350  -12.8880 C.2     1  UNL1       -0.0610
     10  C         26.3240  -21.7690  -13.5840 C.3     1  UNL1        0.0480
     11  C         24.9280  -23.0480  -11.9270 C.2     1  UNL1        0.0090
     12  C         23.7200  -23.3390  -11.2840 C.2     1  UNL1        0.0310
     13  C         22.5980  -22.5850  -11.6440 C.2     1  UNL1        0.0430
     14  N         21.3010  -22.6470  -11.1900 N.pl3   1  UNL1       -0.3520
     15  N         18.4950  -22.3120  -10.6630 N.ar    1  UNL1       -0.2030
     16  H         20.9600  -23.2840  -10.4840 H       1  UNL1        0.1660
     17  C         16.1110  -22.3480   -9.8980 C.3     1  UNL1        0.1030
     18  C         16.4250  -22.3300   -8.4000 C.3     1  UNL1        0.1330
     19  N         16.7110  -23.6530   -7.8190 N.am    1  UNL1       -0.3520
     20  C         17.6940  -23.8910   -6.8550 C.2     1  UNL1        0.2540
     21  O         17.7900  -24.9330   -6.2130 O.2     1  UNL1       -0.2670
     22  C         15.7240  -24.7010   -8.0300 C.3     1  UNL1        0.1520
     23  C         18.6830  -22.8280   -6.5800 C.2     1  UNL1        0.0380
     24  C         18.4550  -21.8600   -5.5880 C.2     1  UNL1       -0.0460
     25  C         19.4430  -20.8910   -5.3700 C.2     1  UNL1        0.0080
     26  C         17.1960  -21.8510   -4.7680 C.3     1  UNL1        0.0490
     27  C         20.6110  -20.8760   -6.1390 C.2     1  UNL1        0.0070
     28  C         20.8220  -21.8310   -7.1400 C.2     1  UNL1       -0.0610
     29  C         22.0500  -21.7750   -8.0010 C.3     1  UNL1        0.0480
     30  C         19.8400  -22.8000   -7.3700 C.2     1  UNL1        0.0240
@<TRIPOS>BOND
     1    10     9    1
     2     8     9    1
     3     8     7    2
     4     9    11    2
     5     6     7    1
     6     6     5    2
     7     7    13    1
     8     3     2   ar
     9     3     4   ar
    10    11    12    1
    11     5     4    1
    12     5    14    1
    13    13    12    2
    14    13    14    1
    15     2     1   ar
    16     4    15   ar
    17    14    16    1
    18     1    15   ar
    19     1    17    1
    20    17    18    1
    21    18    19    1
    22    22    19    1
    23    29    28    1
    24    19    20   am
    25    30    28    1
    26    30    23    2
    27    28    27    2
    28    20    23    1
    29    20    21    2
    30    23    24    1
    31    27    25    1
    32    24    25    2
    33    24    26    1
