@<TRIPOS>MOLECULE
44510_out_ligand_01.pdbqt
 35 38 0 0 0
SMALL
GASTEIGER

@<TRIPOS>ATOM
      1  C         23.6760  -22.0740  -10.6060 C.ar    1  UNL1        0.1710
      2  N         22.7620  -21.3600  -11.1680 N.ar    1  UNL1       -0.2060
      3  C         21.4780  -21.7870  -11.0030 C.ar    1  UNL1        0.1450
      4  C         21.1010  -22.8610  -10.3020 C.ar    1  UNL1        0.0700
      5  C         22.1720  -23.6780   -9.7010 C.ar    1  UNL1        0.2580
      6  O         21.9420  -24.7170   -9.0990 O.2     1  UNL1       -0.2670
      7  N         23.4310  -23.1950   -9.8800 N.ar    1  UNL1       -0.3020
      8  C         19.6670  -23.2310  -10.1010 C.3     1  UNL1        0.1290
      9  C         18.7270  -22.6020  -11.1310 C.3     1  UNL1        0.1220
     10  C         19.1920  -21.2570  -11.6450 C.2     1  UNL1        0.2240
     11  O         18.4200  -20.4460  -12.1480 O.2     1  UNL1       -0.2730
     12  N         20.5320  -20.9960  -11.5790 N.am    1  UNL1       -0.3110
     13  H         24.2000  -23.7160   -9.4870 H       1  UNL1        0.1710
     14  H         20.8510  -20.1480  -12.0330 H       1  UNL1        0.1700
     15  C         19.2180  -22.8800   -8.6740 C.2     1  UNL1        0.2310
     16  O         19.9450  -22.1950   -7.9600 O.2     1  UNL1       -0.2720
     17  N         17.9990  -23.4280   -8.3020 N.am    1  UNL1       -0.3270
     18  H         17.5200  -24.0150   -8.9720 H       1  UNL1        0.1690
     19  C         17.3270  -23.2770   -7.0700 C.2     1  UNL1        0.0350
     20  C         17.9710  -23.7700   -5.9320 C.2     1  UNL1        0.0300
     21  C         17.3740  -23.6650   -4.6730 C.2     1  UNL1        0.0090
     22  C         16.1190  -23.0650   -4.5230 C.2     1  UNL1       -0.0560
     23  C         15.5040  -22.9670   -3.1530 C.3     1  UNL1        0.0490
     24  C         15.4580  -22.5680   -5.6630 C.2     1  UNL1       -0.0540
     25  C         14.1070  -21.9130   -5.5630 C.3     1  UNL1        0.0490
     26  C         16.0740  -22.6800   -6.9250 C.2     1  UNL1        0.0370
     27  S         25.3680  -21.7120  -10.6930 S.3     1  UNL1       -0.0870
     28  C         25.8640  -22.7900  -12.0660 C.3     1  UNL1        0.1210
     29  C         25.4970  -22.1860  -13.3980 C.2     1  UNL1       -0.0480
     30  C         25.5870  -20.8020  -13.6020 C.2     1  UNL1        0.0080
     31  C         25.2630  -20.2480  -14.8400 C.2     1  UNL1        0.0010
     32  C         24.8460  -21.0690  -15.8880 C.2     1  UNL1        0.0070
     33  C         24.7420  -22.4530  -15.7040 C.2     1  UNL1       -0.0610
     34  C         24.3330  -23.3400  -16.8430 C.3     1  UNL1        0.0480
     35  C         25.0830  -23.0030  -14.4630 C.2     1  UNL1        0.0140
@<TRIPOS>BOND
     1    34    33    1
     2    32    33    2
     3    32    31    1
     4    33    35    1
     5    31    30    2
     6    35    29    2
     7    30    29    1
     8    29    28    1
     9    11    10    2
    10    28    27    1
    11    14    12    1
    12    10    12   am
    13    10     9    1
    14    12     3    1
    15     2     3   ar
    16     2     1   ar
    17     9     8    1
    18     3     4   ar
    19    27     1    1
    20     1     7   ar
    21     4     8    1
    22     4     5   ar
    23     8    15    1
    24     7     5   ar
    25     7    13    1
    26     5     6    2
    27    18    17    1
    28    15    17   am
    29    15    16    2
    30    17    19    1
    31    19    26    2
    32    19    20    1
    33    26    24    1
    34    20    21    2
    35    24    25    1
    36    24    22    2
    37    21    22    1
    38    22    23    1
