@<TRIPOS>MOLECULE
44615_out_ligand_01.pdbqt
 34 37 0 0 0
SMALL
GASTEIGER

@<TRIPOS>ATOM
      1  C         23.1110  -22.0960  -10.7130 C.ar    1  UNL1        0.1710
      2  N         22.1450  -21.4310  -11.2510 N.ar    1  UNL1       -0.2060
      3  C         20.8850  -21.8770  -10.9830 C.ar    1  UNL1        0.1450
      4  C         20.5800  -22.9190  -10.2030 C.ar    1  UNL1        0.0700
      5  C         21.7060  -23.6770   -9.6270 C.ar    1  UNL1        0.2580
      6  O         21.5410  -24.6840   -8.9530 O.2     1  UNL1       -0.2670
      7  N         22.9390  -23.1800   -9.9150 N.ar    1  UNL1       -0.3020
      8  C         19.1710  -23.3120   -9.8940 C.3     1  UNL1        0.1290
      9  C         18.1540  -22.7610  -10.8960 C.3     1  UNL1        0.1220
     10  C         18.5510  -21.4340  -11.5060 C.2     1  UNL1        0.2240
     11  O         17.7270  -20.6680  -11.9980 O.2     1  UNL1       -0.2730
     12  N         19.8850  -21.1420  -11.5410 N.am    1  UNL1       -0.3110
     13  H         23.7460  -23.6610   -9.5430 H       1  UNL1        0.1710
     14  H         20.1540  -20.3120  -12.0570 H       1  UNL1        0.1700
     15  C         18.7990  -22.8940   -8.4630 C.2     1  UNL1        0.2310
     16  O         19.5070  -22.0910   -7.8610 O.2     1  UNL1       -0.2720
     17  N         17.6720  -23.5210   -7.9540 N.am    1  UNL1       -0.3270
     18  H         17.2010  -24.2000   -8.5390 H       1  UNL1        0.1690
     19  C         17.0830  -23.3350   -6.6840 C.2     1  UNL1        0.0350
     20  C         17.7760  -23.8530   -5.5820 C.2     1  UNL1        0.0290
     21  C         17.2620  -23.7230   -4.2910 C.2     1  UNL1        0.0030
     22  C         16.0490  -23.0710   -4.0860 C.2     1  UNL1        0.0070
     23  C         15.3470  -22.5350   -5.1700 C.2     1  UNL1       -0.0600
     24  C         14.0240  -21.8610   -4.9610 C.3     1  UNL1        0.0480
     25  C         15.8670  -22.6830   -6.4680 C.2     1  UNL1        0.0360
     26  S         24.7840  -21.7010  -10.9280 S.3     1  UNL1       -0.0870
     27  C         25.3850  -23.2270  -11.7060 C.3     1  UNL1        0.1210
     28  C         25.1520  -23.2140  -13.1950 C.2     1  UNL1       -0.0490
     29  C         25.4150  -24.3530  -13.9670 C.2     1  UNL1        0.0080
     30  C         25.2090  -24.3380  -15.3490 C.2     1  UNL1        0.0070
     31  C         24.7500  -23.1790  -15.9860 C.2     1  UNL1       -0.0620
     32  C         24.5010  -23.1750  -17.4650 C.3     1  UNL1        0.0480
     33  C         24.4810  -22.0430  -15.2160 C.2     1  UNL1        0.0070
     34  C         24.6870  -22.0570  -13.8340 C.2     1  UNL1        0.0080
@<TRIPOS>BOND
     1    32    31    1
     2    31    30    2
     3    31    33    1
     4    30    29    1
     5    33    34    2
     6    29    28    2
     7    34    28    1
     8    28    27    1
     9    14    12    1
    10    11    10    2
    11    27    26    1
    12    12    10   am
    13    12     3    1
    14    10     9    1
    15     2     3   ar
    16     2     1   ar
    17     3     4   ar
    18    26     1    1
    19     9     8    1
    20     1     7   ar
    21     4     8    1
    22     4     5   ar
    23     7     5   ar
    24     7    13    1
    25     8    15    1
    26     5     6    2
    27    18    17    1
    28    15    17   am
    29    15    16    2
    30    17    19    1
    31    19    25    2
    32    19    20    1
    33    25    23    1
    34    20    21    2
    35    23    24    1
    36    23    22    2
    37    21    22    1
