@<TRIPOS>MOLECULE
44630_out_ligand_01.pdbqt
 32 35 0 0 0
SMALL
GASTEIGER

@<TRIPOS>ATOM
      1  C         19.3110  -21.7170  -11.1400 C.2     1  UNL1        0.2230
      2  N         18.4960  -22.4410  -10.4020 N.2     1  UNL1       -0.2030
      3  C         17.2920  -21.8120  -10.5660 C.2     1  UNL1        0.1580
      4  N         17.3180  -20.7530  -11.3850 N.4     1  UNL1       -0.1110
      5  O         18.6580  -20.6830  -11.7660 O.2     1  UNL1       -0.1890
      6  C         16.0530  -22.2820   -9.9030 C.3     1  UNL1        0.1030
      7  C         16.1780  -22.3810   -8.3800 C.3     1  UNL1        0.1330
      8  N         16.4970  -23.7260   -7.8760 N.am    1  UNL1       -0.3520
      9  C         15.7780  -24.8440   -8.4660 C.3     1  UNL1        0.1520
     10  C         17.2170  -23.9800   -6.7050 C.2     1  UNL1        0.2560
     11  O         17.2730  -25.0840   -6.1640 O.2     1  UNL1       -0.2670
     12  C         17.9100  -22.8660   -6.0260 C.2     1  UNL1        0.0650
     13  C         18.9920  -22.2800   -6.6980 C.2     1  UNL1        0.0200
     14  C         19.6690  -21.2100   -6.1220 C.2     1  UNL1        0.0010
     15  C         19.2560  -20.7180   -4.8840 C.2     1  UNL1        0.0030
     16  C         18.1600  -21.2860   -4.2250 C.2     1  UNL1        0.0380
     17  C         17.4640  -22.3570   -4.7960 C.2     1  UNL1        0.0840
     18  O         16.3790  -22.9680   -4.2250 O.2     1  UNL1       -0.3550
     19  C         15.1490  -22.2560   -4.2380 C.3     1  UNL1        0.2100
     20  C         20.7140  -21.9560  -11.2750 C.ar    1  UNL1        0.0960
     21  C         21.6450  -22.4760  -10.3850 C.ar    1  UNL1       -0.0150
     22  C         22.9150  -22.4650  -11.0550 C.ar    1  UNL1       -0.0000
     23  C         24.2220  -22.8520  -10.6890 C.2     1  UNL1        0.0210
     24  C         22.7140  -21.9450  -12.3310 C.ar    1  UNL1        0.0430
     25  C         25.2830  -22.7000  -11.5980 C.2     1  UNL1       -0.0610
     26  C         25.0310  -22.1860  -12.8740 C.2     1  UNL1        0.0090
     27  C         26.6670  -23.1440  -11.2240 C.3     1  UNL1        0.0480
     28  C         23.7460  -21.7940  -13.2630 C.2     1  UNL1        0.0310
     29  N         21.3770  -21.6500  -12.4380 N.ar    1  UNL1       -0.3510
     30  H         20.9450  -21.2520  -13.2610 H       1  UNL1        0.1660
     31  C         21.3980  -22.9550   -8.9860 C.3     1  UNL1        0.0370
     32  C         21.1000  -24.4460   -8.9260 C.3     1  UNL1        0.0100
@<TRIPOS>BOND
     1    28    26    2
     2    28    24    1
     3    30    29    1
     4    26    25    1
     5    29    24   ar
     6    29    20   ar
     7    24    22   ar
     8     5     4    1
     9     5     1    1
    10    25    27    1
    11    25    23    2
    12     4     3    1
    13    20     1    1
    14    20    21   ar
    15     1     2    2
    16    22    23    1
    17    22    21   ar
    18     3     2    2
    19     3     6    1
    20    21    31    1
    21     6     7    1
    22    31    32    1
    23     9     8    1
    24     7     8    1
    25     8    10   am
    26    10    11    2
    27    10    12    1
    28    13    14    1
    29    13    12    2
    30    14    15    2
    31    12    17    1
    32    15    16    1
    33    17    18    1
    34    17    16    2
    35    19    18    1
