@<TRIPOS>MOLECULE
446_out_ligand_01.pdbqt
 41 44 0 0 0
SMALL
GASTEIGER

@<TRIPOS>ATOM
      1  C         20.9010  -23.0820   -8.7080 C.2     1  UNL1        0.0330
      2  C         20.0860  -24.2230   -8.6430 C.2     1  UNL1        0.0180
      3  C         19.0890  -24.3130   -7.6680 C.2     1  UNL1        0.0260
      4  C         18.9150  -23.2690   -6.7530 C.2     1  UNL1        0.0740
      5  C         19.7240  -22.1310   -6.8050 C.2     1  UNL1        0.0260
      6  C         20.7220  -22.0460   -7.7800 C.2     1  UNL1        0.0180
      7  C         21.9810  -22.9350   -9.7210 C.2     1  UNL1        0.2700
      8  O         22.9880  -23.6360   -9.6690 O.2     1  UNL1       -0.2660
      9  N         21.7950  -21.9670  -10.6880 N.am    1  UNL1       -0.2630
     10  H         21.0250  -21.3020  -10.7000 H       1  UNL1        0.1900
     11  N         22.8040  -21.7800  -11.6390 N.am    1  UNL1       -0.2620
     12  C         22.4350  -21.4030  -12.9110 C.2     1  UNL1        0.2910
     13  O         21.3160  -21.0360  -13.2420 O.2     1  UNL1       -0.2640
     14  H         23.6670  -22.3110  -11.4980 H       1  UNL1        0.1900
     15  C         23.5720  -21.4980  -13.9180 C.ar    1  UNL1        0.1570
     16  N         23.4330  -20.7820  -14.9990 N.ar    1  UNL1       -0.1660
     17  N         24.4270  -20.8330  -15.9290 N.ar    1  UNL1       -0.2420
     18  C         25.5840  -21.5680  -15.8380 C.ar    1  UNL1        0.2720
     19  H         24.3100  -20.2540  -16.7570 H       1  UNL1        0.1920
     20  O         26.4440  -21.5510  -16.7110 O.2     1  UNL1       -0.2660
     21  C         25.7330  -22.3960  -14.6290 C.ar    1  UNL1        0.0460
     22  C         26.8650  -23.2040  -14.4640 C.2     1  UNL1        0.0180
     23  C         24.7310  -22.3750  -13.6600 C.ar    1  UNL1        0.0160
     24  C         26.9890  -23.9970  -13.3260 C.2     1  UNL1        0.0010
     25  C         25.9860  -23.9850  -12.3570 C.2     1  UNL1        0.0010
     26  C         24.8550  -23.1790  -12.5210 C.2     1  UNL1        0.0150
     27  S         17.6310  -23.4010   -5.5300 S.O2    1  UNL1        0.2450
     28  O         18.1160  -22.7500   -4.3340 O.2     1  UNL1       -0.2060
     29  O         17.1480  -24.7650   -5.5300 O.2     1  UNL1       -0.2060
     30  N         16.4100  -22.4570   -6.2640 N.pl3   1  UNL1       -0.1810
     31  H         16.6400  -21.4790   -6.0800 H       1  UNL1        0.1460
     32  C         16.2700  -22.6920   -7.6710 C.2     1  UNL1        0.0230
     33  C         15.5690  -23.8120   -8.1100 C.2     1  UNL1        0.0240
     34  C         15.4610  -24.0750   -9.4740 C.2     1  UNL1        0.0030
     35  C         16.0660  -23.2230  -10.3990 C.2     1  UNL1        0.0160
     36  C         16.8000  -22.1070   -9.9670 C.2     1  UNL1        0.0490
     37  C         16.8970  -21.8480   -8.5900 C.2     1  UNL1        0.0400
     38  C         17.4520  -21.1780  -10.9610 C.3     1  UNL1        0.4170
     39  F         18.7710  -20.9520  -10.7090 F       1  UNL1       -0.1660
     40  F         17.3920  -21.6660  -12.2320 F       1  UNL1       -0.1660
     41  F         16.8630  -19.9510  -11.0050 F       1  UNL1       -0.1660
@<TRIPOS>BOND
     1    19    17    1
     2    20    18    2
     3    17    18   ar
     4    17    16   ar
     5    18    21   ar
     6    16    15   ar
     7    21    22    2
     8    21    23   ar
     9    22    24    1
    10    15    23   ar
    11    15    12    1
    12    23    26    2
    13    24    25    2
    14    13    12    2
    15    12    11   am
    16    26    25    1
    17    40    38    1
    18    11    14    1
    19    11     9    1
    20    41    38    1
    21    38    39    1
    22    38    36    1
    23    10     9    1
    24     9     7   am
    25    35    36    2
    26    35    34    1
    27    36    37    1
    28     7     8    2
    29     7     1    1
    30    34    33    2
    31     1     2    2
    32     1     6    1
    33     2     3    1
    34    37    32    2
    35    33    32    1
    36     6     5    2
    37    32    30    1
    38     3     4    2
    39     5     4    1
    40     4    27    1
    41    30    31    1
    42    30    27    1
    43    29    27    2
    44    27    28    2
