@<TRIPOS>MOLECULE
44914_out_ligand_01.pdbqt
 34 37 0 0 0
SMALL
GASTEIGER

@<TRIPOS>ATOM
      1  C         17.7390  -22.6620   -8.1620 C.ar    1  UNL1        0.1790
      2  C         17.3670  -22.9110   -9.4760 C.ar    1  UNL1        0.0220
      3  C         16.0550  -23.4320   -9.3800 C.ar    1  UNL1        0.0620
      4  C         15.1410  -23.8400  -10.4790 C.3     1  UNL1        0.0730
      5  N         15.6340  -23.4980   -8.1160 N.ar    1  UNL1       -0.1700
      6  N         16.7200  -23.1680   -7.3610 N.ar    1  UNL1       -0.2100
      7  C         18.1610  -22.6600  -10.7170 C.3     1  UNL1        0.0540
      8  C         18.1590  -21.1870  -11.1180 C.3     1  UNL1        0.1080
      9  C         19.5460  -20.7380  -11.5450 C.2     1  UNL1        0.2220
     10  O         19.9180  -19.5800  -11.3930 O.2     1  UNL1       -0.2730
     11  N         20.2930  -21.7850  -12.0610 N.am    1  UNL1       -0.3270
     12  H         19.8210  -22.6770  -12.1470 H       1  UNL1        0.1690
     13  C         21.6090  -21.7370  -12.5660 C.2     1  UNL1        0.0370
     14  C         21.9950  -20.9830  -13.6780 C.2     1  UNL1        0.0290
     15  C         23.3230  -20.9970  -14.1250 C.2     1  UNL1        0.0050
     16  C         24.2740  -21.7660  -13.4620 C.2     1  UNL1        0.0420
     17  C         23.8890  -22.5110  -12.3550 C.2     1  UNL1        0.1180
     18  F         24.8000  -23.2530  -11.7100 F       1  UNL1       -0.2060
     19  C         22.5740  -22.5020  -11.9020 C.2     1  UNL1        0.0710
     20  O         18.8120  -22.0600   -7.6380 O.3     1  UNL1       -0.2910
     21  C         20.0660  -22.5050   -7.9800 C.2     1  UNL1        0.0770
     22  C         20.2140  -23.8320   -8.3730 C.2     1  UNL1        0.0380
     23  C         21.4790  -24.3170   -8.7110 C.2     1  UNL1        0.0090
     24  C         22.6020  -23.4810   -8.6430 C.2     1  UNL1       -0.0620
     25  C         23.9670  -24.0160   -8.9580 C.3     1  UNL1        0.0480
     26  C         22.4430  -22.1590   -8.2050 C.2     1  UNL1        0.0090
     27  C         21.1780  -21.6690   -7.8740 C.2     1  UNL1        0.0380
     28  C         16.6380  -23.2580   -5.9370 C.2     1  UNL1        0.0670
     29  C         17.7460  -23.8260   -5.2740 C.2     1  UNL1        0.0320
     30  C         17.7340  -24.0280   -3.8950 C.2     1  UNL1        0.0020
     31  C         16.6220  -23.6550   -3.1530 C.2     1  UNL1        0.0010
     32  C         15.5380  -23.0470   -3.7870 C.2     1  UNL1        0.0090
     33  C         15.5380  -22.8060   -5.1770 C.2     1  UNL1       -0.0330
     34  C         14.3800  -22.0090   -5.7130 C.3     1  UNL1        0.0500
@<TRIPOS>BOND
     1    15    14    1
     2    15    16    2
     3    14    13    2
     4    16    17    1
     5    13    11    1
     6    13    19    1
     7    17    19    2
     8    17    18    1
     9    12    11    1
    10    11     9   am
    11     9    10    2
    12     9     8    1
    13     8     7    1
    14     7     2    1
    15     4     3    1
    16     2     3   ar
    17     2     1   ar
    18     3     5   ar
    19    25    24    1
    20    23    24    2
    21    23    22    1
    22    24    26    1
    23    22    21    2
    24    26    27    2
    25     1    20    1
    26     1     6   ar
    27     5     6   ar
    28    21    27    1
    29    21    20    1
    30     6    28    1
    31    28    29    2
    32    28    33    1
    33    34    33    1
    34    29    30    1
    35    33    32    2
    36    30    31    2
    37    32    31    1
