@<TRIPOS>MOLECULE
44910_out_ligand_01.pdbqt
 34 38 0 0 0
SMALL
GASTEIGER

@<TRIPOS>ATOM
      1  C         20.6870  -22.3580  -10.5830 C.2     1  UNL1        0.0340
      2  C         20.5790  -21.6270  -11.7740 C.2     1  UNL1        0.0180
      3  C         21.7090  -21.4050  -12.5640 C.2     1  UNL1        0.0200
      4  C         22.9450  -21.9260  -12.1670 C.ar    1  UNL1        0.0590
      5  C         24.1560  -21.7170  -12.9800 C.ar    1  UNL1        0.2620
      6  O         24.0690  -21.0350  -14.0000 O.2     1  UNL1       -0.2670
      7  N         25.3460  -22.3150  -12.5350 N.ar    1  UNL1       -0.2900
      8  C         25.4370  -23.0370  -11.3450 C.ar    1  UNL1        0.1810
      9  S         26.8070  -23.7280  -10.6660 S.2     1  UNL1       -0.0400
     10  N         24.2820  -23.1910  -10.6250 N.ar    1  UNL1       -0.3320
     11  C         23.0480  -22.6680  -10.9990 C.ar    1  UNL1        0.0510
     12  C         21.9250  -22.8930  -10.1980 C.2     1  UNL1        0.0470
     13  H         24.3650  -23.7380   -9.7740 H       1  UNL1        0.1680
     14  C         19.4600  -22.5800   -9.7720 C.2     1  UNL1        0.2560
     15  O         18.3770  -22.4710  -10.3310 O.2     1  UNL1       -0.2670
     16  N         19.6920  -22.8610   -8.4370 N.am    1  UNL1       -0.3230
     17  H         20.6430  -22.7730   -8.1050 H       1  UNL1        0.1690
     18  C         18.7330  -23.1610   -7.4460 C.2     1  UNL1        0.0350
     19  C         17.8070  -24.2130   -7.5490 C.2     1  UNL1        0.0300
     20  C         16.8860  -24.4690   -6.5260 C.2     1  UNL1        0.0100
     21  C         16.8980  -23.6580   -5.4070 C.2     1  UNL1       -0.0520
     22  C         17.8150  -22.6120   -5.2920 C.2     1  UNL1       -0.0500
     23  C         16.0450  -23.7600   -4.1820 C.3     1  UNL1        0.0390
     24  C         18.7380  -22.3580   -6.2950 C.2     1  UNL1        0.0370
     25  C         17.6640  -21.9130   -3.9770 C.3     1  UNL1        0.0390
     26  C         16.2610  -22.3740   -3.5550 C.3     1  UNL1        0.0090
     27  C         26.5020  -22.1330  -13.4320 C.3     1  UNL1        0.1390
     28  C         26.7330  -23.3170  -14.3890 C.3     1  UNL1        0.0590
     29  C         26.0170  -23.1860  -15.7110 C.2     1  UNL1       -0.0570
     30  C         24.7970  -23.8400  -15.9290 C.2     1  UNL1        0.0070
     31  C         24.1270  -23.6980  -17.1440 C.2     1  UNL1        0.0010
     32  C         24.6690  -22.9030  -18.1520 C.2     1  UNL1        0.0000
     33  C         25.8820  -22.2490  -17.9460 C.2     1  UNL1        0.0010
     34  C         26.5530  -22.3890  -16.7310 C.2     1  UNL1        0.0070
@<TRIPOS>BOND
     1    32    33    2
     2    32    31    1
     3    33    34    1
     4    31    30    2
     5    34    29    2
     6    30    29    1
     7    29    28    1
     8    28    27    1
     9     6     5    2
    10    27     7    1
    11     5     7   ar
    12     5     4   ar
    13     3     4    2
    14     3     2    1
    15     7     8   ar
    16     4    11   ar
    17     2     1    2
    18     8     9    2
    19     8    10   ar
    20    11    10   ar
    21    11    12    2
    22    10    13    1
    23     1    12    1
    24     1    14    1
    25    15    14    2
    26    14    16   am
    27    16    17    1
    28    16    18    1
    29    19    18    2
    30    19    20    1
    31    18    24    1
    32    20    21    2
    33    24    22    2
    34    21    22    1
    35    21    23    1
    36    22    25    1
    37    23    26    1
    38    25    26    1
