@<TRIPOS>MOLECULE
44959_out_ligand_01.pdbqt
 36 40 0 0 0
SMALL
GASTEIGER

@<TRIPOS>ATOM
      1  C         22.3020  -22.0840  -11.9740 C.2     1  UNL1        0.0320
      2  C         23.4820  -22.8040  -11.7550 C.2     1  UNL1        0.0170
      3  C         24.5560  -22.6690  -12.6390 C.2     1  UNL1        0.0100
      4  C         24.4650  -21.8200  -13.7520 C.2     1  UNL1       -0.0400
      5  C         23.2700  -21.1220  -13.9760 C.2     1  UNL1        0.0100
      6  C         22.1940  -21.2560  -13.0950 C.2     1  UNL1        0.0170
      7  C         21.1310  -22.2010  -11.0590 C.2     1  UNL1        0.2560
      8  O         20.0520  -21.7650  -11.4400 O.2     1  UNL1       -0.2670
      9  N         21.4110  -22.7710   -9.8290 N.am    1  UNL1       -0.3230
     10  H         22.3830  -22.9580   -9.6230 H       1  UNL1        0.1690
     11  C         20.5040  -23.0360   -8.7820 C.2     1  UNL1        0.0350
     12  C         19.9420  -24.3180   -8.7340 C.2     1  UNL1        0.0320
     13  C         19.0310  -24.6610   -7.7300 C.2     1  UNL1        0.0390
     14  C         18.6600  -23.7170   -6.7750 C.2     1  UNL1        0.0760
     15  C         19.2270  -22.4420   -6.8030 C.2     1  UNL1        0.0390
     16  C         20.1380  -22.1020   -7.8100 C.2     1  UNL1        0.0320
     17  O         17.7880  -24.1330   -5.7960 O.2     1  UNL1       -0.3110
     18  C         16.6520  -23.3830   -5.5990 C.2     1  UNL1        0.0760
     19  C         16.3810  -22.9670   -4.2960 C.2     1  UNL1        0.0370
     20  C         15.2260  -22.2320   -4.0270 C.2     1  UNL1        0.0030
     21  C         14.3350  -21.9320   -5.0580 C.2     1  UNL1        0.0000
     22  C         14.5950  -22.3700   -6.3580 C.2     1  UNL1        0.0030
     23  C         15.7490  -23.1040   -6.6300 C.2     1  UNL1        0.0370
     24  C         25.6200  -21.7000  -14.7260 C.3     1  UNL1        0.1750
     25  N         26.0420  -20.3200  -14.9030 N.ar    1  UNL1       -0.2610
     26  C         26.5640  -19.6530  -13.7940 C.ar    1  UNL1        0.3300
     27  O         26.7260  -20.1760  -12.6920 O.2     1  UNL1       -0.2460
     28  N         26.9250  -18.3380  -13.9620 N.ar    1  UNL1       -0.3070
     29  C         26.7940  -17.6880  -15.1640 C.ar    1  UNL1        0.0590
     30  H         27.2960  -17.8540  -13.1540 H       1  UNL1        0.1700
     31  C         27.1200  -16.3430  -15.4720 C.2     1  UNL1        0.0380
     32  C         26.2970  -18.3700  -16.2400 C.ar    1  UNL1        0.1000
     33  C         26.8500  -16.0540  -16.7940 C.2     1  UNL1        0.0530
     34  S         26.2120  -17.4090  -17.6360 S.3     1  UNL1       -0.0940
     35  C         25.8920  -19.7510  -16.1780 C.ar    1  UNL1        0.2710
     36  O         25.4670  -20.3840  -17.1430 O.2     1  UNL1       -0.2660
@<TRIPOS>BOND
     1    34    33    1
     2    34    32    1
     3    36    35    2
     4    33    31    2
     5    32    35   ar
     6    32    29   ar
     7    35    25   ar
     8    31    29    1
     9    29    28   ar
    10    25    24    1
    11    25    26   ar
    12    24     4    1
    13     5     4    2
    14     5     6    1
    15    28    26   ar
    16    28    30    1
    17    26    27    2
    18     4     3    1
    19     6     1    2
    20     3     2    2
    21     1     2    1
    22     1     7    1
    23     8     7    2
    24     7     9   am
    25     9    10    1
    26     9    11    1
    27    11    12    2
    28    11    16    1
    29    12    13    1
    30    16    15    2
    31    13    14    2
    32    15    14    1
    33    14    17    1
    34    23    22    1
    35    23    18    2
    36    22    21    2
    37    17    18    1
    38    18    19    1
    39    21    20    1
    40    19    20    2
