@<TRIPOS>MOLECULE
45145_out_ligand_01.pdbqt
 39 42 0 0 0
SMALL
GASTEIGER

@<TRIPOS>ATOM
      1  C         23.8030  -22.0450  -10.4310 C.2     1  UNL1        0.2220
      2  O         23.6590  -21.2260   -9.5260 O.2     1  UNL1       -0.2730
      3  N         22.8090  -22.5480  -11.2550 N.am    1  UNL1       -0.3270
      4  H         23.0800  -23.2670  -11.9140 H       1  UNL1        0.1690
      5  C         21.4460  -22.1870  -11.2850 C.2     1  UNL1        0.0360
      6  C         20.9090  -21.2280  -12.1450 C.2     1  UNL1        0.0290
      7  C         19.5460  -20.9290  -12.0970 C.2     1  UNL1        0.0040
      8  C         18.7130  -21.5830  -11.1860 C.2     1  UNL1        0.0290
      9  C         19.2320  -22.5510  -10.3170 C.2     1  UNL1        0.0380
     10  C         20.5970  -22.8510  -10.3830 C.2     1  UNL1        0.0590
     11  N         18.3340  -23.1700   -9.4190 N.am    1  UNL1       -0.3090
     12  C         18.5670  -23.5230   -8.1120 C.2     1  UNL1        0.3200
     13  O         19.5920  -23.3300   -7.4720 O.2     1  UNL1       -0.2470
     14  N         17.4530  -24.1320   -7.5680 N.am    1  UNL1       -0.3390
     15  H         16.8930  -24.6740   -8.2100 H       1  UNL1        0.1640
     16  H         17.3780  -23.2530   -9.7300 H       1  UNL1        0.1700
     17  C         17.4830  -24.6310   -6.2100 C.3     1  UNL1        0.1630
     18  C         16.6430  -23.7800   -5.2980 C.2     1  UNL1       -0.0380
     19  C         17.1020  -23.4100   -4.0310 C.2     1  UNL1        0.0280
     20  C         16.2950  -22.6040   -3.2440 C.2     1  UNL1        0.1160
     21  N         15.0900  -22.1400   -3.6290 N.2     1  UNL1       -0.2730
     22  C         14.6630  -22.5110   -4.8550 C.2     1  UNL1        0.1160
     23  C         15.3930  -23.3220   -5.7120 C.2     1  UNL1        0.0280
     24  C         25.1480  -22.7110  -10.6830 C.3     1  UNL1        0.1100
     25  C         26.2050  -21.7130  -11.1480 C.3     1  UNL1        0.0880
     26  C         25.9490  -21.2760  -12.5540 C.ar    1  UNL1        0.1070
     27  N         26.2950  -20.0220  -13.0220 N.ar    1  UNL1       -0.3370
     28  C         25.9430  -19.9750  -14.3330 C.ar    1  UNL1        0.1490
     29  H         26.7380  -19.2760  -12.4970 H       1  UNL1        0.1670
     30  C         26.0630  -18.9440  -15.2990 C.ar    1  UNL1        0.2800
     31  C         25.3830  -21.1900  -14.5960 C.ar    1  UNL1        0.1680
     32  N         25.5590  -19.3230  -16.5200 N.ar    1  UNL1       -0.2730
     33  O         26.5530  -17.8310  -15.0860 O.2     1  UNL1       -0.2650
     34  C         24.9470  -20.5330  -16.8450 C.ar    1  UNL1        0.3300
     35  H         25.5850  -18.6320  -17.2560 H       1  UNL1        0.1730
     36  N         24.8870  -21.5040  -15.8470 N.ar    1  UNL1       -0.2860
     37  O         24.4860  -20.6840  -17.9820 O.2     1  UNL1       -0.2460
     38  C         24.2630  -22.7910  -16.0920 C.3     1  UNL1        0.1630
     39  N         25.3960  -22.0030  -13.5090 N.ar    1  UNL1       -0.2150
@<TRIPOS>BOND
     1    37    34    2
     2    35    32    1
     3    34    32   ar
     4    34    36   ar
     5    32    30   ar
     6    38    36    1
     7    36    31   ar
     8    30    33    2
     9    30    28   ar
    10    31    28   ar
    11    31    39   ar
    12    28    27   ar
    13    39    26   ar
    14    27    26   ar
    15    27    29    1
    16    26    25    1
    17     6     7    1
    18     6     5    2
    19     7     8    2
    20     4     3    1
    21     5     3    1
    22     5    10    1
    23     3     1   am
    24     8     9    1
    25    25    24    1
    26    24     1    1
    27     1     2    2
    28    10     9    2
    29     9    11    1
    30    16    11    1
    31    11    12   am
    32    15    14    1
    33    12    14   am
    34    12    13    2
    35    14    17    1
    36    17    18    1
    37    23    18    2
    38    23    22    1
    39    18    19    1
    40    22    21    2
    41    19    20    2
    42    21    20    1
