@<TRIPOS>MOLECULE
45172_out_ligand_01.pdbqt
 31 34 0 0 0
SMALL
GASTEIGER

@<TRIPOS>ATOM
      1  S         20.6670  -22.9450   -8.3950 S.O2    1  UNL1        0.2470
      2  O         21.0200  -22.1720   -7.2260 O.2     1  UNL1       -0.2050
      3  O         20.3010  -24.3430   -8.3120 O.2     1  UNL1       -0.2050
      4  C         21.9910  -22.7990   -9.5420 C.2     1  UNL1        0.0930
      5  C         21.8050  -22.2320  -10.7990 C.2     1  UNL1        0.0470
      6  C         22.8990  -22.1730  -11.6660 C.ar    1  UNL1        0.0800
      7  C         22.7750  -21.5720  -12.9950 C.ar    1  UNL1        0.2630
      8  C         24.1280  -22.6850  -11.2710 C.ar    1  UNL1        0.1480
      9  N         23.9010  -21.5890  -13.7680 N.ar    1  UNL1       -0.2750
     10  O         21.7190  -21.0790  -13.3730 O.2     1  UNL1       -0.2670
     11  C         25.1300  -22.0720  -13.4110 C.ar    1  UNL1        0.3300
     12  H         23.8380  -21.1750  -14.6870 H       1  UNL1        0.1730
     13  N         25.2300  -22.6240  -12.1510 N.ar    1  UNL1       -0.2870
     14  O         26.0620  -21.9910  -14.2070 O.2     1  UNL1       -0.2460
     15  C         26.4960  -23.1700  -11.6900 C.3     1  UNL1        0.1630
     16  N         24.3030  -23.2480  -10.0470 N.2     1  UNL1       -0.2400
     17  C         23.2340  -23.3020   -9.2110 C.2     1  UNL1        0.1430
     18  N         19.4150  -22.1740   -9.2600 N.pl3   1  UNL1       -0.1810
     19  H         19.5490  -22.4160  -10.2450 H       1  UNL1        0.1460
     20  C         18.0980  -22.5680   -8.8410 C.2     1  UNL1        0.0250
     21  C         17.1850  -22.9670   -9.8080 C.2     1  UNL1        0.0240
     22  C         15.8980  -23.3230   -9.4200 C.2     1  UNL1        0.0040
     23  C         15.5260  -23.2620   -8.0710 C.2     1  UNL1        0.0300
     24  C         16.4250  -22.8330   -7.0840 C.2     1  UNL1        0.0410
     25  C         17.7230  -22.4870   -7.4940 C.2     1  UNL1        0.0540
     26  N         16.0530  -22.7460   -5.7160 N.am    1  UNL1       -0.2920
     27  C         16.9400  -23.0660   -4.6380 C.3     1  UNL1        0.1610
     28  C         16.0400  -23.0390   -3.4320 C.3     1  UNL1        0.2010
     29  O         14.9310  -22.2350   -3.8200 O.3     1  UNL1       -0.3020
     30  C         14.8920  -22.1890   -5.1920 C.2     1  UNL1        0.3670
     31  O         13.9430  -21.6980   -5.7830 O.2     1  UNL1       -0.2380
@<TRIPOS>BOND
     1    12     9    1
     2    14    11    2
     3     9    11   ar
     4     9     7   ar
     5    11    13   ar
     6    10     7    2
     7     7     6   ar
     8    13    15    1
     9    13     8   ar
    10     6     8   ar
    11     6     5    1
    12     8    16    1
    13     5     4    2
    14    19    18    1
    15    16    17    2
    16    21    22    1
    17    21    20    2
    18     4    17    1
    19     4     1    1
    20    22    23    2
    21    18    20    1
    22    18     1    1
    23    20    25    1
    24     1     3    2
    25     1     2    2
    26    23    24    1
    27    25    24    2
    28    24    26    1
    29    31    30    2
    30    26    30   am
    31    26    27    1
    32    30    29    1
    33    27    28    1
    34    29    28    1
