@<TRIPOS>MOLECULE
45203_out_ligand_01.pdbqt
 36 39 0 0 0
SMALL
GASTEIGER

@<TRIPOS>ATOM
      1  C         20.1180  -22.9390   -9.9980 C.2     1  UNL1        0.0830
      2  C         20.3270  -23.9170   -9.0050 C.2     1  UNL1        0.0350
      3  C         19.2930  -24.3660   -8.1780 C.2     1  UNL1        0.0280
      4  C         18.0210  -23.8250   -8.3230 C.2     1  UNL1        0.0820
      5  C         17.7590  -22.8680   -9.3080 C.2     1  UNL1        0.0630
      6  C         18.8060  -22.4180  -10.1310 C.2     1  UNL1        0.1320
      7  N         21.2340  -22.4230  -10.7100 N.pl3   1  UNL1       -0.2750
      8  H         21.0830  -22.4460  -11.7290 H       1  UNL1        0.1890
      9  N         22.4710  -22.8110  -10.2950 N.2     1  UNL1       -0.1690
     10  C         23.4460  -22.6180  -11.1250 C.2     1  UNL1        0.1420
     11  C         24.8650  -23.0570  -10.8500 C.2     1  UNL1        0.1950
     12  C         23.5560  -21.9920  -12.4360 C.2     1  UNL1        0.0280
     13  N         25.6930  -22.7950  -11.8110 N.2     1  UNL1       -0.2220
     14  C         24.9090  -22.1420  -12.7870 C.2     1  UNL1        0.0780
     15  C         25.3780  -21.6360  -13.9970 C.2     1  UNL1       -0.0320
     16  C         26.8060  -21.8190  -14.4190 C.3     1  UNL1        0.0500
     17  C         24.4540  -20.9770  -14.8340 C.2     1  UNL1        0.0090
     18  C         23.1070  -20.8190  -14.4560 C.2     1  UNL1        0.0020
     19  C         22.6440  -21.3250  -13.2400 C.2     1  UNL1        0.0160
     20  O         25.2110  -23.6480   -9.7300 O.2     1  UNL1       -0.3430
     21  H         25.8310  -24.3650   -9.9460 H       1  UNL1        0.2190
     22  N         18.4850  -21.3980  -11.1450 N.pl3   1  UNL1       -0.1130
     23  O         17.4160  -21.5080  -11.7660 O.2     1  UNL1       -0.5320
     24  O         19.3010  -20.4800  -11.3250 O.2     1  UNL1       -0.5320
     25  S         16.7080  -24.3210   -7.2350 S.O2    1  UNL1        0.2630
     26  O         15.6170  -24.7780   -8.0680 O.2     1  UNL1       -0.2000
     27  O         17.2540  -25.1540   -6.1850 O.2     1  UNL1       -0.2000
     28  N         16.2190  -22.8410   -6.5810 N.pl3   1  UNL1       -0.2810
     29  H         15.2100  -22.8130   -6.4500 H       1  UNL1        0.1790
     30  C         17.0250  -22.2630   -5.5600 C.2     1  UNL1        0.0440
     31  C         16.7110  -22.4830   -4.2160 C.2     1  UNL1        0.0300
     32  C         17.5190  -21.9450   -3.2120 C.2     1  UNL1        0.0040
     33  C         18.6440  -21.1920   -3.5520 C.2     1  UNL1        0.0240
     34  C         18.9540  -20.9800   -4.8960 C.2     1  UNL1        0.0360
     35 CL         20.3400  -20.0530   -5.3170 Cl      1  UNL1       -0.0840
     36  C         18.1540  -21.5170   -5.9040 C.2     1  UNL1        0.0540
@<TRIPOS>BOND
     1    17    18    2
     2    17    15    1
     3    18    19    1
     4    16    15    1
     5    15    14    2
     6    19    12    2
     7    14    12    1
     8    14    13    1
     9    12    10    1
    10    13    11    2
    11    23    22    2
    12     8     7    1
    13    24    22    2
    14    22     6    1
    15    10    11    1
    16    10     9    2
    17    11    20    1
    18     7     9    1
    19     7     1    1
    20     6     1    2
    21     6     5    1
    22     1     2    1
    23    21    20    1
    24     5     4    2
    25     2     3    2
    26     4     3    1
    27     4    25    1
    28    26    25    2
    29    25    28    1
    30    25    27    2
    31    28    29    1
    32    28    30    1
    33    36    30    2
    34    36    34    1
    35    30    31    1
    36    35    34    1
    37    34    33    2
    38    31    32    2
    39    33    32    1
