@<TRIPOS>MOLECULE
45349_out_ligand_01.pdbqt
 37 40 0 0 0
SMALL
GASTEIGER

@<TRIPOS>ATOM
      1  C         20.8320  -22.2200   -9.8370 C.2     1  UNL1        0.0860
      2  C         20.1650  -22.6130   -8.6580 C.2     1  UNL1        0.0390
      3  C         18.7660  -22.6030   -8.5760 C.2     1  UNL1       -0.0030
      4  C         18.0410  -22.1660   -9.6900 C.2     1  UNL1        0.0140
      5  C         18.6970  -21.7620  -10.8560 C.2     1  UNL1        0.0090
      6  C         20.0990  -21.7760  -10.9520 C.2     1  UNL1       -0.0390
      7  C         20.7160  -21.2980  -12.2330 C.3     1  UNL1        0.0500
      8  S         22.6200  -22.3090   -9.7850 S.O2    1  UNL1        0.2630
      9  O         23.2000  -21.0110  -10.0310 O.2     1  UNL1       -0.2000
     10  O         22.9690  -23.0640   -8.5980 O.2     1  UNL1       -0.2000
     11  N         22.9830  -23.3280  -11.0870 N.pl3   1  UNL1       -0.2810
     12  H         22.1590  -23.8250  -11.4110 H       1  UNL1        0.1790
     13  C         24.0060  -22.9970  -12.0180 C.2     1  UNL1        0.0430
     14  C         25.2040  -23.7030  -11.9540 C.2     1  UNL1        0.0330
     15  C         26.2340  -23.4280  -12.8610 C.2     1  UNL1        0.0400
     16  C         26.0870  -22.4360  -13.8400 C.2     1  UNL1        0.0840
     17  C         24.8820  -21.7040  -13.8890 C.2     1  UNL1        0.0670
     18  C         23.8570  -21.9850  -12.9610 C.2     1  UNL1        0.0500
     19  O         27.0640  -22.1340  -14.7580 O.2     1  UNL1       -0.3550
     20  C         27.1210  -22.9040  -15.9550 C.3     1  UNL1        0.2100
     21  C         24.5840  -20.6220  -14.8810 C.2     1  UNL1        0.2520
     22  N         25.2310  -19.4300  -14.7540 N.am    1  UNL1       -0.3660
     23  H         24.9920  -18.6860  -15.3900 H       1  UNL1        0.1590
     24  H         25.8360  -19.2340  -13.9650 H       1  UNL1        0.1590
     25  O         23.7840  -20.7890  -15.7960 O.2     1  UNL1       -0.2680
     26  C         18.0820  -23.0240   -7.3470 C.ar    1  UNL1        0.1000
     27  N         17.2650  -24.0980   -7.5080 N.ar    1  UNL1       -0.1460
     28  N         16.5390  -24.5650   -6.4620 N.ar    1  UNL1       -0.1230
     29  C         16.6400  -23.9460   -5.2730 C.ar    1  UNL1        0.1950
     30  C         17.4610  -22.8480   -5.0280 C.ar    1  UNL1        0.0310
     31  C         17.5540  -22.2200   -3.7650 C.2     1  UNL1        0.0170
     32  C         18.2250  -22.3650   -6.1070 C.ar    1  UNL1        0.0100
     33  C         18.4020  -21.1310   -3.5650 C.2     1  UNL1        0.0010
     34  C         19.1740  -20.6550   -4.6200 C.2     1  UNL1        0.0010
     35  C         19.0890  -21.2630   -5.8750 C.2     1  UNL1        0.0150
     36  O         15.8620  -24.4880   -4.2920 O.3     1  UNL1       -0.3430
     37  H         16.5400  -24.7640   -3.6490 H       1  UNL1        0.2190
@<TRIPOS>BOND
     1    20    19    1
     2    25    21    2
     3    23    22    1
     4    21    22   am
     5    21    17    1
     6    19    16    1
     7    22    24    1
     8    17    16    2
     9    17    18    1
    10    16    15    1
    11    18    13    2
    12    15    14    2
    13     7     6    1
    14    13    14    1
    15    13    11    1
    16    12    11    1
    17    11     8    1
    18     6     5    1
    19     6     1    2
    20     5     4    2
    21     9     8    2
    22     1     8    1
    23     1     2    1
    24     8    10    2
    25     4     3    1
    26     2     3    2
    27     3    26    1
    28    27    26   ar
    29    27    28   ar
    30    26    32   ar
    31    28    29   ar
    32    32    35    1
    33    32    30   ar
    34    35    34    2
    35    29    30   ar
    36    29    36    1
    37    30    31    1
    38    34    33    1
    39    36    37    1
    40    31    33    2
