@<TRIPOS>MOLECULE
45344_out_ligand_01.pdbqt
 38 42 0 0 0
SMALL
GASTEIGER

@<TRIPOS>ATOM
      1  N         19.7810  -23.5400   -9.1410 N.ar    1  UNL1       -0.2940
      2  C         21.1620  -23.7400   -9.0500 C.ar    1  UNL1        0.3320
      3  O         21.6400  -24.6810   -8.4100 O.2     1  UNL1       -0.2460
      4  N         21.9770  -22.8320   -9.7110 N.ar    1  UNL1       -0.2610
      5  C         21.5220  -21.7590  -10.4570 C.ar    1  UNL1        0.2640
      6  O         22.2500  -20.8880  -10.9290 O.2     1  UNL1       -0.2670
      7  C         20.0750  -21.6920  -10.6970 C.ar    1  UNL1        0.0590
      8  C         19.5780  -20.7230  -11.5860 C.2     1  UNL1        0.0190
      9  C         18.2180  -20.6560  -11.8570 C.2     1  UNL1        0.0010
     10  C         17.3590  -21.5610  -11.2490 C.2     1  UNL1        0.0020
     11  C         17.8580  -22.5220  -10.3600 C.2     1  UNL1        0.0310
     12  C         19.2270  -22.5940  -10.0530 C.ar    1  UNL1        0.0550
     13  C         23.4200  -22.9980   -9.5870 C.3     1  UNL1        0.1750
     14  C         24.1440  -22.6440  -10.8710 C.2     1  UNL1       -0.0400
     15  C         25.1240  -21.6410  -10.8800 C.2     1  UNL1        0.0100
     16  C         25.7770  -21.2930  -12.0670 C.2     1  UNL1        0.0170
     17  C         25.4560  -21.9480  -13.2610 C.2     1  UNL1        0.0320
     18  C         24.4630  -22.9340  -13.2620 C.2     1  UNL1        0.0170
     19  C         23.8140  -23.2810  -12.0750 C.2     1  UNL1        0.0100
     20  C         26.1210  -21.6080  -14.5510 C.2     1  UNL1        0.2510
     21  O         26.7630  -22.4580  -15.1570 O.2     1  UNL1       -0.2680
     22  N         25.9910  -20.3040  -14.9760 N.am    1  UNL1       -0.3510
     23  H         25.6920  -19.6040  -14.3100 H       1  UNL1        0.1630
     24  C         26.7350  -19.8150  -16.1150 C.3     1  UNL1        0.1870
     25  C         26.8080  -18.3350  -16.0290 C.2     1  UNL1        0.0700
     26  C         27.1170  -17.4630  -15.0060 C.2     1  UNL1        0.0360
     27  C         26.9970  -16.1600  -15.5440 C.2     1  UNL1        0.0270
     28  C         26.6200  -16.3190  -16.8560 C.2     1  UNL1        0.1420
     29  O         26.4990  -17.6380  -17.1610 O.2     1  UNL1       -0.3250
     30  C         18.9400  -24.4050   -8.3040 C.3     1  UNL1        0.1730
     31  C         18.1160  -23.6480   -7.2670 C.2     1  UNL1       -0.0330
     32  C         16.7280  -23.8210   -7.0880 C.2     1  UNL1       -0.0540
     33  C         16.0600  -23.0650   -6.1090 C.2     1  UNL1        0.0080
     34  C         15.9120  -24.7740   -7.9130 C.3     1  UNL1        0.0490
     35  C         16.7450  -22.1560   -5.3020 C.2     1  UNL1        0.0070
     36  C         18.1160  -21.9710   -5.4670 C.2     1  UNL1       -0.0610
     37  C         18.8710  -21.0170   -4.5900 C.3     1  UNL1        0.0480
     38  C         18.7890  -22.7270   -6.4350 C.2     1  UNL1        0.0160
@<TRIPOS>BOND
     1    29    28    1
     2    29    25    1
     3    28    27    2
     4    24    25    1
     5    24    22    1
     6    25    26    2
     7    27    26    1
     8    21    20    2
     9    22    20   am
    10    22    23    1
    11    20    17    1
    12    18    17    2
    13    18    19    1
    14    17    16    1
    15    19    14    2
    16    16    15    2
    17     9     8    1
    18     9    10    2
    19     8     7    2
    20    10    11    1
    21     6     5    2
    22    15    14    1
    23    14    13    1
    24     7     5   ar
    25     7    12   ar
    26     5     4   ar
    27    11    12    2
    28    12     1   ar
    29     4    13    1
    30     4     2   ar
    31     1     2   ar
    32     1    30    1
    33     2     3    2
    34    30    31    1
    35    34    32    1
    36    31    32    2
    37    31    38    1
    38    32    33    1
    39    38    36    2
    40    33    35    2
    41    36    35    1
    42    36    37    1
