@<TRIPOS>MOLECULE
45364_out_ligand_01.pdbqt
 28 30 0 0 0
SMALL
GASTEIGER

@<TRIPOS>ATOM
      1  N         20.1690  -23.4620   -9.5060 N.ar    1  UNL1       -0.2900
      2  C         21.5280  -23.4810   -9.7850 C.ar    1  UNL1        0.3320
      3  O         22.3090  -24.0990   -9.0520 O.2     1  UNL1       -0.2460
      4  N         21.9650  -22.7670  -10.8860 N.ar    1  UNL1       -0.2630
      5  C         21.1600  -21.9450  -11.6610 C.ar    1  UNL1        0.2640
      6  O         21.5650  -21.2600  -12.5980 O.2     1  UNL1       -0.2670
      7  C         19.7370  -21.8710  -11.2900 C.ar    1  UNL1        0.0590
      8  C         18.8780  -21.0340  -12.0210 C.2     1  UNL1        0.0190
      9  C         17.5370  -20.9320  -11.6700 C.2     1  UNL1        0.0010
     10  C         17.0560  -21.6590  -10.5860 C.2     1  UNL1        0.0020
     11  C         17.9140  -22.4940   -9.8610 C.2     1  UNL1        0.0310
     12  C         19.2680  -22.6210  -10.2110 C.ar    1  UNL1        0.0550
     13  C         19.7010  -24.3140   -8.4100 C.3     1  UNL1        0.2370
     14  C         19.0900  -23.4840   -7.2780 C.2     1  UNL1        0.2400
     15  O         19.6550  -22.4730   -6.8700 O.2     1  UNL1       -0.2710
     16  N         17.8890  -24.0030   -6.8240 N.am    1  UNL1       -0.3260
     17  H         17.5810  -24.8680   -7.2720 H       1  UNL1        0.1690
     18  C         17.0620  -23.5080   -5.7970 C.2     1  UNL1        0.0360
     19  C         17.3340  -23.6580   -4.4350 C.2     1  UNL1        0.0290
     20  C         16.4600  -23.1370   -3.4740 C.2     1  UNL1        0.0040
     21  C         15.3080  -22.4620   -3.8680 C.2     1  UNL1        0.0240
     22  C         15.0340  -22.3100   -5.2240 C.2     1  UNL1        0.0360
     23 CL         13.6110  -21.4770   -5.7190 Cl      1  UNL1       -0.0840
     24  C         15.9020  -22.8270   -6.1860 C.2     1  UNL1        0.0530
     25  C         23.3820  -22.8690  -11.2380 C.3     1  UNL1        0.1630
     26  C         24.2060  -21.6920  -10.7020 C.3     1  UNL1        0.1840
     27  O         23.7520  -21.3060   -9.4090 O.3     1  UNL1       -0.3990
     28  H         24.4950  -21.4270   -8.7940 H       1  UNL1        0.2090
@<TRIPOS>BOND
     1     6     5    2
     2     8     9    1
     3     8     7    2
     4     9    10    2
     5     5     7   ar
     6     5     4   ar
     7     7    12   ar
     8    25     4    1
     9    25    26    1
    10     4     2   ar
    11    26    27    1
    12    10    11    1
    13    12    11    2
    14    12     1   ar
    15     2     1   ar
    16     2     3    2
    17     1    13    1
    18    27    28    1
    19    13    14    1
    20    14    15    2
    21    14    16   am
    22    17    16    1
    23    16    18    1
    24    24    18    2
    25    24    22    1
    26    18    19    1
    27    23    22    1
    28    22    21    2
    29    19    20    2
    30    21    20    1
