@<TRIPOS>MOLECULE
45421_out_ligand_01.pdbqt
 29 32 0 0 0
SMALL
GASTEIGER

@<TRIPOS>ATOM
      1  C         19.3520  -22.4130  -10.4350 C.2     1  UNL1        0.0340
      2  C         20.2980  -23.1640   -9.7220 C.2     1  UNL1        0.0180
      3  C         21.6270  -23.2060  -10.1560 C.2     1  UNL1        0.0200
      4  C         22.0100  -22.4900  -11.2960 C.ar    1  UNL1        0.0590
      5  C         23.4050  -22.5110  -11.7780 C.ar    1  UNL1        0.2640
      6  O         24.2420  -23.1430  -11.1380 O.2     1  UNL1       -0.2670
      7  N         23.6780  -21.7930  -12.9390 N.ar    1  UNL1       -0.2610
      8  C         22.7510  -21.0080  -13.6050 C.ar    1  UNL1        0.3300
      9  O         23.0050  -20.3110  -14.5850 O.2     1  UNL1       -0.2460
     10  N         21.4770  -21.0120  -13.1130 N.ar    1  UNL1       -0.3070
     11  C         21.0770  -21.7330  -11.9920 C.ar    1  UNL1        0.0530
     12  C         19.7500  -21.6840  -11.5660 C.2     1  UNL1        0.0470
     13  H         20.8150  -20.4380  -13.6220 H       1  UNL1        0.1700
     14  C         17.9280  -22.3250  -10.0150 C.2     1  UNL1        0.2520
     15  O         17.1600  -21.5970  -10.6330 O.2     1  UNL1       -0.2680
     16  N         17.5480  -23.1100   -8.9470 N.am    1  UNL1       -0.3520
     17  H         18.2210  -23.7080   -8.4890 H       1  UNL1        0.1630
     18  C         16.2000  -23.0480   -8.3910 C.3     1  UNL1        0.0840
     19  C         15.7440  -24.4380   -7.9170 C.3     1  UNL1        0.0250
     20  C         16.0630  -24.6680   -6.4440 C.3     1  UNL1        0.0020
     21  C         15.3550  -23.6510   -5.5450 C.3     1  UNL1        0.0000
     22  C         15.0800  -22.3140   -6.2340 C.3     1  UNL1        0.0020
     23  C         16.1430  -21.9890   -7.2750 C.3     1  UNL1        0.0250
     24  C         25.0340  -21.8390  -13.4650 C.3     1  UNL1        0.1830
     25  C         25.8180  -20.6610  -12.9510 C.2     1  UNL1        0.0010
     26  C         26.1410  -20.3540  -11.6430 C.2     1  UNL1        0.0170
     27  C         26.8960  -19.1510  -11.5350 C.2     1  UNL1        0.0080
     28  C         27.1210  -18.5730  -12.7640 C.2     1  UNL1        0.0500
     29  S         26.4240  -19.4790  -14.0350 S.3     1  UNL1       -0.1050
@<TRIPOS>BOND
     1     9     8    2
     2    29    25    1
     3    29    28    1
     4    13    10    1
     5     8    10   ar
     6     8     7   ar
     7    24    25    1
     8    24     7    1
     9    10    11   ar
    10    25    26    2
    11     7     5   ar
    12    28    27    2
    13    11    12    1
    14    11     4   ar
    15     5     4   ar
    16     5     6    2
    17    26    27    1
    18    12     1    2
    19     4     3    1
    20    15    14    2
    21     1    14    1
    22     1     2    1
    23     3     2    2
    24    14    16   am
    25    16    17    1
    26    16    18    1
    27    18    19    1
    28    18    23    1
    29    19    20    1
    30    23    22    1
    31    20    21    1
    32    22    21    1
