@<TRIPOS>MOLECULE
46475_out_ligand_01.pdbqt
 36 41 0 0 0
SMALL
GASTEIGER

@<TRIPOS>ATOM
      1  N         22.6840  -22.5890  -10.1590 N.3     1  UNL1        0.1050
      2  C         22.2540  -23.7350   -9.3430 C.3     1  UNL1        0.3120
      3  C         21.0770  -23.4270   -8.4340 C.2     1  UNL1       -0.0300
      4  C         21.0430  -22.2500   -7.6710 C.2     1  UNL1        0.0100
      5  C         19.9460  -21.9640   -6.8530 C.2     1  UNL1        0.0170
      6  C         18.8560  -22.8380   -6.8080 C.2     1  UNL1        0.0320
      7  C         18.8820  -24.0170   -7.5640 C.2     1  UNL1        0.0170
      8  C         19.9820  -24.3030   -8.3770 C.2     1  UNL1        0.0100
      9  C         17.7060  -22.4930   -5.9290 C.2     1  UNL1        0.2520
     10  O         17.8390  -21.6610   -5.0380 O.2     1  UNL1       -0.2680
     11  N         16.5140  -23.1350   -6.2130 N.am    1  UNL1       -0.3520
     12  H         16.4340  -23.6610   -7.0740 H       1  UNL1        0.1630
     13  C         15.3170  -22.8660   -5.4800 C.3     1  UNL1        0.0840
     14  C         15.1480  -23.3990   -4.0850 C.3     1  UNL1        0.0270
     15  C         14.3230  -23.9610   -5.2050 C.3     1  UNL1        0.0270
     16  C         24.1540  -22.5010  -10.2440 C.3     1  UNL1        0.3510
     17  C         24.6250  -22.4140  -11.6920 C.ar    1  UNL1        0.1360
     18  N         24.7950  -21.2660  -12.2790 N.ar    1  UNL1       -0.2250
     19  C         25.2030  -21.3470  -13.5720 C.ar    1  UNL1        0.1160
     20  S         25.4970  -19.9340  -14.5170 S.2     1  UNL1       -0.0730
     21  C         25.4290  -22.5100  -14.2940 C.ar    1  UNL1        0.0750
     22  C         25.9060  -20.8760  -15.8390 C.ar    1  UNL1       -0.0080
     23  C         25.8340  -22.2230  -15.6120 C.ar    1  UNL1       -0.0260
     24  C         26.3330  -20.5160  -17.2090 C.3     1  UNL1        0.0470
     25  C         26.2110  -22.9930  -16.8200 C.3     1  UNL1        0.0410
     26  C         26.1920  -21.8940  -17.9310 C.3     1  UNL1        0.0100
     27  C         25.2190  -23.7690  -13.6240 C.ar    1  UNL1        0.2600
     28  O         25.3410  -24.8670  -14.1570 O.2     1  UNL1       -0.2670
     29  N         24.8430  -23.6350  -12.3080 N.ar    1  UNL1       -0.3090
     30  H         24.6600  -24.4990  -11.8190 H       1  UNL1        0.1700
     31  C         21.9780  -22.5380  -11.4510 C.3     1  UNL1        0.3380
     32  C         20.6440  -21.8620  -11.4680 C.2     1  UNL1        0.0800
     33  C         20.2670  -20.5510  -11.6810 C.2     1  UNL1        0.0360
     34  C         18.8560  -20.5130  -11.5680 C.2     1  UNL1        0.0270
     35  C         18.4630  -21.7990  -11.2790 C.2     1  UNL1        0.1420
     36  O         19.5390  -22.6220  -11.2130 O.2     1  UNL1       -0.3250
@<TRIPOS>BOND
     1    26    24    1
     2    26    25    1
     3    24    22    1
     4    25    23    1
     5    22    23   ar
     6    22    20   ar
     7    23    21   ar
     8    20    19   ar
     9    21    27   ar
    10    21    19   ar
    11    28    27    2
    12    27    29   ar
    13    19    18   ar
    14    29    30    1
    15    29    17   ar
    16    18    17   ar
    17    17    16    1
    18    33    34    1
    19    33    32    2
    20    34    35    2
    21    32    31    1
    22    32    36    1
    23    31     1    1
    24    35    36    1
    25    16     1    1
    26     1     2    1
    27     2     3    1
    28     3     8    2
    29     3     4    1
    30     8     7    1
    31     4     5    2
    32     7     6    2
    33    12    11    1
    34     5     6    1
    35     6     9    1
    36    11     9   am
    37    11    13    1
    38     9    10    2
    39    13    15    1
    40    13    14    1
    41    15    14    1
