@<TRIPOS>MOLECULE
4677_out_ligand_01.pdbqt
 41 45 0 0 0
SMALL
GASTEIGER

@<TRIPOS>ATOM
      1  N         24.6800  -21.8290  -12.5200 N.am    1  UNL1       -0.3080
      2  C         23.3720  -21.4370  -12.8260 C.2     1  UNL1        0.2650
      3  O         23.0780  -20.9050  -13.9020 O.2     1  UNL1       -0.2670
      4  C         22.2750  -21.7160  -11.8400 C.2     1  UNL1        0.0740
      5  C         21.0250  -21.8360  -12.3240 C.2     1  UNL1        0.0360
      6  S         22.6650  -21.7540  -10.1650 S.3     1  UNL1       -0.0830
      7  C         24.1500  -22.7170  -10.2780 C.2     1  UNL1        0.0320
      8  C         24.4750  -23.5160   -9.1690 C.2     1  UNL1        0.0210
      9  C         25.6330  -24.2860   -9.1630 C.2     1  UNL1        0.0020
     10  C         26.4700  -24.2630  -10.2680 C.2     1  UNL1        0.0020
     11  C         26.1560  -23.4620  -11.3710 C.2     1  UNL1        0.0310
     12  C         25.0000  -22.6600  -11.3950 C.2     1  UNL1        0.0550
     13  C         19.8130  -22.0600  -11.5320 C.2     1  UNL1       -0.0350
     14  C         18.6540  -21.3220  -11.7980 C.2     1  UNL1        0.0120
     15  C         17.4970  -21.5280  -11.0390 C.2     1  UNL1        0.0180
     16  C         17.4920  -22.4830  -10.0130 C.2     1  UNL1        0.0320
     17  C         18.6580  -23.2090   -9.7400 C.2     1  UNL1        0.0180
     18  C         19.8120  -23.0020  -10.4990 C.2     1  UNL1        0.0120
     19  C         16.2880  -22.7340   -9.1720 C.2     1  UNL1        0.2510
     20  O         15.1710  -22.4980   -9.6160 O.2     1  UNL1       -0.2680
     21  N         16.5210  -23.2110   -7.8970 N.am    1  UNL1       -0.3530
     22  H         17.4580  -23.1330   -7.5260 H       1  UNL1        0.1630
     23  C         15.4340  -23.3740   -6.9360 C.3     1  UNL1        0.0810
     24  C         14.8750  -22.0030   -6.5560 C.3     1  UNL1        0.0320
     25  C         15.9270  -24.1210   -5.6840 C.3     1  UNL1        0.0290
     26  C         17.4540  -24.2230   -5.5780 C.3     1  UNL1        0.0400
     27  C         18.1330  -22.8970   -5.3390 C.2     1  UNL1       -0.0580
     28  C         19.0370  -22.3830   -6.2780 C.2     1  UNL1        0.0070
     29  C         19.6550  -21.1500   -6.0620 C.2     1  UNL1        0.0010
     30  C         19.3740  -20.4190   -4.9100 C.2     1  UNL1        0.0000
     31  C         18.4720  -20.9200   -3.9720 C.2     1  UNL1        0.0010
     32  C         17.8560  -22.1530   -4.1850 C.2     1  UNL1        0.0070
     33  C         25.7230  -21.3750  -13.4490 C.3     1  UNL1        0.1710
     34  C         25.4350  -21.7430  -14.9010 C.2     1  UNL1       -0.0330
     35  C         25.2990  -23.0730  -15.3550 C.2     1  UNL1       -0.0540
     36  C         25.0550  -23.3100  -16.7210 C.2     1  UNL1        0.0080
     37  C         25.4370  -24.2650  -14.4510 C.3     1  UNL1        0.0490
     38  C         24.9270  -22.2580  -17.6270 C.2     1  UNL1        0.0070
     39  C         25.0590  -20.9410  -17.1940 C.2     1  UNL1       -0.0610
     40  C         24.9000  -19.7980  -18.1520 C.3     1  UNL1        0.0480
     41  C         25.2990  -20.6970  -15.8370 C.2     1  UNL1        0.0160
@<TRIPOS>BOND
     1    40    39    1
     2    38    39    2
     3    38    36    1
     4    39    41    1
     5    36    35    2
     6    41    34    2
     7    35    34    1
     8    35    37    1
     9    34    33    1
    10     3     2    2
    11    33     1    1
    12     2     1   am
    13     2     4    1
    14     1    12    1
    15     5     4    2
    16     5    13    1
    17     4     6    1
    18    14    13    2
    19    14    15    1
    20    13    18    1
    21    12    11    1
    22    12     7    2
    23    11    10    2
    24    15    16    2
    25    18    17    2
    26     7     6    1
    27     7     8    1
    28    10     9    1
    29    16    17    1
    30    16    19    1
    31    20    19    2
    32    19    21   am
    33     8     9    2
    34    21    22    1
    35    21    23    1
    36    23    24    1
    37    23    25    1
    38    28    29    1
    39    28    27    2
    40    29    30    2
    41    25    26    1
    42    26    27    1
    43    27    32    1
    44    30    31    1
    45    32    31    2
