@<TRIPOS>MOLECULE
4679_out_ligand_01.pdbqt
 39 42 0 0 0
SMALL
GASTEIGER

@<TRIPOS>ATOM
      1  N         21.6710  -23.2300   -9.7640 N.ar    1  UNL1       -0.2900
      2  C         23.0460  -23.2330   -9.9550 C.ar    1  UNL1        0.3320
      3  O         23.7900  -23.8250   -9.1700 O.2     1  UNL1       -0.2460
      4  N         23.5370  -22.5380  -11.0470 N.ar    1  UNL1       -0.2650
      5  C         22.7460  -21.9130  -12.0040 C.ar    1  UNL1        0.2640
      6  O         23.1720  -21.4700  -13.0670 O.2     1  UNL1       -0.2670
      7  C         21.3100  -21.8120  -11.7060 C.ar    1  UNL1        0.0590
      8  C         20.4810  -21.0620  -12.5560 C.2     1  UNL1        0.0190
      9  C         19.1190  -20.9640  -12.2900 C.2     1  UNL1        0.0010
     10  C         18.5890  -21.6170  -11.1820 C.2     1  UNL1        0.0020
     11  C         19.4190  -22.3680  -10.3400 C.2     1  UNL1        0.0310
     12  C         20.7950  -22.4750  -10.5920 C.ar    1  UNL1        0.0550
     13  C         24.9780  -22.6040  -11.3040 C.3     1  UNL1        0.1460
     14  C         25.7130  -21.4370  -10.6480 C.3     1  UNL1        0.1230
     15  C         26.1220  -20.4120  -11.6790 C.2     1  UNL1        0.2190
     16  O         26.4680  -19.2700  -11.3900 O.2     1  UNL1       -0.2740
     17  N         26.0980  -20.9080  -12.9700 N.am    1  UNL1       -0.3610
     18  H         25.6980  -21.8260  -13.1210 H       1  UNL1        0.1620
     19  C         26.1880  -20.0170  -14.1140 C.3     1  UNL1        0.1270
     20  C         26.9080  -20.6660  -15.3070 C.3     1  UNL1        0.0580
     21  C         26.0270  -21.5700  -16.1380 C.2     1  UNL1       -0.0570
     22  C         25.5910  -21.1650  -17.4080 C.2     1  UNL1        0.0070
     23  C         24.7350  -21.9790  -18.1520 C.2     1  UNL1        0.0010
     24  C         24.3020  -23.1990  -17.6330 C.2     1  UNL1        0.0000
     25  C         24.7290  -23.6110  -16.3720 C.2     1  UNL1        0.0010
     26  C         25.5920  -22.8050  -15.6290 C.2     1  UNL1        0.0070
     27  C         21.1270  -24.0610   -8.6790 C.3     1  UNL1        0.2370
     28  C         20.1620  -23.3330   -7.7350 C.2     1  UNL1        0.2400
     29  N         18.8990  -23.8970   -7.6800 N.am    1  UNL1       -0.3260
     30  H         18.7450  -24.7100   -8.2660 H       1  UNL1        0.1690
     31  O         20.5210  -22.2960   -7.1800 O.2     1  UNL1       -0.2710
     32  C         17.7950  -23.4710   -6.9160 C.2     1  UNL1        0.0350
     33  C         16.7180  -22.7560   -7.4340 C.2     1  UNL1        0.0300
     34  C         15.6590  -22.3730   -6.6060 C.2     1  UNL1        0.0090
     35  C         15.6540  -22.6930   -5.2420 C.2     1  UNL1       -0.0560
     36  C         14.4970  -22.2540   -4.3890 C.3     1  UNL1        0.0490
     37  C         16.7440  -23.4040   -4.7040 C.2     1  UNL1       -0.0540
     38  C         17.7970  -23.7940   -5.5530 C.2     1  UNL1        0.0370
     39  C         16.7970  -23.7680   -3.2460 C.3     1  UNL1        0.0490
@<TRIPOS>BOND
     1    23    24    2
     2    23    22    1
     3    24    25    1
     4    22    21    2
     5    25    26    2
     6    21    26    1
     7    21    20    1
     8    20    19    1
     9    19    17    1
    10    18    17    1
    11     6     5    2
    12    17    15   am
    13     8     9    1
    14     8     7    2
    15     9    10    2
    16     5     7   ar
    17     5     4   ar
    18     7    12   ar
    19    15    16    2
    20    15    14    1
    21    13     4    1
    22    13    14    1
    23    10    11    1
    24     4     2   ar
    25    12    11    2
    26    12     1   ar
    27     2     1   ar
    28     2     3    2
    29     1    27    1
    30    27    28    1
    31    30    29    1
    32    28    29   am
    33    28    31    2
    34    29    32    1
    35    33    32    2
    36    33    34    1
    37    32    38    1
    38    34    35    2
    39    38    37    2
    40    35    37    1
    41    35    36    1
    42    37    39    1
