@<TRIPOS>MOLECULE
46862_out_ligand_01.pdbqt
 39 43 0 0 0
SMALL
GASTEIGER

@<TRIPOS>ATOM
      1  C         22.3620  -23.0460  -10.6030 C.ar    1  UNL1        0.1920
      2  N         23.1480  -23.6400   -9.7400 N.ar    1  UNL1       -0.1230
      3  N         22.3440  -24.1890   -8.7790 N.ar    1  UNL1       -0.1340
      4  C         21.0800  -23.9280   -9.0750 C.ar    1  UNL1        0.1350
      5  N         21.0410  -23.1700  -10.2360 N.ar    1  UNL1       -0.3060
      6  S         22.9320  -22.1410  -11.9650 S.3     1  UNL1       -0.0820
      7  C         24.4450  -21.4480  -11.2260 C.3     1  UNL1        0.1680
      8  C         25.6920  -22.0300  -11.8820 C.2     1  UNL1        0.1860
      9  O         26.5960  -22.5120  -11.1940 O.2     1  UNL1       -0.2900
     10  C         25.7890  -21.9110  -13.3310 C.ar    1  UNL1        0.0860
     11  N         25.9040  -20.7150  -14.0110 N.ar    1  UNL1       -0.3560
     12  C         26.0830  -20.9490  -15.3530 C.ar    1  UNL1        0.0220
     13  H         25.7990  -19.7990  -13.5880 H       1  UNL1        0.1660
     14  C         26.0110  -22.3230  -15.5730 C.ar    1  UNL1        0.0700
     15  C         26.2880  -19.8050  -16.2900 C.3     1  UNL1        0.0690
     16  C         25.7770  -22.9290  -14.2790 C.ar    1  UNL1       -0.0130
     17  C         25.6270  -24.3820  -13.9560 C.3     1  UNL1        0.0520
     18  C         26.1300  -23.0130  -16.8660 C.2     1  UNL1        0.2950
     19  O         27.1180  -22.9350  -17.5860 O.2     1  UNL1       -0.2590
     20  O         25.0160  -23.7330  -17.1960 O.3     1  UNL1       -0.3180
     21  C         24.1380  -23.1240  -18.1530 C.3     1  UNL1        0.1740
     22  C         22.7820  -23.8010  -18.1210 C.3     1  UNL1        0.0340
     23  C         19.9040  -22.5210  -10.8870 C.3     1  UNL1        0.0930
     24  C         19.9270  -20.9890  -10.7820 C.3     1  UNL1        0.0260
     25  C         18.8920  -20.3690  -11.7260 C.3     1  UNL1        0.0020
     26  C         17.5610  -21.1280  -11.7680 C.3     1  UNL1        0.0000
     27  C         17.3920  -22.0960  -10.6100 C.3     1  UNL1        0.0020
     28  C         18.5330  -23.1150  -10.5190 C.3     1  UNL1        0.0260
     29  C         19.9080  -24.3780   -8.2470 C.3     1  UNL1        0.1200
     30  C         19.3060  -23.3130   -7.3350 C.2     1  UNL1       -0.0400
     31  C         20.0910  -22.2010   -6.9660 C.2     1  UNL1        0.0080
     32  C         19.6000  -21.2350   -6.0940 C.2     1  UNL1        0.0010
     33  C         18.3140  -21.3540   -5.5790 C.2     1  UNL1        0.0120
     34  C         17.4860  -22.4210   -5.9510 C.2     1  UNL1       -0.0250
     35  C         16.1860  -22.5070   -5.4240 C.2     1  UNL1        0.0120
     36  C         17.9600  -23.4080   -6.8590 C.2     1  UNL1       -0.0190
     37  C         15.3300  -23.5420   -5.7920 C.2     1  UNL1        0.0010
     38  C         15.7580  -24.4990   -6.6980 C.2     1  UNL1        0.0010
     39  C         17.0500  -24.4310   -7.2270 C.2     1  UNL1        0.0130
@<TRIPOS>BOND
     1    21    22    1
     2    21    20    1
     3    19    18    2
     4    20    18    1
     5    18    14    1
     6    15    12    1
     7    14    12   ar
     8    14    16   ar
     9    12    11   ar
    10    16    17    1
    11    16    10   ar
    12    11    13    1
    13    11    10   ar
    14    10     8    1
    15     6     7    1
    16     6     1    1
    17     8     7    1
    18     8     9    2
    19    26    25    1
    20    26    27    1
    21    25    24    1
    22    23    24    1
    23    23    28    1
    24    23     5    1
    25    27    28    1
    26     1     5   ar
    27     1     2   ar
    28     5     4   ar
    29     2     3   ar
    30     4     3   ar
    31     4    29    1
    32    29    30    1
    33    30    31    2
    34    30    36    1
    35    39    36    1
    36    39    38    2
    37    31    32    1
    38    36    34    2
    39    38    37    1
    40    32    33    2
    41    34    33    1
    42    34    35    1
    43    37    35    2
