@<TRIPOS>MOLECULE
46868_out_ligand_01.pdbqt
 37 41 0 0 0
SMALL
GASTEIGER

@<TRIPOS>ATOM
      1  C         25.8360  -20.0810  -15.2310 C.2     1  UNL1        0.0360
      2  C         26.2430  -20.6700  -16.4370 C.2     1  UNL1        0.0290
      3  C         26.8490  -19.9040  -17.4350 C.2     1  UNL1        0.0040
      4  C         27.0670  -18.5440  -17.2310 C.2     1  UNL1        0.0230
      5  C         26.6690  -17.9460  -16.0310 C.2     1  UNL1        0.0460
      6  C         26.9130  -16.5530  -15.8030 C.1     1  UNL1        0.0990
      7  N         27.1200  -15.4310  -15.6010 N.1     1  UNL1       -0.1910
      8  C         26.0550  -18.7170  -15.0340 C.2     1  UNL1        0.0520
      9  N         25.2680  -20.9310  -14.2590 N.am    1  UNL1       -0.3260
     10  C         25.9160  -21.6030  -13.2410 C.2     1  UNL1        0.2360
     11  O         27.0980  -21.4400  -12.9380 O.2     1  UNL1       -0.2720
     12  H         24.2490  -20.9530  -14.2340 H       1  UNL1        0.1690
     13  C         25.0580  -22.6140  -12.4690 C.3     1  UNL1        0.1430
     14  C         25.1310  -24.0360  -13.0200 C.3     1  UNL1        0.0310
     15  S         23.3690  -21.9960  -12.1620 S.3     1  UNL1       -0.0760
     16  C         22.8320  -22.8410  -10.7550 C.ar    1  UNL1        0.1920
     17  N         23.6150  -23.4480   -9.8970 N.ar    1  UNL1       -0.1230
     18  N         22.8340  -24.0080   -8.9360 N.ar    1  UNL1       -0.1340
     19  C         21.5690  -23.7610   -9.2260 C.ar    1  UNL1        0.1350
     20  N         21.5130  -23.0050  -10.3850 N.ar    1  UNL1       -0.3060
     21  C         20.4210  -24.2540   -8.3990 C.3     1  UNL1        0.1200
     22  C         19.7570  -23.2160   -7.4970 C.2     1  UNL1       -0.0400
     23  C         20.4960  -22.1060   -7.0390 C.2     1  UNL1        0.0080
     24  C         19.9240  -21.1600   -6.1930 C.2     1  UNL1        0.0010
     25  C         18.5970  -21.2970   -5.7990 C.2     1  UNL1        0.0120
     26  C         17.8190  -22.3660   -6.2560 C.2     1  UNL1       -0.0250
     27  C         16.4760  -22.4660   -5.8570 C.2     1  UNL1        0.0120
     28  C         18.3810  -23.3330   -7.1330 C.2     1  UNL1       -0.0190
     29  C         15.6640  -23.5000   -6.3170 C.2     1  UNL1        0.0010
     30  C         16.1850  -24.4450   -7.1880 C.2     1  UNL1        0.0010
     31  C         17.5220  -24.3620   -7.5910 C.2     1  UNL1        0.0130
     32  C         20.3550  -22.4140  -11.0480 C.3     1  UNL1        0.0930
     33  C         18.9990  -23.0080  -10.6400 C.3     1  UNL1        0.0260
     34  C         17.8610  -22.4060  -11.4660 C.3     1  UNL1        0.0020
     35  C         17.8520  -20.8810  -11.3650 C.3     1  UNL1        0.0000
     36  C         19.1950  -20.2810  -11.7720 C.3     1  UNL1        0.0020
     37  C         20.3530  -20.8780  -10.9710 C.3     1  UNL1        0.0260
@<TRIPOS>BOND
     1     3     4    2
     2     3     2    1
     3     4     5    1
     4     2     1    2
     5     5     6    1
     6     5     8    2
     7     6     7    3
     8     1     8    1
     9     1     9    1
    10     9    12    1
    11     9    10   am
    12    10    11    2
    13    10    13    1
    14    14    13    1
    15    13    15    1
    16    15    16    1
    17    36    35    1
    18    36    37    1
    19    34    35    1
    20    34    33    1
    21    32    37    1
    22    32    33    1
    23    32    20    1
    24    16    20   ar
    25    16    17   ar
    26    20    19   ar
    27    17    18   ar
    28    19    18   ar
    29    19    21    1
    30    21    22    1
    31    31    30    2
    32    31    28    1
    33    22    28    2
    34    22    23    1
    35    30    29    1
    36    28    26    1
    37    23    24    2
    38    29    27    2
    39    26    27    1
    40    26    25    2
    41    24    25    1
