@<TRIPOS>MOLECULE
46990_out_ligand_01.pdbqt
 35 38 0 0 0
SMALL
GASTEIGER

@<TRIPOS>ATOM
      1  S         20.7030  -24.0700   -9.1710 S.3     1  UNL1       -0.0820
      2  C         21.7980  -22.9610   -8.2490 C.3     1  UNL1        0.1850
      3  C         22.8020  -22.2620   -9.1620 C.2     1  UNL1        0.2310
      4  N         23.3590  -23.1190  -10.1020 N.am    1  UNL1       -0.3260
      5  H         23.1790  -24.1060   -9.9650 H       1  UNL1        0.1690
      6  O         23.0390  -21.0590   -9.0600 O.2     1  UNL1       -0.2720
      7  C         24.2730  -22.7930  -11.1250 C.2     1  UNL1        0.0360
      8  C         25.6280  -23.1280  -11.1030 C.2     1  UNL1        0.0290
      9  C         26.4740  -22.7760  -12.1630 C.2     1  UNL1        0.0040
     10  C         25.9720  -22.0800  -13.2580 C.2     1  UNL1        0.0250
     11  C         24.6260  -21.7200  -13.2700 C.2     1  UNL1        0.0760
     12  C         23.7730  -22.0810  -12.2200 C.2     1  UNL1        0.0540
     13  S         23.9730  -20.8050  -14.6400 S.O2    1  UNL1        0.2390
     14  O         24.2600  -21.5260  -15.8590 O.2     1  UNL1       -0.2060
     15  O         22.6470  -20.3530  -14.2930 O.2     1  UNL1       -0.2060
     16  N         24.9880  -19.4600  -14.6560 N.3     1  UNL1       -0.2250
     17  H         25.5320  -19.4480  -13.7930 H       1  UNL1        0.1360
     18  H         24.4990  -18.5800  -14.8140 H       1  UNL1        0.1360
     19  C         19.1270  -23.6430   -8.5220 C.ar    1  UNL1        0.1720
     20  N         18.8700  -24.0020   -7.3040 N.ar    1  UNL1       -0.2240
     21  C         17.6250  -23.6750   -6.7580 C.ar    1  UNL1        0.0770
     22  C         17.3940  -23.9030   -5.4010 C.2     1  UNL1        0.0560
     23  C         16.6040  -23.1420   -7.5340 C.ar    1  UNL1        0.0610
     24  C         16.1530  -23.5950   -4.8360 C.2     1  UNL1        0.0360
     25 CL         15.8890  -23.8650   -3.1560 Cl      1  UNL1       -0.0840
     26  C         15.1280  -23.0700   -5.6190 C.2     1  UNL1        0.0250
     27  C         15.3510  -22.8470   -6.9800 C.2     1  UNL1        0.0210
     28  C         16.8950  -22.8730   -8.9510 C.ar    1  UNL1        0.2620
     29  O         15.9550  -22.5920   -9.6910 O.2     1  UNL1       -0.2670
     30  N         18.2290  -22.9740   -9.3540 N.ar    1  UNL1       -0.2870
     31  C         18.5600  -22.5520  -10.7350 C.3     1  UNL1        0.0950
     32  C         17.9470  -21.1920  -11.1120 C.3     1  UNL1        0.0260
     33  C         18.9350  -20.5960  -12.1060 C.3     1  UNL1        0.0020
     34  C         20.2850  -21.0080  -11.5410 C.3     1  UNL1        0.0020
     35  C         20.0660  -22.4400  -11.0630 C.3     1  UNL1        0.0260
@<TRIPOS>BOND
     1    14    13    2
     2    18    16    1
     3    16    13    1
     4    16    17    1
     5    13    15    2
     6    13    11    1
     7    11    10    2
     8    11    12    1
     9    10     9    1
    10    12     7    2
    11     9     8    2
    12    33    34    1
    13    33    32    1
    14    34    35    1
    15     7     8    1
    16     7     4    1
    17    32    31    1
    18    35    31    1
    19    31    30    1
    20     4     5    1
    21     4     3   am
    22    29    28    2
    23    30    28   ar
    24    30    19   ar
    25     1    19    1
    26     1     2    1
    27     3     6    2
    28     3     2    1
    29    28    23   ar
    30    19    20   ar
    31    23    27    1
    32    23    21   ar
    33    20    21   ar
    34    27    26    2
    35    21    22    1
    36    26    24    1
    37    22    24    2
    38    24    25    1
