@<TRIPOS>MOLECULE
47110_out_ligand_01.pdbqt
 31 36 0 0 0
SMALL
GASTEIGER

@<TRIPOS>ATOM
      1  C         19.3090  -22.4820   -8.2570 C.ar    1  UNL1        0.0750
      2  N         20.6590  -22.5570   -8.1770 N.ar    1  UNL1       -0.2390
      3  C         21.3300  -22.2760   -9.3160 C.ar    1  UNL1        0.1120
      4  S         23.0290  -22.3310   -9.3390 S.2     1  UNL1       -0.0640
      5  C         23.0920  -21.9090  -11.0040 C.ar    1  UNL1        0.0770
      6  C         24.2090  -21.7360  -11.8330 C.2     1  UNL1        0.1240
      7  N         23.9830  -21.4010  -13.1220 N.2     1  UNL1       -0.2290
      8  C         22.7200  -21.2530  -13.5410 C.2     1  UNL1        0.2350
      9  N         21.6020  -21.3930  -12.8250 N.2     1  UNL1       -0.2400
     10  C         21.8150  -21.7280  -11.5250 C.ar    1  UNL1        0.0920
     11  C         20.7870  -21.9330  -10.5460 C.ar    1  UNL1        0.0370
     12  C         19.3860  -21.8700  -10.5910 C.ar    1  UNL1       -0.0340
     13  C         18.6520  -22.1440   -9.4290 C.ar    1  UNL1       -0.0210
     14  C         17.1830  -22.0950   -9.7180 C.3     1  UNL1        0.0420
     15  C         17.1540  -21.2920  -11.0260 C.3     1  UNL1        0.0090
     16  C         18.4690  -21.5960  -11.7510 C.3     1  UNL1        0.0400
     17  N         25.5110  -21.9180  -11.3660 N.pl3   1  UNL1       -0.2720
     18  H         25.6510  -21.4810  -10.4610 H       1  UNL1        0.1290
     19  C         26.5900  -21.6930  -12.3140 C.3     1  UNL1        0.1340
     20  C         26.7890  -22.8900  -13.2020 C.2     1  UNL1       -0.0270
     21  C         26.8180  -22.7770  -14.5950 C.2     1  UNL1        0.0110
     22  C         26.9880  -23.9160  -15.3770 C.2     1  UNL1        0.0200
     23  C         27.1200  -25.1370  -14.7370 C.2     1  UNL1        0.1160
     24  N         27.0910  -25.2880  -13.3960 N.2     1  UNL1       -0.2730
     25  C         26.9200  -24.1650  -12.6620 C.2     1  UNL1        0.1240
     26  C         18.6060  -22.8130   -7.0090 C.2     1  UNL1       -0.0070
     27  C         18.0280  -24.0820   -6.8330 C.2     1  UNL1        0.0140
     28  C         17.3540  -24.4100   -5.6540 C.2     1  UNL1        0.0010
     29  C         17.2560  -23.4760   -4.6260 C.2     1  UNL1        0.0000
     30  C         17.8370  -22.2180   -4.7730 C.2     1  UNL1        0.0010
     31  C         18.5090  -21.8920   -5.9530 C.2     1  UNL1        0.0140
@<TRIPOS>BOND
     1    22    23    2
     2    22    21    1
     3    23    24    1
     4    21    20    2
     5     8     7    2
     6     8     9    1
     7    24    25    2
     8    20    25    1
     9    20    19    1
    10     7     6    1
    11     9    10    2
    12    19    17    1
    13     6    17    1
    14     6     5    2
    15    16    15    1
    16    16    12    1
    17    10     5   ar
    18    10    11   ar
    19    17    18    1
    20    15    14    1
    21     5     4   ar
    22    12    11   ar
    23    12    13   ar
    24    11     3   ar
    25    14    13    1
    26    13     1   ar
    27     4     3   ar
    28     3     2   ar
    29     1     2   ar
    30     1    26    1
    31    26    27    2
    32    26    31    1
    33    27    28    1
    34    31    30    2
    35    28    29    2
    36    30    29    1
