@<TRIPOS>MOLECULE
47123_out_ligand_01.pdbqt
 28 32 0 0 0
SMALL
GASTEIGER

@<TRIPOS>ATOM
      1  C         24.4260  -22.2130  -12.4630 C.2     1  UNL1        0.1240
      2  N         24.2380  -21.6180  -13.6590 N.2     1  UNL1       -0.2290
      3  C         23.0150  -21.1760  -13.9830 C.2     1  UNL1        0.2350
      4  N         21.9070  -21.2400  -13.2410 N.2     1  UNL1       -0.2400
      5  C         22.0800  -21.8340  -12.0320 C.ar    1  UNL1        0.0920
      6  C         23.3140  -22.3270  -11.6160 C.ar    1  UNL1        0.0770
      7  S         23.2090  -23.0160  -10.0450 S.2     1  UNL1       -0.0640
      8  C         21.5520  -22.6590   -9.9200 C.ar    1  UNL1        0.1120
      9  N         20.8710  -22.9860   -8.8000 N.ar    1  UNL1       -0.2390
     10  C         19.5600  -22.6470   -8.7860 C.ar    1  UNL1        0.0750
     11  C         18.9440  -22.0370   -9.8670 C.ar    1  UNL1       -0.0210
     12  C         19.6840  -21.7190  -11.0130 C.ar    1  UNL1       -0.0340
     13  C         21.0510  -22.0290  -11.0510 C.ar    1  UNL1        0.0370
     14  C         18.8150  -21.0420  -12.0370 C.3     1  UNL1        0.0400
     15  C         17.4200  -21.4550  -11.5580 C.3     1  UNL1        0.0090
     16  C         17.5150  -21.6150  -10.0360 C.3     1  UNL1        0.0420
     17  N         25.6820  -22.7040  -12.1030 N.pl3   1  UNL1       -0.2740
     18  H         25.6150  -23.3980  -11.3660 H       1  UNL1        0.1290
     19  C         26.7320  -21.6980  -11.9270 C.3     1  UNL1        0.1200
     20  C         26.3210  -20.6500  -10.8780 C.3     1  UNL1        0.1810
     21  O         26.5400  -19.2960  -11.2850 O.3     1  UNL1       -0.3950
     22  C         26.8470  -19.1560  -12.6650 C.3     1  UNL1        0.2010
     23  C         18.8510  -22.9960   -7.5430 C.2     1  UNL1       -0.0070
     24  C         18.7940  -22.0820   -6.4770 C.2     1  UNL1        0.0140
     25  C         18.1300  -22.3980   -5.2880 C.2     1  UNL1        0.0010
     26  C         17.5020  -23.6330   -5.1480 C.2     1  UNL1        0.0000
     27  C         17.5320  -24.5480   -6.1980 C.2     1  UNL1        0.0010
     28  C         18.1980  -24.2310   -7.3850 C.2     1  UNL1        0.0140
@<TRIPOS>BOND
     1     3     2    1
     2     3     4    2
     3     2     1    2
     4     4     5    1
     5    22    21    1
     6     1    17    1
     7     1     6    1
     8    17    19    1
     9    17    18    1
    10    14    15    1
    11    14    12    1
    12     5     6   ar
    13     5    13   ar
    14    19    20    1
    15     6     7   ar
    16    15    16    1
    17    21    20    1
    18    13    12   ar
    19    13     8   ar
    20    12    11   ar
    21     7     8   ar
    22    16    11    1
    23     8     9   ar
    24    11    10   ar
    25     9    10   ar
    26    10    23    1
    27    23    28    2
    28    23    24    1
    29    28    27    1
    30    24    25    2
    31    27    26    2
    32    25    26    1
