@<TRIPOS>MOLECULE
47194_out_ligand_01.pdbqt
 36 39 0 0 0
SMALL
GASTEIGER

@<TRIPOS>ATOM
      1  C         25.0400  -21.1020  -17.4200 C.3     1  UNL1        0.1630
      2  N         25.2480  -21.9750  -16.2810 N.ar    1  UNL1       -0.2860
      3  C         26.2040  -22.9840  -16.3220 C.ar    1  UNL1        0.3300
      4  O         26.9330  -23.2070  -17.2880 O.2     1  UNL1       -0.2460
      5  N         26.3270  -23.7830  -15.1980 N.ar    1  UNL1       -0.2730
      6  C         25.5730  -23.7250  -14.0480 C.ar    1  UNL1        0.2800
      7  O         25.6980  -24.5300  -13.1320 O.2     1  UNL1       -0.2650
      8  C         24.6350  -22.6590  -14.0690 C.ar    1  UNL1        0.1660
      9  C         24.4780  -21.8380  -15.1450 C.ar    1  UNL1        0.1860
     10  N         23.4900  -20.9270  -14.9480 N.ar    1  UNL1       -0.0420
     11  C         22.9940  -21.2060  -13.7530 C.ar    1  UNL1        0.7250
     12  N         23.7320  -22.2060  -13.1470 N.ar    1  UNL1       -0.1680
     13  H         27.0070  -24.5240  -15.2610 H       1  UNL1        0.1730
     14  C         23.6100  -22.6670  -11.7720 C.3     1  UNL1        0.1820
     15  C         24.2190  -21.6710  -10.7910 C.3     1  UNL1        0.1610
     16  O         25.4700  -22.2050  -10.3180 O.3     1  UNL1       -0.3920
     17  H         26.1210  -22.0300  -11.0290 H       1  UNL1        0.2100
     18  C         23.2880  -21.4440   -9.5940 C.3     1  UNL1        0.2090
     19  O         23.1270  -22.6630   -8.8620 O.2     1  UNL1       -0.3490
     20  C         21.8700  -23.0290   -8.4700 C.2     1  UNL1        0.0680
     21  C         20.9670  -22.2530   -7.7410 C.2     1  UNL1        0.0370
     22  C         19.7120  -22.7680   -7.4010 C.2     1  UNL1        0.0030
     23  C         19.3530  -24.0570   -7.7870 C.2     1  UNL1        0.0000
     24  C         20.2480  -24.8370   -8.5130 C.2     1  UNL1        0.0030
     25  C         21.5010  -24.3230   -8.8520 C.2     1  UNL1        0.0370
     26  N         21.9200  -20.6530  -13.1190 N.pl3   1  UNL1       -0.1070
     27  H         22.1380  -19.8080  -12.5710 H       1  UNL1        0.2080
     28  N         20.9000  -21.3770  -12.5510 N.2     1  UNL1       -0.1720
     29  C         19.9440  -20.6830  -12.0160 C.2     1  UNL1        0.1500
     30  C         18.7680  -21.3270  -11.3970 C.2     1  UNL1       -0.0170
     31  C         18.7920  -22.6820  -11.0460 C.2     1  UNL1        0.0160
     32  C         17.6670  -23.2660  -10.4620 C.2     1  UNL1        0.0430
     33  C         16.5320  -22.4930  -10.2370 C.2     1  UNL1        0.1160
     34  F         15.4520  -23.0550   -9.6770 F       1  UNL1       -0.2060
     35  C         16.4990  -21.1450  -10.5860 C.2     1  UNL1        0.0430
     36  C         17.6220  -20.5560  -11.1700 C.2     1  UNL1        0.0160
@<TRIPOS>BOND
     1     1     2    1
     2     4     3    2
     3     3     2   ar
     4     3     5   ar
     5     2     9   ar
     6    13     5    1
     7     5     6   ar
     8     9    10   ar
     9     9     8   ar
    10    10    11   ar
    11     8     6   ar
    12     8    12   ar
    13     6     7    2
    14    11    12   ar
    15    11    26    1
    16    12    14    1
    17    26    27    1
    18    26    28    1
    19    28    29    2
    20    29    30    1
    21    14    15    1
    22    30    36    2
    23    30    31    1
    24    36    35    1
    25    31    32    2
    26    17    16    1
    27    15    16    1
    28    15    18    1
    29    35    33    2
    30    32    33    1
    31    33    34    1
    32    18    19    1
    33    19    20    1
    34    25    24    1
    35    25    20    2
    36    24    23    2
    37    20    21    1
    38    23    22    1
    39    21    22    2
