@<TRIPOS>MOLECULE
4749_out_ligand_01.pdbqt
 37 40 0 0 0
SMALL
GASTEIGER

@<TRIPOS>ATOM
      1  C         21.3470  -22.2250  -11.3490 C.2     1  UNL1        0.0360
      2  C         20.3800  -21.3800  -11.8990 C.2     1  UNL1        0.0300
      3  C         19.0550  -21.4300  -11.4510 C.2     1  UNL1        0.0190
      4  C         18.6850  -22.3220  -10.4400 C.2     1  UNL1        0.0320
      5  C         19.6410  -23.1880   -9.9020 C.2     1  UNL1        0.0190
      6  C         20.9640  -23.1370  -10.3580 C.2     1  UNL1        0.0300
      7  N         22.6960  -22.2450  -11.7550 N.am    1  UNL1       -0.3090
      8  C         23.7830  -21.7010  -11.1010 C.2     1  UNL1        0.3270
      9  N         24.9980  -21.8120  -11.7970 N.am    1  UNL1       -0.2960
     10  O         23.7420  -21.2290   -9.9670 O.2     1  UNL1       -0.2460
     11  C         26.2230  -21.8840  -11.0000 C.3     1  UNL1        0.1440
     12  C         25.1420  -22.1570  -13.1750 C.2     1  UNL1        0.0800
     13  C         26.6610  -23.3300  -10.8450 C.3     1  UNL1        0.1010
     14  S         27.1200  -24.0540  -12.4500 S.3     1  UNL1       -0.1060
     15  C         26.0540  -23.1550  -13.5720 C.2     1  UNL1        0.1210
     16  N         26.1960  -23.5550  -14.8590 N.2     1  UNL1       -0.2440
     17  C         25.4510  -22.9510  -15.8080 C.2     1  UNL1        0.0320
     18  C         25.6330  -23.4110  -17.2230 C.3     1  UNL1        0.0700
     19  C         24.5700  -21.9200  -15.5130 C.2     1  UNL1        0.0350
     20  C         24.4240  -21.4860  -14.1880 C.2     1  UNL1       -0.0300
     21  C         23.5500  -20.2830  -13.9480 C.3     1  UNL1        0.0500
     22  H         22.9150  -22.8500  -12.5330 H       1  UNL1        0.1700
     23  C         17.2660  -22.3390   -9.9870 C.2     1  UNL1        0.2510
     24  O         16.5720  -21.3340  -10.0890 O.2     1  UNL1       -0.2680
     25  N         16.8220  -23.5210   -9.4250 N.am    1  UNL1       -0.3570
     26  H         17.5300  -24.1660   -9.1000 H       1  UNL1        0.1620
     27  C         15.5100  -23.5820   -8.8090 C.3     1  UNL1        0.1240
     28  C         15.4000  -24.6960   -7.7680 C.3     1  UNL1        0.0500
     29  C         16.3180  -24.4480   -6.5610 C.3     1  UNL1        0.2740
     30  N         15.9650  -23.3070   -5.6910 N.3     1  UNL1        0.0880
     31  C         15.5060  -23.7820   -4.3820 C.3     1  UNL1        0.3100
     32  C         17.0070  -22.2540   -5.5930 C.3     1  UNL1        0.2220
     33  C         17.2940  -21.8820   -4.1140 C.3     1  UNL1        0.0360
     34  C         18.6360  -21.1850   -3.8760 C.3     1  UNL1        0.0020
     35  C         19.1600  -20.5060   -5.1280 C.3     1  UNL1        0.0000
     36  C         19.3670  -21.5130   -6.2540 C.3     1  UNL1        0.0020
     37  C         18.3380  -22.6520   -6.2660 C.3     1  UNL1        0.0360
@<TRIPOS>BOND
     1    18    17    1
     2    17    19    2
     3    17    16    1
     4    19    20    1
     5    16    15    2
     6    20    21    1
     7    20    12    2
     8    15    12    1
     9    15    14    1
    10    12     9    1
    11    22     7    1
    12    14    13    1
    13     2     3    1
    14     2     1    2
    15     9     8   am
    16     9    11    1
    17     7     1    1
    18     7     8   am
    19     3     4    2
    20     1     6    1
    21     8    10    2
    22    11    13    1
    23     4    23    1
    24     4     5    1
    25     6     5    2
    26    24    23    2
    27    23    25   am
    28    25    26    1
    29    25    27    1
    30    27    28    1
    31    28    29    1
    32    29    30    1
    33    37    36    1
    34    37    32    1
    35    36    35    1
    36    30    32    1
    37    30    31    1
    38    32    33    1
    39    35    34    1
    40    33    34    1
