@<TRIPOS>MOLECULE
4771_out_ligand_01.pdbqt
 38 41 0 0 0
SMALL
GASTEIGER

@<TRIPOS>ATOM
      1  N         19.9160  -22.2210   -9.2360 N.am    1  UNL1       -0.3160
      2  C         20.9180  -23.0770   -9.6550 C.2     1  UNL1        0.2560
      3  O         21.2340  -24.1630   -9.1830 O.2     1  UNL1       -0.2670
      4  H         19.8780  -21.2980   -9.6550 H       1  UNL1        0.1690
      5  C         18.9970  -22.4220   -8.2140 C.ar    1  UNL1        0.0940
      6  C         17.6820  -22.8580   -8.3490 C.ar    1  UNL1        0.0800
      7  C         17.0470  -22.9280   -7.0480 C.ar    1  UNL1       -0.0210
      8  C         17.8960  -22.5700   -6.0200 C.ar    1  UNL1        0.0300
      9  C         15.6530  -23.3790   -6.7060 C.3     1  UNL1        0.0810
     10  S         19.4380  -22.1740   -6.5940 S.2     1  UNL1       -0.0730
     11  C         17.4820  -22.5810   -4.5610 C.3     1  UNL1        0.1850
     12  N         16.0780  -22.1140   -4.4590 N.3     1  UNL1        0.1060
     13  C         17.6280  -23.9960   -3.9740 C.3     1  UNL1        0.0540
     14  C         18.3100  -21.6130   -3.6910 C.3     1  UNL1        0.0540
     15  C         15.0920  -22.6840   -5.4190 C.3     1  UNL1        0.1550
     16  H         16.0990  -21.1010   -4.5870 H       1  UNL1        0.3180
     17  C         14.2120  -23.6800   -4.6430 C.3     1  UNL1        0.0490
     18  C         14.1830  -21.5120   -5.8630 C.3     1  UNL1        0.0490
     19  C         17.0360  -23.2090   -9.6230 C.2     1  UNL1        0.2960
     20  O         16.0670  -23.9550   -9.7100 O.2     1  UNL1       -0.2590
     21  O         17.6300  -22.6260  -10.7140 O.3     1  UNL1       -0.3220
     22  C         17.0650  -21.3630  -11.0740 C.3     1  UNL1        0.2130
     23  C         21.7240  -22.5640  -10.8020 C.2     1  UNL1        0.0320
     24  C         23.0890  -22.8810  -10.8520 C.2     1  UNL1        0.0180
     25  C         23.8850  -22.4060  -11.8970 C.2     1  UNL1        0.0260
     26  C         23.3060  -21.6350  -12.9090 C.2     1  UNL1        0.0790
     27  C         21.9440  -21.3120  -12.8680 C.2     1  UNL1        0.0260
     28  C         21.1500  -21.7870  -11.8200 C.2     1  UNL1        0.0180
     29  S         24.3290  -20.9680  -14.2100 S.O2    1  UNL1        0.2600
     30  O         24.8910  -19.7270  -13.7200 O.2     1  UNL1       -0.2000
     31  O         23.5440  -21.0030  -15.4270 O.2     1  UNL1       -0.2000
     32  N         25.5800  -22.1080  -14.3470 N.3     1  UNL1       -0.3070
     33  C         25.7870  -22.7210  -15.6830 C.3     1  UNL1        0.1350
     34  C         26.9660  -23.6940  -15.7400 C.3     1  UNL1        0.0210
     35  C         26.9100  -24.8540  -14.7470 C.3     1  UNL1        0.0020
     36  C         26.5110  -24.5040  -13.3150 C.3     1  UNL1        0.0020
     37  C         27.1190  -23.2150  -12.7570 C.3     1  UNL1        0.0210
     38  C         26.7820  -21.9250  -13.5130 C.3     1  UNL1        0.1350
@<TRIPOS>BOND
     1    34    33    1
     2    34    35    1
     3    33    32    1
     4    31    29    2
     5    35    36    1
     6    32    29    1
     7    32    38    1
     8    29    30    2
     9    29    26    1
    10    38    37    1
    11    36    37    1
    12    26    27    2
    13    26    25    1
    14    27    28    1
    15    25    24    2
    16    28    23    2
    17    22    21    1
    18    24    23    1
    19    23     2    1
    20    21    19    1
    21    20    19    2
    22     2     1   am
    23     2     3    2
    24     4     1    1
    25    19     6    1
    26     1     5    1
    27     6     5   ar
    28     6     7   ar
    29     5    10   ar
    30     7     9    1
    31     7     8   ar
    32     9    15    1
    33    10     8   ar
    34     8    11    1
    35    18    15    1
    36    15    17    1
    37    15    12    1
    38    16    12    1
    39    11    12    1
    40    11    13    1
    41    11    14    1
