@<TRIPOS>MOLECULE
47967_out_ligand_01.pdbqt
 36 39 0 0 0
SMALL
GASTEIGER

@<TRIPOS>ATOM
      1  N         23.3880  -23.9910   -8.8480 N.1     1  UNL1       -0.1910
      2  C         22.9770  -23.3240   -9.7070 C.1     1  UNL1        0.1030
      3  C         22.5860  -22.5440  -10.8500 C.ar    1  UNL1        0.0850
      4  C         21.2890  -22.3070  -11.2440 C.ar    1  UNL1        0.0980
      5  S         21.2020  -21.5230  -12.7480 S.2     1  UNL1       -0.0750
      6  C         22.9060  -21.3640  -12.8610 C.ar    1  UNL1       -0.0070
      7  C         23.5460  -21.9980  -11.7970 C.ar    1  UNL1       -0.0210
      8  C         25.0460  -22.1670  -11.6520 C.3     1  UNL1        0.0410
      9  C         25.4860  -23.5440  -12.1780 C.3     1  UNL1        0.0050
     10  C         26.8760  -23.5340  -12.8210 C.3     1  UNL1        0.0000
     11  C         27.1210  -24.7260  -13.7620 C.3     1  UNL1        0.0000
     12  C         26.1620  -24.8410  -14.9610 C.3     1  UNL1        0.0000
     13  C         26.2450  -23.6710  -15.9500 C.3     1  UNL1        0.0000
     14  C         24.8850  -23.2680  -16.5470 C.3     1  UNL1        0.0000
     15  C         23.8970  -22.6120  -15.5670 C.3     1  UNL1        0.0000
     16  C         24.4410  -21.3250  -14.9390 C.3     1  UNL1        0.0050
     17  C         23.4600  -20.5820  -14.0300 C.3     1  UNL1        0.0470
     18  N         20.0340  -22.5820  -10.7480 N.am    1  UNL1       -0.3160
     19  C         18.9500  -21.7410  -10.8650 C.2     1  UNL1        0.2560
     20  O         18.9010  -20.7180  -11.5360 O.2     1  UNL1       -0.2670
     21  H         19.8670  -23.5480  -10.4850 H       1  UNL1        0.1690
     22  C         17.7270  -22.2120  -10.1580 C.2     1  UNL1        0.0330
     23  C         16.4530  -21.7980  -10.5680 C.2     1  UNL1        0.0170
     24  C         15.3230  -22.2470   -9.8860 C.2     1  UNL1        0.0020
     25  C         15.4620  -23.1150   -8.8020 C.2     1  UNL1        0.0090
     26  C         16.7300  -23.5570   -8.3940 C.2     1  UNL1       -0.0330
     27  C         17.8640  -23.0980   -9.0810 C.2     1  UNL1        0.0260
     28  C         16.8610  -24.4820   -7.2100 C.3     1  UNL1        0.2140
     29  O         18.1460  -24.2510   -6.6180 O.2     1  UNL1       -0.3450
     30  C         18.0560  -23.3270   -5.6080 C.2     1  UNL1        0.0860
     31  C         17.0970  -23.5370   -4.6130 C.2     1  UNL1        0.0380
     32  C         16.9450  -22.6050   -3.5860 C.2     1  UNL1        0.0030
     33  C         17.7370  -21.4580   -3.5620 C.2     1  UNL1        0.0020
     34  C         18.6800  -21.2360   -4.5700 C.2     1  UNL1        0.0220
     35  C         18.8350  -22.1680   -5.6000 C.2     1  UNL1        0.0440
     36 BR         20.0990  -21.8030   -6.9650 Br      1  UNL1       -0.0480
@<TRIPOS>BOND
     1    14    13    1
     2    14    15    1
     3    13    12    1
     4    15    16    1
     5    12    11    1
     6    16    17    1
     7    17     6    1
     8    11    10    1
     9     6     5   ar
    10     6     7   ar
    11    10     9    1
    12     5     4   ar
    13     9     8    1
    14     7     8    1
    15     7     3   ar
    16    20    19    2
    17     4     3   ar
    18     4    18    1
    19    19    18   am
    20    19    22    1
    21     3     2    1
    22    18    21    1
    23    23    22    2
    24    23    24    1
    25    22    27    1
    26    24    25    2
    27     2     1    3
    28    27    26    2
    29    25    26    1
    30    26    28    1
    31    28    29    1
    32    36    35    1
    33    29    30    1
    34    30    35    2
    35    30    31    1
    36    35    34    1
    37    31    32    2
    38    34    33    2
    39    32    33    1
