@<TRIPOS>MOLECULE
4839_out_ligand_01.pdbqt
 32 35 0 0 0
SMALL
GASTEIGER

@<TRIPOS>ATOM
      1  N         23.5170  -21.9280  -11.6230 N.ar    1  UNL1       -0.1660
      2  C         24.1810  -21.6670  -10.4320 C.ar    1  UNL1        0.7260
      3  N         25.2070  -20.8580  -10.6440 N.ar    1  UNL1       -0.0420
      4  C         25.1680  -20.5610  -11.9650 C.ar    1  UNL1        0.1860
      5  C         24.1310  -21.1820  -12.5970 C.ar    1  UNL1        0.1670
      6  C         23.8710  -21.0020  -13.9830 C.ar    1  UNL1        0.2800
      7  O         22.9250  -21.4820  -14.5970 O.2     1  UNL1       -0.2650
      8  N         24.7990  -20.1880  -14.5940 N.ar    1  UNL1       -0.2730
      9  C         25.8550  -19.5250  -13.9970 C.ar    1  UNL1        0.3300
     10  O         26.5650  -18.7950  -14.6880 O.2     1  UNL1       -0.2460
     11  N         26.0410  -19.7290  -12.6350 N.ar    1  UNL1       -0.2860
     12  C         27.1210  -19.0700  -11.9260 C.3     1  UNL1        0.1630
     13  H         24.6690  -20.0110  -15.5770 H       1  UNL1        0.1730
     14  N         23.7870  -22.2180   -9.2480 N.pl3   1  UNL1       -0.1070
     15  H         23.9780  -23.2080   -9.1130 H       1  UNL1        0.2080
     16  N         22.6910  -21.8200   -8.5250 N.2     1  UNL1       -0.1720
     17  C         21.8230  -22.7450   -8.2540 C.2     1  UNL1        0.1500
     18  C         20.6130  -22.4690   -7.4540 C.2     1  UNL1       -0.0170
     19  C         19.5440  -23.3690   -7.5180 C.2     1  UNL1        0.0160
     20  C         18.3910  -23.1260   -6.7700 C.2     1  UNL1        0.0430
     21  C         18.3180  -21.9920   -5.9670 C.2     1  UNL1        0.1160
     22  F         17.2100  -21.7630   -5.2510 F       1  UNL1       -0.2060
     23  C         19.3780  -21.0940   -5.8950 C.2     1  UNL1        0.0430
     24  C         20.5330  -21.3310   -6.6410 C.2     1  UNL1        0.0160
     25  C         22.3920  -22.8260  -11.8280 C.3     1  UNL1        0.1860
     26  C         21.0690  -22.1310  -11.6090 C.2     1  UNL1       -0.0390
     27  C         20.9340  -20.7640  -11.8820 C.2     1  UNL1        0.0090
     28  C         19.7170  -20.1150  -11.6780 C.2     1  UNL1        0.0010
     29  C         18.6160  -20.8250  -11.2010 C.2     1  UNL1        0.0070
     30  C         18.7210  -22.1930  -10.9330 C.2     1  UNL1       -0.0610
     31  C         17.5470  -22.9540  -10.3910 C.3     1  UNL1        0.0480
     32  C         19.9530  -22.8350  -11.1260 C.2     1  UNL1        0.0150
@<TRIPOS>BOND
     1    13     8    1
     2    10     9    2
     3     7     6    2
     4     8     9   ar
     5     8     6   ar
     6     9    11   ar
     7     6     5   ar
     8    11     4   ar
     9    11    12    1
    10     5     4   ar
    11     5     1   ar
    12     4     3   ar
    13    27    28    1
    14    27    26    2
    15    25     1    1
    16    25    26    1
    17    28    29    2
    18     1     2   ar
    19    26    32    1
    20    29    30    1
    21    32    30    2
    22    30    31    1
    23     3     2   ar
    24     2    14    1
    25    14    15    1
    26    14    16    1
    27    16    17    2
    28    17    18    1
    29    19    18    2
    30    19    20    1
    31    18    24    1
    32    20    21    2
    33    24    23    2
    34    21    23    1
    35    21    22    1
