@<TRIPOS>MOLECULE
4844_out_ligand_01.pdbqt
 31 34 0 0 0
SMALL
GASTEIGER

@<TRIPOS>ATOM
      1  C         20.4530  -22.3410   -8.2190 C.2     1  UNL1        0.0360
      2  C         21.6190  -22.0400   -7.5200 C.2     1  UNL1        0.0320
      3  C         22.7810  -21.6820   -8.2100 C.2     1  UNL1        0.0400
      4  C         22.7950  -21.6420   -9.6060 C.2     1  UNL1        0.0920
      5  C         21.6400  -21.9350  -10.3180 C.2     1  UNL1        0.0680
      6  C         20.4710  -22.2820   -9.6170 C.2     1  UNL1        0.0490
      7  C         21.5530  -21.8800  -11.7910 C.2     1  UNL1        0.2590
      8  O         20.4680  -21.6390  -12.3200 O.2     1  UNL1       -0.2670
      9  N         22.6190  -22.2140  -12.5870 N.am    1  UNL1       -0.3200
     10  C         23.9410  -22.5110  -12.2360 C.2     1  UNL1        0.0700
     11  C         24.6980  -23.2440  -13.1580 C.2     1  UNL1        0.0560
     12  C         26.0270  -23.5650  -12.8790 C.2     1  UNL1        0.0360
     13 CL         26.9350  -24.4880  -14.0120 Cl      1  UNL1       -0.0840
     14  C         26.6260  -23.1410  -11.6980 C.2     1  UNL1        0.0260
     15  C         25.8870  -22.3800  -10.7920 C.2     1  UNL1        0.0410
     16  C         24.5480  -22.0730  -11.0580 C.2     1  UNL1        0.1020
     17  O         23.9520  -21.2020  -10.1840 O.2     1  UNL1       -0.3070
     18  H         22.3380  -22.3620  -13.5500 H       1  UNL1        0.1690
     19  N         19.2340  -22.6960   -7.6080 N.am    1  UNL1       -0.3230
     20  C         18.5970  -22.0760   -6.5510 C.2     1  UNL1        0.2590
     21  O         19.0140  -21.1050   -5.9290 O.2     1  UNL1       -0.2670
     22  H         18.7430  -23.4860   -8.0170 H       1  UNL1        0.1690
     23  C         17.2880  -22.6750   -6.1410 C.2     1  UNL1        0.0650
     24  C         16.8690  -22.4730   -4.8160 C.2     1  UNL1        0.0200
     25  C         15.6640  -23.0150   -4.3580 C.2     1  UNL1        0.0010
     26  C         14.8650  -23.7670   -5.2180 C.2     1  UNL1        0.0030
     27  C         15.2630  -23.9680   -6.5390 C.2     1  UNL1        0.0380
     28  C         16.4570  -23.4060   -7.0050 C.2     1  UNL1        0.0840
     29  O         16.8070  -23.6390   -8.3120 O.2     1  UNL1       -0.3500
     30  C         15.8880  -22.9760   -9.1950 C.3     1  UNL1        0.1710
     31  C         16.6800  -22.0030  -10.0460 C.3     1  UNL1        0.0340
@<TRIPOS>BOND
     1    13    12    1
     2    18     9    1
     3    11    12    1
     4    11    10    2
     5    12    14    2
     6     9    10    1
     7     9     7   am
     8     8     7    2
     9    10    16    1
    10     7     5    1
    11    14    15    1
    12    16    15    2
    13    16    17    1
    14     5     6    1
    15     5     4    2
    16    17     4    1
    17    31    30    1
    18     6     1    2
    19     4     3    1
    20    30    29    1
    21    29    28    1
    22     1    19    1
    23     1     2    1
    24     3     2    2
    25    22    19    1
    26    19    20   am
    27    28    27    1
    28    28    23    2
    29    20    23    1
    30    20    21    2
    31    27    26    2
    32    23    24    1
    33    26    25    1
    34    24    25    2
