@<TRIPOS>MOLECULE
48942_out_ligand_01.pdbqt
 33 36 0 0 0
SMALL
GASTEIGER

@<TRIPOS>ATOM
      1  C         16.2430  -22.3210   -6.7860 C.2     1  UNL1        0.0420
      2  C         14.9790  -22.2530   -6.1660 C.2     1  UNL1        0.0180
      3  C         14.8460  -22.3810   -4.7850 C.2     1  UNL1        0.0010
      4  C         15.9730  -22.5760   -4.0010 C.2     1  UNL1        0.0020
      5  C         17.2360  -22.6410   -4.5930 C.2     1  UNL1        0.0300
      6  C         17.3940  -22.5160   -5.9810 C.2     1  UNL1        0.0490
      7  C         16.3030  -22.1960   -8.2440 C.2     1  UNL1        0.2000
      8  N         15.5140  -22.9420   -9.0950 N.2     1  UNL1       -0.1360
      9  N         15.8310  -22.5870  -10.3320 N.pl3   1  UNL1        0.0250
     10  N         16.7560  -21.6250  -10.1830 N.3     1  UNL1       -0.1820
     11  N         17.1350  -21.3750   -8.9150 N.pl3   1  UNL1       -0.1360
     12  C         17.4540  -21.0790  -11.3160 C.3     1  UNL1        0.2720
     13  C         18.8110  -21.7270  -11.4560 C.2     1  UNL1        0.2430
     14  O         19.0240  -22.8300  -10.9670 O.2     1  UNL1       -0.2710
     15  N         19.7100  -20.9740  -12.1910 N.am    1  UNL1       -0.3260
     16  H         19.4160  -20.0470  -12.4900 H       1  UNL1        0.1690
     17  C         21.0500  -21.2920  -12.4910 C.2     1  UNL1        0.0340
     18  C         21.6060  -20.6830  -13.6270 C.2     1  UNL1        0.0290
     19  C         22.9300  -20.9290  -13.9910 C.2     1  UNL1        0.0020
     20  C         23.7170  -21.7790  -13.2140 C.2     1  UNL1        0.0000
     21  C         23.1750  -22.3890  -12.0840 C.2     1  UNL1        0.0020
     22  C         21.8440  -22.1530  -11.7260 C.2     1  UNL1        0.0290
     23  N         18.6740  -22.5540   -6.5930 N.am    1  UNL1       -0.3220
     24  C         19.2010  -23.5010   -7.4470 C.2     1  UNL1        0.2590
     25  O         18.6160  -24.4800   -7.8990 O.2     1  UNL1       -0.2670
     26  H         19.2580  -21.7410   -6.3890 H       1  UNL1        0.1690
     27  C         20.6020  -23.2560   -7.8970 C.2     1  UNL1        0.0700
     28  C         21.1930  -22.0130   -7.6200 C.2     1  UNL1        0.0200
     29  C         22.5090  -21.7500   -8.0180 C.2     1  UNL1        0.0010
     30  C         23.2400  -22.7220   -8.7030 C.2     1  UNL1        0.0030
     31  C         22.6540  -23.9540   -8.9950 C.2     1  UNL1        0.0430
     32  C         21.3420  -24.2120   -8.5970 C.2     1  UNL1        0.1320
     33  F         20.8090  -25.4030   -8.9110 F       1  UNL1       -0.2050
@<TRIPOS>BOND
     1    19    18    1
     2    19    20    2
     3    18    17    2
     4    20    21    1
     5    17    15    1
     6    17    22    1
     7    16    15    1
     8    15    13   am
     9    21    22    2
    10    13    12    1
    11    13    14    2
    12    12    10    1
    13     9    10    1
    14     9     8    1
    15    10    11    1
    16     8     7    2
    17    31    30    2
    18    31    32    1
    19    11     7    1
    20    33    32    1
    21    30    29    1
    22    32    27    2
    23     7     1    1
    24    29    28    2
    25    25    24    2
    26    27    28    1
    27    27    24    1
    28    24    23   am
    29     1     2    2
    30     1     6    1
    31    23    26    1
    32    23     6    1
    33     2     3    1
    34     6     5    2
    35     3     4    2
    36     5     4    1
