@<TRIPOS>MOLECULE
49204_out_ligand_01.pdbqt
 32 34 0 0 0
SMALL
GASTEIGER

@<TRIPOS>ATOM
      1  C         17.7230  -22.0640  -10.4850 C.2     1  UNL1        0.0690
      2  C         18.7870  -22.8610  -10.0630 C.2     1  UNL1        0.0380
      3  C         20.0610  -22.6710  -10.6090 C.2     1  UNL1        0.0200
      4  C         20.2740  -21.7000  -11.5970 C.2     1  UNL1        0.0320
      5  C         19.2050  -20.9020  -12.0200 C.2     1  UNL1        0.0200
      6  C         17.9340  -21.0960  -11.4710 C.2     1  UNL1        0.0380
      7  O         16.4350  -22.1620  -10.0390 O.2     1  UNL1       -0.3420
      8  C         16.0370  -23.4220   -9.5200 C.3     1  UNL1        0.2780
      9  C         16.3140  -23.6420   -8.0220 C.2     1  UNL1        0.2460
     10  N         16.4190  -22.4450   -7.3200 N.am    1  UNL1       -0.3240
     11  H         15.8400  -21.7030   -7.6870 H       1  UNL1        0.1690
     12  O         16.4080  -24.7690   -7.5380 O.2     1  UNL1       -0.2710
     13  C         16.6830  -22.3770   -5.9300 C.2     1  UNL1        0.0470
     14  C         17.9830  -22.1400   -5.4260 C.2     1  UNL1       -0.0310
     15  C         18.1670  -22.0680   -4.0300 C.2     1  UNL1        0.0090
     16  C         17.0960  -22.1910   -3.1530 C.2     1  UNL1        0.0010
     17  C         15.8140  -22.3740   -3.6530 C.2     1  UNL1        0.0090
     18  C         15.5860  -22.4670   -5.0370 C.2     1  UNL1       -0.0310
     19  C         19.1910  -21.8170   -6.2840 C.3     1  UNL1        0.0360
     20  C         20.0410  -20.7030   -5.6880 C.3     1  UNL1        0.0100
     21  C         14.1590  -22.6850   -5.4900 C.3     1  UNL1        0.0360
     22  C         13.4510  -21.3760   -5.8000 C.3     1  UNL1        0.0100
     23  C         21.6450  -21.5490  -12.1560 C.2     1  UNL1        0.2520
     24  O         21.8090  -20.9820  -13.2300 O.2     1  UNL1       -0.2680
     25  N         22.6780  -22.0300  -11.3750 N.am    1  UNL1       -0.3520
     26  H         22.4800  -22.2350  -10.4040 H       1  UNL1        0.1630
     27  C         24.0720  -21.8010  -11.7410 C.3     1  UNL1        0.0840
     28  C         25.0030  -22.3210  -10.6300 C.3     1  UNL1        0.0250
     29  C         26.3630  -22.7370  -11.1740 C.3     1  UNL1        0.0020
     30  C         26.2400  -23.8680  -12.1960 C.3     1  UNL1        0.0000
     31  C         24.9280  -23.8410  -12.9830 C.3     1  UNL1        0.0020
     32  C         24.3770  -22.4250  -13.1130 C.3     1  UNL1        0.0250
@<TRIPOS>BOND
     1    24    23    2
     2    32    31    1
     3    32    27    1
     4    31    30    1
     5    30    29    1
     6    23     4    1
     7    23    25   am
     8     5     4    2
     9     5     6    1
    10    27    25    1
    11    27    28    1
    12     4     3    1
    13     6     1    2
    14    25    26    1
    15    29    28    1
    16     3     2    2
    17     1     2    1
    18     1     7    1
    19     7     8    1
    20     8     9    1
    21     9    12    2
    22     9    10   am
    23    11    10    1
    24    10    13    1
    25    19    20    1
    26    19    14    1
    27    13    14    2
    28    13    18    1
    29    22    21    1
    30    21    18    1
    31    14    15    1
    32    18    17    2
    33    15    16    2
    34    17    16    1
