@<TRIPOS>MOLECULE
49354_out_ligand_01.pdbqt
 36 40 0 0 0
SMALL
GASTEIGER

@<TRIPOS>ATOM
      1  C         24.0510  -22.1190  -13.1050 C.ar    1  UNL1        0.0980
      2  S         23.5030  -21.0460  -14.3540 S.2     1  UNL1       -0.0750
      3  C         24.8470  -21.3890  -15.2760 C.ar    1  UNL1       -0.0070
      4  C         25.7040  -22.2780  -14.6940 C.ar    1  UNL1       -0.0210
      5  C         25.2620  -22.7220  -13.4180 C.ar    1  UNL1        0.0850
      6  C         26.0280  -23.6590  -12.6470 C.1     1  UNL1        0.1030
      7  N         26.7460  -24.4160  -12.1380 N.1     1  UNL1       -0.1910
      8  C         26.8800  -22.5340  -15.5690 C.3     1  UNL1        0.0420
      9  C         26.4180  -21.9270  -16.9320 C.3     1  UNL1        0.0100
     10  C         25.2820  -20.9080  -16.6080 C.3     1  UNL1        0.0470
     11  N         23.1370  -22.1260  -12.0720 N.am    1  UNL1       -0.3140
     12  C         23.4040  -21.8590  -10.7440 C.2     1  UNL1        0.2770
     13  O         24.5140  -21.5650  -10.3150 O.2     1  UNL1       -0.2660
     14  H         22.1930  -22.3420  -12.3520 H       1  UNL1        0.1700
     15  C         22.2180  -21.9550   -9.8550 C.2     1  UNL1        0.1480
     16  N         20.9670  -21.9120  -10.3600 N.2     1  UNL1       -0.1650
     17  N         20.1620  -22.0810   -9.3050 N.pl3   1  UNL1       -0.2400
     18  C         18.7150  -22.0300   -9.4270 C.3     1  UNL1        0.2210
     19  C         20.8330  -22.1040   -8.1130 C.2     1  UNL1        0.1230
     20  C         18.0430  -22.4230   -8.0950 C.3     1  UNL1        0.0660
     21  C         18.7600  -21.7680   -6.9080 C.3     1  UNL1        0.1180
     22  N         20.1730  -22.1510   -6.9330 N.pl3   1  UNL1       -0.3660
     23  H         20.6730  -21.9460   -6.0680 H       1  UNL1        0.1610
     24  C         22.1660  -22.0730   -8.4310 C.2     1  UNL1        0.0890
     25  C         18.2070  -22.9290  -10.5330 C.3     1  UNL1        0.4090
     26  F         18.1630  -22.3330  -11.7410 F       1  UNL1       -0.1690
     27  F         18.9270  -24.0690  -10.6430 F       1  UNL1       -0.1690
     28  F         16.9290  -23.3080  -10.2560 F       1  UNL1       -0.1690
     29  C         18.1430  -22.1780   -5.5860 C.2     1  UNL1       -0.0330
     30  C         18.6200  -21.6760   -4.3660 C.2     1  UNL1        0.0090
     31  C         18.0460  -22.0790   -3.1610 C.2     1  UNL1        0.0030
     32  C         16.9880  -22.9890   -3.1540 C.2     1  UNL1        0.0370
     33  C         16.4980  -23.5000   -4.3550 C.2     1  UNL1        0.0680
     34  C         17.0790  -23.0940   -5.5620 C.2     1  UNL1        0.0460
     35  O         15.4730  -24.3930   -4.4920 O.2     1  UNL1       -0.3560
     36  C         14.4010  -24.0150   -5.3480 C.3     1  UNL1        0.2100
@<TRIPOS>BOND
     1     9    10    1
     2     9     8    1
     3    10     3    1
     4     8     4    1
     5     3     4   ar
     6     3     2   ar
     7     4     5   ar
     8     2     1   ar
     9     5     1   ar
    10     5     6    1
    11     1    11    1
    12     6     7    3
    13    14    11    1
    14    11    12   am
    15    26    25    1
    16    12    13    2
    17    12    15    1
    18    27    25    1
    19    25    28    1
    20    25    18    1
    21    16    15    2
    22    16    17    1
    23    15    24    1
    24    18    17    1
    25    18    20    1
    26    17    19    1
    27    24    19    2
    28    19    22    1
    29    20    21    1
    30    22    21    1
    31    22    23    1
    32    21    29    1
    33    29    34    2
    34    29    30    1
    35    34    33    1
    36    36    35    1
    37    35    33    1
    38    30    31    2
    39    33    32    2
    40    31    32    1
