@<TRIPOS>MOLECULE
49438_out_ligand_01.pdbqt
 37 40 0 0 0
SMALL
GASTEIGER

@<TRIPOS>ATOM
      1  C         18.2870  -22.4890   -9.9370 C.2     1  UNL1        0.0860
      2  C         19.4880  -23.1210   -9.5730 C.2     1  UNL1        0.0420
      3  C         20.6770  -22.8200  -10.2420 C.2     1  UNL1        0.0330
      4  C         20.6670  -21.8910  -11.2850 C.2     1  UNL1        0.0170
      5  C         19.4730  -21.2650  -11.6480 C.2     1  UNL1        0.0090
      6  C         18.2650  -21.5500  -10.9870 C.2     1  UNL1       -0.0390
      7  C         17.0260  -20.8350  -11.4470 C.3     1  UNL1        0.0500
      8  C         21.9180  -23.5410   -9.8470 C.2     1  UNL1        0.2560
      9  O         21.8080  -24.5130   -9.1100 O.2     1  UNL1       -0.2670
     10  N         23.0840  -23.0150  -10.3640 N.am    1  UNL1       -0.3220
     11  H         23.0120  -22.1250  -10.8550 H       1  UNL1        0.1690
     12  C         24.4160  -23.4450  -10.1340 C.2     1  UNL1        0.0500
     13  C         24.7840  -24.2050   -9.0210 C.2     1  UNL1        0.0300
     14  C         26.1250  -24.5390   -8.7900 C.2     1  UNL1        0.0020
     15  C         27.1190  -24.1050   -9.6620 C.2     1  UNL1        0.0010
     16  C         26.7720  -23.3660  -10.7870 C.2     1  UNL1        0.0190
     17  C         25.4240  -23.0750  -11.0500 C.2     1  UNL1        0.0590
     18  C         25.0760  -22.3210  -12.2840 C.2     1  UNL1        0.2560
     19  O         24.3930  -21.3060  -12.1560 O.2     1  UNL1       -0.2670
     20  N         25.4810  -22.8100  -13.5260 N.am    1  UNL1       -0.3440
     21  C         25.1470  -22.0370  -14.7290 C.3     1  UNL1        0.1520
     22  C         25.7820  -24.2280  -13.7800 C.3     1  UNL1        0.1520
     23  C         24.4050  -22.9120  -15.7450 C.3     1  UNL1        0.1870
     24  O         25.1620  -24.0560  -16.1730 O.3     1  UNL1       -0.3880
     25  C         26.1710  -24.4730  -15.2450 C.3     1  UNL1        0.1870
     26  S         16.8430  -22.9410   -8.9840 S.O2    1  UNL1        0.2630
     27  O         15.9580  -23.7850   -9.7560 O.2     1  UNL1       -0.2000
     28  O         16.3390  -21.7280   -8.3760 O.2     1  UNL1       -0.2000
     29  N         17.5120  -23.8490   -7.7260 N.pl3   1  UNL1       -0.2810
     30  H         18.4770  -24.1050   -7.9290 H       1  UNL1        0.1790
     31  C         17.1980  -23.4770   -6.3930 C.2     1  UNL1        0.0430
     32  C         16.0380  -23.9810   -5.8080 C.2     1  UNL1        0.0300
     33  C         15.7050  -23.6180   -4.5040 C.2     1  UNL1        0.0030
     34  C         16.5290  -22.7470   -3.7900 C.2     1  UNL1        0.0070
     35  C         17.6920  -22.2290   -4.3760 C.2     1  UNL1       -0.0600
     36  C         18.5820  -21.2840   -3.6230 C.3     1  UNL1        0.0480
     37  C         18.0240  -22.6050   -5.6850 C.2     1  UNL1        0.0370
@<TRIPOS>BOND
     1    24    23    1
     2    24    25    1
     3    23    21    1
     4    25    22    1
     5    21    20    1
     6    22    20    1
     7    20    18   am
     8    18    19    2
     9    18    17    1
    10     5     4    2
    11     5     6    1
    12     7     6    1
    13     4     3    1
    14    17    16    1
    15    17    12    2
    16     6     1    2
    17    11    10    1
    18    16    15    2
    19    10    12    1
    20    10     8   am
    21     3     8    1
    22     3     2    2
    23    12    13    1
    24     1     2    1
    25     1    26    1
    26     8     9    2
    27    27    26    2
    28    15    14    1
    29    13    14    2
    30    26    28    2
    31    26    29    1
    32    30    29    1
    33    29    31    1
    34    31    32    2
    35    31    37    1
    36    32    33    1
    37    37    35    2
    38    33    34    2
    39    35    34    1
    40    35    36    1
