@<TRIPOS>MOLECULE
49892_out_ligand_01.pdbqt
 39 42 0 0 0
SMALL
GASTEIGER

@<TRIPOS>ATOM
      1  C         21.9580  -23.4720   -9.7980 C.2     1  UNL1        0.2560
      2  O         21.9560  -24.4790   -9.1010 O.2     1  UNL1       -0.2670
      3  N         23.0640  -22.8290  -10.3130 N.am    1  UNL1       -0.3220
      4  H         22.9100  -21.9420  -10.7950 H       1  UNL1        0.1690
      5  C         20.6480  -22.8290  -10.1120 C.2     1  UNL1        0.0330
      6  C         20.4770  -21.9920  -11.2190 C.2     1  UNL1        0.0170
      7  C         19.2270  -21.4230  -11.4820 C.2     1  UNL1        0.0090
      8  C         18.1160  -21.6890  -10.6610 C.2     1  UNL1       -0.0390
      9  C         16.8110  -21.0280  -11.0030 C.3     1  UNL1        0.0500
     10  C         18.2960  -22.5410   -9.5530 C.2     1  UNL1        0.0860
     11  C         19.5550  -23.1040   -9.2830 C.2     1  UNL1        0.0420
     12  S         16.9630  -22.9410   -8.4260 S.O2    1  UNL1        0.2630
     13  O         16.1360  -23.9550   -9.0450 O.2     1  UNL1       -0.2000
     14  O         16.3730  -21.7020   -7.9640 O.2     1  UNL1       -0.2000
     15  N         17.7550  -23.6900   -7.1380 N.pl3   1  UNL1       -0.2810
     16  H         18.4760  -24.3370   -7.4480 H       1  UNL1        0.1790
     17  C         17.9700  -22.9740   -5.9280 C.2     1  UNL1        0.0420
     18  C         17.4480  -23.4200   -4.7140 C.2     1  UNL1        0.0300
     19  C         17.6470  -22.6730   -3.5520 C.2     1  UNL1        0.0020
     20  C         18.3770  -21.4870   -3.6000 C.2     1  UNL1        0.0000
     21  C         18.9140  -21.0470   -4.8090 C.2     1  UNL1        0.0020
     22  C         18.7130  -21.7910   -5.9740 C.2     1  UNL1        0.0300
     23  C         24.4230  -23.2260  -10.2550 C.2     1  UNL1        0.0500
     24  C         24.9280  -24.0090   -9.2090 C.2     1  UNL1        0.0300
     25  C         26.2660  -24.4140   -9.1940 C.2     1  UNL1        0.0020
     26  C         27.1210  -24.0530  -10.2290 C.2     1  UNL1        0.0010
     27  C         26.6430  -23.2720  -11.2790 C.2     1  UNL1        0.0190
     28  C         25.3050  -22.8390  -11.2940 C.2     1  UNL1        0.0580
     29  C         24.8210  -21.9810  -12.4210 C.2     1  UNL1        0.2540
     30  O         23.7100  -21.4570  -12.3730 O.2     1  UNL1       -0.2680
     31  N         25.6960  -21.7740  -13.4660 N.am    1  UNL1       -0.3530
     32  H         26.6770  -21.9780  -13.3250 H       1  UNL1        0.1630
     33  C         25.3630  -20.8500  -14.5260 C.3     1  UNL1        0.1620
     34  C         24.9620  -21.5810  -15.7710 C.2     1  UNL1       -0.0230
     35  C         24.7010  -22.9560  -15.7540 C.2     1  UNL1        0.0120
     36  C         24.3480  -23.6060  -16.9320 C.2     1  UNL1        0.0200
     37  C         24.2720  -22.8590  -18.0950 C.2     1  UNL1        0.1160
     38  N         24.5230  -21.5340  -18.1530 N.2     1  UNL1       -0.2730
     39  C         24.8590  -20.9260  -16.9920 C.2     1  UNL1        0.1240
@<TRIPOS>BOND
     1    38    37    2
     2    38    39    1
     3    37    36    1
     4    39    34    2
     5    36    35    2
     6    34    35    1
     7    34    33    1
     8    33    31    1
     9    31    32    1
    10    31    29   am
    11    29    30    2
    12    29    28    1
    13     7     6    1
    14     7     8    2
    15    28    27    1
    16    28    23    2
    17    27    26    2
    18     6     5    2
    19     9     8    1
    20     4     3    1
    21     8    10    1
    22     3    23    1
    23     3     1   am
    24    23    24    1
    25    26    25    1
    26     5     1    1
    27     5    11    1
    28     1     2    2
    29    10    11    2
    30    10    12    1
    31    24    25    2
    32    13    12    2
    33    12    14    2
    34    12    15    1
    35    16    15    1
    36    15    17    1
    37    22    17    2
    38    22    21    1
    39    17    18    1
    40    21    20    2
    41    18    19    2
    42    20    19    1
