@<TRIPOS>MOLECULE
50013_out_ligand_01.pdbqt
 44 48 0 0 0
SMALL
GASTEIGER

@<TRIPOS>ATOM
      1  C         20.7120  -22.3920   -7.4790 C.2     1  UNL1        0.0320
      2  C         20.6170  -23.6290   -8.1310 C.2     1  UNL1        0.0170
      3  C         21.6220  -24.0570   -9.0030 C.2     1  UNL1        0.0100
      4  C         22.7430  -23.2510   -9.2530 C.2     1  UNL1       -0.0390
      5  C         22.8470  -22.0210   -8.5830 C.2     1  UNL1        0.0100
      6  C         21.8430  -21.5940   -7.7040 C.2     1  UNL1        0.0170
      7  C         19.6100  -22.0110   -6.5390 C.2     1  UNL1        0.2560
      8  O         19.5790  -20.8570   -6.1220 O.2     1  UNL1       -0.2670
      9  N         18.7090  -23.0070   -6.2210 N.am    1  UNL1       -0.3220
     10  H         18.8780  -23.9400   -6.6000 H       1  UNL1        0.1690
     11  C         17.5860  -22.9430   -5.3550 C.2     1  UNL1        0.0500
     12  C         17.6980  -22.5440   -4.0170 C.2     1  UNL1        0.0300
     13  C         16.5820  -22.5260   -3.1750 C.2     1  UNL1        0.0020
     14  C         15.3370  -22.9200   -3.6520 C.2     1  UNL1        0.0010
     15  C         15.1980  -23.3120   -4.9820 C.2     1  UNL1        0.0190
     16  C         16.3080  -23.3060   -5.8470 C.2     1  UNL1        0.0580
     17  C         16.1270  -23.6640   -7.2910 C.2     1  UNL1        0.2540
     18  O         16.4050  -24.7920   -7.6880 O.2     1  UNL1       -0.2680
     19  N         15.7040  -22.6590   -8.1350 N.am    1  UNL1       -0.3530
     20  H         15.6800  -21.7030   -7.8050 H       1  UNL1        0.1630
     21  C         15.6110  -22.8490   -9.5680 C.3     1  UNL1        0.1620
     22  C         16.7670  -22.2060  -10.2800 C.2     1  UNL1       -0.0230
     23  C         18.0250  -22.8110  -10.3430 C.2     1  UNL1        0.0120
     24  C         19.0650  -22.1860  -11.0250 C.2     1  UNL1        0.0200
     25  C         18.8050  -20.9710  -11.6370 C.2     1  UNL1        0.1160
     26  N         17.6010  -20.3590  -11.6160 N.2     1  UNL1       -0.2730
     27  C         16.6110  -20.9910  -10.9430 C.2     1  UNL1        0.1240
     28  C         23.8640  -23.7190  -10.1610 C.3     1  UNL1        0.1800
     29  N         24.5330  -22.6170  -10.8900 N.pl3   1  UNL1       -0.2680
     30  C         23.8010  -21.9460  -11.9310 C.2     1  UNL1        0.0450
     31  C         24.4860  -21.0800  -12.7830 C.2     1  UNL1        0.0300
     32  C         23.8210  -20.4550  -13.8380 C.2     1  UNL1        0.0020
     33  C         22.4670  -20.7050  -14.0530 C.2     1  UNL1        0.0000
     34  C         21.7820  -21.5840  -13.2190 C.2     1  UNL1        0.0020
     35  C         22.4460  -22.2130  -12.1640 C.2     1  UNL1        0.0300
     36  S         26.2230  -22.7480  -11.0980 S.O2    1  UNL1        0.2650
     37  O         26.7000  -23.8590  -10.3000 O.2     1  UNL1       -0.2000
     38  O         26.8280  -21.4380  -10.9560 O.2     1  UNL1       -0.2000
     39  C         26.4020  -23.2260  -12.8080 C.2     1  UNL1        0.0800
     40  C         27.0310  -22.3610  -13.7110 C.2     1  UNL1        0.0250
     41  C         27.1200  -22.7180  -15.0560 C.2     1  UNL1        0.0020
     42  C         26.5740  -23.9250  -15.4970 C.2     1  UNL1        0.0000
     43  C         25.9310  -24.7780  -14.5980 C.2     1  UNL1        0.0020
     44  C         25.8340  -24.4250  -13.2520 C.2     1  UNL1        0.0250
@<TRIPOS>BOND
     1    42    41    2
     2    42    43    1
     3    41    40    1
     4    43    44    2
     5    33    32    2
     6    33    34    1
     7    32    31    1
     8    40    39    2
     9    44    39    1
    10    34    35    2
    11    39    36    1
    12    31    30    2
    13    35    30    1
    14    30    29    1
    15    25    26    2
    16    25    24    1
    17    26    27    1
    18    36    38    2
    19    36    29    1
    20    36    37    2
    21    24    23    2
    22    27    22    2
    23    29    28    1
    24    23    22    1
    25    22    21    1
    26    28     4    1
    27    21    19    1
    28     4     3    2
    29     4     5    1
    30     3     2    1
    31     5     6    2
    32    19    20    1
    33    19    17   am
    34     2     1    2
    35     6     1    1
    36    18    17    2
    37     1     7    1
    38    17    16    1
    39    10     9    1
    40     7     9   am
    41     7     8    2
    42     9    11    1
    43    16    11    2
    44    16    15    1
    45    11    12    1
    46    15    14    2
    47    12    13    2
    48    14    13    1
