@<TRIPOS>MOLECULE
50026_out_ligand_01.pdbqt
 38 41 0 0 0
SMALL
GASTEIGER

@<TRIPOS>ATOM
      1  C         18.2180  -22.4540  -10.0690 C.2     1  UNL1        0.0810
      2  C         19.5070  -22.9790   -9.8850 C.2     1  UNL1        0.0420
      3  C         20.5820  -22.5010  -10.6440 C.2     1  UNL1        0.0330
      4  C         20.3570  -21.5070  -11.6020 C.2     1  UNL1        0.0170
      5  C         19.0750  -20.9820  -11.7810 C.2     1  UNL1        0.0090
      6  C         17.9850  -21.4460  -11.0240 C.2     1  UNL1       -0.0390
      7  C         16.6400  -20.8130  -11.2520 C.3     1  UNL1        0.0500
      8  C         21.9320  -23.0970  -10.4130 C.2     1  UNL1        0.2560
      9  O         22.0380  -23.9640   -9.5530 O.2     1  UNL1       -0.2670
     10  N         22.9430  -22.5940  -11.2050 N.am    1  UNL1       -0.3220
     11  H         22.7150  -21.8230  -11.8330 H       1  UNL1        0.1690
     12  C         24.3280  -22.8980  -11.1630 C.2     1  UNL1        0.0500
     13  C         24.9300  -23.5290  -10.0690 C.2     1  UNL1        0.0300
     14  C         26.3150  -23.7310  -10.0320 C.2     1  UNL1        0.0020
     15  C         27.1210  -23.2960  -11.0810 C.2     1  UNL1        0.0010
     16  C         26.5380  -22.6870  -12.1890 C.2     1  UNL1        0.0190
     17  C         25.1450  -22.5220  -12.2510 C.2     1  UNL1        0.0590
     18  C         24.5440  -21.9050  -13.4650 C.2     1  UNL1        0.2560
     19  O         23.6550  -21.0660  -13.3020 O.2     1  UNL1       -0.2670
     20  N         24.9820  -22.2970  -14.7320 N.am    1  UNL1       -0.3480
     21  C         24.4680  -21.5400  -15.8720 C.3     1  UNL1        0.1260
     22  C         25.5420  -23.6100  -15.0420 C.3     1  UNL1        0.1260
     23  C         25.0060  -22.0340  -17.2160 C.3     1  UNL1        0.0200
     24  C         26.4740  -22.4320  -17.1100 C.3     1  UNL1        0.0030
     25  C         26.7080  -23.4860  -16.0200 C.3     1  UNL1        0.0200
     26  S         16.9060  -23.1000   -9.0360 S.O2    1  UNL1        0.2460
     27  O         16.1160  -24.0070   -9.8390 O.2     1  UNL1       -0.2060
     28  O         16.3020  -21.9880   -8.3330 O.2     1  UNL1       -0.2060
     29  N         17.8170  -23.9620   -7.8770 N.pl3   1  UNL1       -0.1810
     30  H         18.7550  -24.0840   -8.2640 H       1  UNL1        0.1460
     31  C         17.8800  -23.3180   -6.5950 C.2     1  UNL1        0.0230
     32  C         17.1260  -23.8220   -5.5350 C.2     1  UNL1        0.0310
     33  C         17.1540  -23.1890   -4.2870 C.2     1  UNL1       -0.0600
     34  C         17.9160  -22.0240   -4.1290 C.2     1  UNL1        0.0130
     35  C         16.3200  -23.7130   -3.1530 C.3     1  UNL1        0.0480
     36  C         18.6490  -21.4930   -5.2000 C.2     1  UNL1       -0.0600
     37  C         19.4770  -20.2550   -5.0110 C.3     1  UNL1        0.0480
     38  C         18.6330  -22.1540   -6.4350 C.2     1  UNL1        0.0310
@<TRIPOS>BOND
     1    23    24    1
     2    23    21    1
     3    24    25    1
     4    25    22    1
     5    21    20    1
     6    22    20    1
     7    20    18   am
     8    18    19    2
     9    18    17    1
    10    17    16    1
    11    17    12    2
    12    16    15    2
    13    11    10    1
    14     5     4    2
    15     5     6    1
    16     4     3    1
    17     7     6    1
    18    10    12    1
    19    10     8   am
    20    12    13    1
    21    15    14    1
    22     6     1    2
    23     3     8    1
    24     3     2    2
    25     8     9    2
    26    13    14    2
    27     1     2    1
    28     1    26    1
    29    27    26    2
    30    26    28    2
    31    26    29    1
    32    30    29    1
    33    29    31    1
    34    31    38    2
    35    31    32    1
    36    38    36    1
    37    32    33    2
    38    36    37    1
    39    36    34    2
    40    33    34    1
    41    33    35    1
