@<TRIPOS>MOLECULE
50127_out_ligand_01.pdbqt
 33 35 0 0 0
SMALL
GASTEIGER

@<TRIPOS>ATOM
      1  C         17.0760  -22.9900   -8.8100 C.2     1  UNL1        0.0750
      2  C         16.3710  -22.1200   -9.6450 C.2     1  UNL1        0.0250
      3  C         17.0310  -21.4870  -10.7000 C.2     1  UNL1        0.0090
      4  C         18.3950  -21.7180  -10.9360 C.2     1  UNL1       -0.0460
      5  C         19.0530  -21.0470  -12.1110 C.3     1  UNL1        0.0490
      6  C         19.0960  -22.5760  -10.0620 C.2     1  UNL1        0.0390
      7  C         18.4340  -23.2320   -9.0160 C.2     1  UNL1        0.0420
      8  C         20.5500  -22.8430  -10.2040 C.2     1  UNL1        0.2560
      9  O         20.9920  -23.8840   -9.7420 O.2     1  UNL1       -0.2670
     10  N         21.2490  -21.8200  -10.8160 N.am    1  UNL1       -0.3230
     11  H         20.7190  -20.9920  -11.0570 H       1  UNL1        0.1690
     12  C         22.6280  -21.7820  -11.1040 C.2     1  UNL1        0.0350
     13  C         23.6220  -21.6440  -10.1370 C.2     1  UNL1        0.0290
     14  C         24.9710  -21.6160  -10.5030 C.2     1  UNL1        0.0030
     15  C         25.3380  -21.7290  -11.8430 C.2     1  UNL1        0.0160
     16  C         24.3580  -21.8800  -12.8310 C.2     1  UNL1        0.0500
     17  C         23.0040  -21.8980  -12.4500 C.2     1  UNL1        0.0450
     18  C         24.7390  -21.9830  -14.2860 C.3     1  UNL1        0.4170
     19  F         26.0230  -21.5900  -14.5130 F       1  UNL1       -0.1660
     20  F         24.6380  -23.2470  -14.7820 F       1  UNL1       -0.1660
     21  F         23.9630  -21.2050  -15.0920 F       1  UNL1       -0.1660
     22  S         16.2090  -23.8140   -7.4950 S.O2    1  UNL1        0.2450
     23  O         15.6350  -25.0310   -8.0290 O.2     1  UNL1       -0.2060
     24  O         15.4170  -22.8140   -6.8160 O.2     1  UNL1       -0.2060
     25  N         17.5290  -24.2950   -6.5220 N.pl3   1  UNL1       -0.1810
     26  H         17.2770  -25.2040   -6.1260 H       1  UNL1        0.1460
     27  C         17.8320  -23.3730   -5.4660 C.2     1  UNL1        0.0230
     28  C         17.4090  -23.6330   -4.1630 C.2     1  UNL1        0.0240
     29  C         17.6650  -22.7030   -3.1560 C.2     1  UNL1        0.0020
     30  C         18.3340  -21.5130   -3.4540 C.2     1  UNL1        0.0070
     31  C         18.7530  -21.2430   -4.7630 C.2     1  UNL1       -0.0600
     32  C         19.4200  -19.9410   -5.0940 C.3     1  UNL1        0.0480
     33  C         18.4810  -22.1760   -5.7720 C.2     1  UNL1        0.0310
@<TRIPOS>BOND
     1    21    18    1
     2    20    18    1
     3    19    18    1
     4    18    16    1
     5    16    17    1
     6    16    15    2
     7    17    12    2
     8     5     4    1
     9    15    14    1
    10    12    10    1
    11    12    13    1
    12    11    10    1
    13     4     3    2
    14     4     6    1
    15    10     8   am
    16     3     2    1
    17    14    13    2
    18     8     6    1
    19     8     9    2
    20     6     7    2
    21     2     1    2
    22     7     1    1
    23     1    22    1
    24    23    22    2
    25    22    24    2
    26    22    25    1
    27    25    26    1
    28    25    27    1
    29    33    27    2
    30    33    31    1
    31    27    28    1
    32    32    31    1
    33    31    30    2
    34    28    29    2
    35    30    29    1
