@<TRIPOS>MOLECULE
50129_out_ligand_01.pdbqt
 34 36 0 0 0
SMALL
GASTEIGER

@<TRIPOS>ATOM
      1  C         20.2310  -20.8440  -12.1520 C.3     1  UNL1        0.0490
      2  C         19.3450  -21.5880  -11.1890 C.2     1  UNL1       -0.0460
      3  C         17.9710  -21.2880  -11.1560 C.2     1  UNL1        0.0090
      4  C         17.1170  -21.9460  -10.2700 C.2     1  UNL1        0.0250
      5  C         17.6350  -22.9060   -9.4010 C.2     1  UNL1        0.0750
      6  C         18.9980  -23.2100   -9.3980 C.2     1  UNL1        0.0420
      7  C         19.8540  -22.5540  -10.2950 C.2     1  UNL1        0.0390
      8  C         21.3090  -22.8760  -10.2540 C.2     1  UNL1        0.2560
      9  O         21.6840  -23.8160   -9.5670 O.2     1  UNL1       -0.2670
     10  N         22.0930  -22.0300  -11.0190 N.am    1  UNL1       -0.3230
     11  H         21.6250  -21.2540  -11.4680 H       1  UNL1        0.1690
     12  C         23.4890  -22.0990  -11.2110 C.2     1  UNL1        0.0350
     13  C         24.4180  -21.3910  -10.4490 C.2     1  UNL1        0.0290
     14  C         25.7880  -21.5200  -10.6990 C.2     1  UNL1        0.0030
     15  C         26.2420  -22.3600  -11.7140 C.2     1  UNL1        0.0160
     16  C         25.3280  -23.0770  -12.4960 C.2     1  UNL1        0.0500
     17  C         23.9540  -22.9430  -12.2290 C.2     1  UNL1        0.0450
     18  C         25.8060  -24.0080  -13.5810 C.3     1  UNL1        0.4170
     19  F         26.8110  -24.8230  -13.1570 F       1  UNL1       -0.1660
     20  F         24.8240  -24.8350  -14.0390 F       1  UNL1       -0.1660
     21  F         26.2850  -23.3590  -14.6780 F       1  UNL1       -0.1660
     22  S         16.5380  -23.7430   -8.2780 S.O2    1  UNL1        0.2450
     23  O         15.4190  -24.2320   -9.0570 O.2     1  UNL1       -0.2060
     24  O         17.3580  -24.6080   -7.4620 O.2     1  UNL1       -0.2060
     25  N         15.9410  -22.4250   -7.3740 N.pl3   1  UNL1       -0.1810
     26  H         14.9480  -22.3340   -7.5880 H       1  UNL1        0.1460
     27  C         16.1560  -22.5340   -5.9560 C.2     1  UNL1        0.0290
     28  C         15.0970  -23.0560   -5.2060 C.2     1  UNL1        0.0250
     29  C         15.1950  -23.1550   -3.8230 C.2     1  UNL1        0.0020
     30  C         16.3460  -22.7090   -3.1800 C.2     1  UNL1        0.0070
     31  C         17.4110  -22.1560   -3.9100 C.2     1  UNL1       -0.0540
     32  C         18.6160  -21.6630   -3.1530 C.3     1  UNL1        0.0490
     33  C         17.3320  -22.0810   -5.3240 C.2     1  UNL1       -0.0340
     34  C         18.4600  -21.4560   -6.1040 C.3     1  UNL1        0.0500
@<TRIPOS>BOND
     1    21    18    1
     2    20    18    1
     3    18    19    1
     4    18    16    1
     5    16    17    1
     6    16    15    2
     7    17    12    2
     8     1     2    1
     9    15    14    1
    10    11    10    1
    11    12    10    1
    12    12    13    1
    13     2     3    2
    14     2     7    1
    15     3     4    1
    16    10     8   am
    17    14    13    2
    18     7     8    1
    19     7     6    2
    20     4     5    2
    21     8     9    2
    22     5     6    1
    23     5    22    1
    24    23    22    2
    25    22    24    2
    26    22    25    1
    27    26    25    1
    28    25    27    1
    29    34    33    1
    30    27    33    2
    31    27    28    1
    32    33    31    1
    33    28    29    2
    34    31    30    2
    35    31    32    1
    36    29    30    1
