@<TRIPOS>MOLECULE
50164_out_ligand_01.pdbqt
 36 38 0 0 0
SMALL
GASTEIGER

@<TRIPOS>ATOM
      1  C         17.5190  -22.7900   -9.1420 C.2     1  UNL1        0.0750
      2  C         16.9520  -21.9150  -10.0710 C.2     1  UNL1        0.0250
      3  C         17.7390  -21.3990  -11.1010 C.2     1  UNL1        0.0090
      4  C         19.0960  -21.7450  -11.2120 C.2     1  UNL1       -0.0460
      5  C         19.8980  -21.1860  -12.3530 C.3     1  UNL1        0.0490
      6  C         19.6560  -22.5980  -10.2410 C.2     1  UNL1        0.0390
      7  C         18.8660  -23.1350   -9.2180 C.2     1  UNL1        0.0420
      8  S         16.5130  -23.4180   -7.8220 S.O2    1  UNL1        0.2450
      9  O         15.8780  -24.6250   -8.3020 O.2     1  UNL1       -0.2060
     10  O         15.7490  -22.3160   -7.2800 O.2     1  UNL1       -0.2060
     11  N         17.7110  -23.8220   -6.6780 N.pl3   1  UNL1       -0.1800
     12  H         18.5500  -24.1190   -7.1950 H       1  UNL1        0.1460
     13  C         18.0330  -22.7510   -5.7680 C.2     1  UNL1        0.0390
     14  C         18.9330  -21.7780   -6.2240 C.2     1  UNL1        0.0250
     15  C         19.3340  -20.7320   -5.3920 C.2     1  UNL1        0.0020
     16  C         18.8500  -20.6600   -4.0890 C.2     1  UNL1        0.0010
     17  C         17.9570  -21.6260   -3.6200 C.2     1  UNL1        0.0190
     18  C         17.5330  -22.6800   -4.4510 C.2     1  UNL1        0.0610
     19  C         16.5660  -23.6460   -3.8550 C.2     1  UNL1        0.2940
     20  O         16.9070  -24.6310   -3.2240 O.2     1  UNL1       -0.2590
     21  O         15.2810  -23.2660   -4.0850 O.3     1  UNL1       -0.3220
     22  C         14.4960  -24.2490   -4.7620 C.3     1  UNL1        0.2130
     23  C         21.0890  -22.9870  -10.2490 C.2     1  UNL1        0.2560
     24  O         21.4200  -23.9580   -9.5830 O.2     1  UNL1       -0.2670
     25  N         21.8950  -22.1390  -10.9840 N.am    1  UNL1       -0.3230
     26  H         21.4500  -21.3170  -11.3730 H       1  UNL1        0.1690
     27  C         23.2790  -22.2620  -11.2210 C.2     1  UNL1        0.0350
     28  C         24.1360  -21.5020  -10.4130 C.2     1  UNL1        0.0290
     29  C         25.5200  -21.5550  -10.5920 C.2     1  UNL1        0.0030
     30  C         26.0630  -22.3710  -11.5850 C.2     1  UNL1        0.0160
     31  C         25.2240  -23.1380  -12.4080 C.2     1  UNL1        0.0500
     32  C         23.8290  -23.0750  -12.2160 C.2     1  UNL1        0.0450
     33  C         25.7900  -24.0150  -13.4950 C.3     1  UNL1        0.4170
     34  F         26.8670  -24.7450  -13.0910 F       1  UNL1       -0.1660
     35  F         24.8890  -24.9190  -13.9690 F       1  UNL1       -0.1660
     36  F         26.2110  -23.3010  -14.5750 F       1  UNL1       -0.1660
@<TRIPOS>BOND
     1    36    33    1
     2    35    33    1
     3    33    34    1
     4    33    31    1
     5    31    32    1
     6    31    30    2
     7     5     4    1
     8    32    27    2
     9    30    29    1
    10    26    25    1
    11    27    25    1
    12    27    28    1
    13     4     3    2
    14     4     6    1
    15     3     2    1
    16    25    23   am
    17    29    28    2
    18    23     6    1
    19    23    24    2
    20     6     7    2
    21     2     1    2
    22     7     1    1
    23     1     8    1
    24     9     8    2
    25     8    10    2
    26     8    11    1
    27    12    11    1
    28    11    13    1
    29    14    13    2
    30    14    15    1
    31    13    18    1
    32    15    16    2
    33    22    21    1
    34    18    19    1
    35    18    17    2
    36    16    17    1
    37    21    19    1
    38    19    20    2
