@<TRIPOS>MOLECULE
50244_out_ligand_01.pdbqt
 31 33 0 0 0
SMALL
GASTEIGER

@<TRIPOS>ATOM
      1  C         18.6070  -22.6890   -9.6630 C.2     1  UNL1        0.0970
      2  C         19.8920  -22.5550  -10.2220 C.2     1  UNL1        0.0430
      3  C         20.0720  -21.8180  -11.3970 C.2     1  UNL1        0.0330
      4  C         18.9710  -21.1970  -11.9960 C.2     1  UNL1        0.0190
      5  C         17.6970  -21.3380  -11.4420 C.2     1  UNL1        0.0260
      6  C         17.5040  -22.0890  -10.2760 C.2     1  UNL1        0.0570
      7 CL         15.8880  -22.1880   -9.6830 Cl      1  UNL1       -0.0830
      8  S         18.4420  -23.6520   -8.1820 S.O2    1  UNL1        0.2470
      9  O         19.7110  -24.3180   -7.9640 O.2     1  UNL1       -0.2050
     10  O         17.2110  -24.4000   -8.2840 O.2     1  UNL1       -0.2050
     11  N         18.3490  -22.4450   -6.9800 N.pl3   1  UNL1       -0.1810
     12  H         19.2460  -22.4320   -6.4920 H       1  UNL1        0.1460
     13  C         17.2820  -22.6460   -6.0410 C.2     1  UNL1        0.0230
     14  C         17.5270  -23.3460   -4.8620 C.2     1  UNL1        0.0240
     15  C         16.5080  -23.5020   -3.9240 C.2     1  UNL1        0.0020
     16  C         15.2480  -22.9500   -4.1630 C.2     1  UNL1        0.0070
     17  C         14.9950  -22.2390   -5.3420 C.2     1  UNL1       -0.0600
     18  C         13.6560  -21.6030   -5.5700 C.3     1  UNL1        0.0480
     19  C         16.0280  -22.0740   -6.2740 C.2     1  UNL1        0.0310
     20  C         21.4110  -21.6360  -12.0200 C.2     1  UNL1        0.2520
     21  O         21.5030  -21.0450  -13.0890 O.2     1  UNL1       -0.2680
     22  N         22.4840  -22.1770  -11.3420 N.am    1  UNL1       -0.3520
     23  H         22.3390  -22.6610  -10.4670 H       1  UNL1        0.1630
     24  C         23.8700  -21.9870  -11.7950 C.3     1  UNL1        0.0840
     25  C         24.7000  -21.4280  -10.6300 C.3     1  UNL1        0.0250
     26  C         26.1560  -21.0250  -10.8810 C.3     1  UNL1        0.0020
     27  C         26.4860  -20.3280  -12.1980 C.3     1  UNL1        0.0000
     28  C         26.2790  -21.0870  -13.5120 C.3     1  UNL1        0.0000
     29  C         26.6200  -22.5740  -13.5380 C.3     1  UNL1        0.0000
     30  C         25.8600  -23.5280  -12.6140 C.3     1  UNL1        0.0020
     31  C         24.3630  -23.3070  -12.4190 C.3     1  UNL1        0.0250
@<TRIPOS>BOND
     1    29    28    1
     2    29    30    1
     3    28    27    1
     4    21    20    2
     5    30    31    1
     6    31    24    1
     7    27    26    1
     8    20     3    1
     9    20    22   am
    10     4     5    2
    11     4     3    1
    12    24    22    1
    13    24    25    1
    14     5     6    1
    15     3     2    2
    16    22    23    1
    17    26    25    1
    18     6     7    1
    19     6     1    2
    20     2     1    1
    21     1     8    1
    22    10     8    2
    23     8     9    2
    24     8    11    1
    25    11    12    1
    26    11    13    1
    27    19    13    2
    28    19    17    1
    29    13    14    1
    30    18    17    1
    31    17    16    2
    32    14    15    2
    33    16    15    1
