@<TRIPOS>MOLECULE
50513_out_ligand_01.pdbqt
 37 40 0 0 0
SMALL
GASTEIGER

@<TRIPOS>ATOM
      1  C         18.3500  -22.4160  -10.1290 C.2     1  UNL1        0.0810
      2  C         19.5680  -23.0090   -9.7630 C.2     1  UNL1        0.0420
      3  C         20.7560  -22.6470  -10.4100 C.2     1  UNL1        0.0330
      4  C         20.7210  -21.6760  -11.4150 C.2     1  UNL1        0.0170
      5  C         19.5060  -21.0910  -11.7850 C.2     1  UNL1        0.0090
      6  C         18.3040  -21.4460  -11.1500 C.2     1  UNL1       -0.0390
      7  C         17.0320  -20.7950  -11.6190 C.3     1  UNL1        0.0500
      8  C         22.0250  -23.3040   -9.9740 C.2     1  UNL1        0.2560
      9  O         21.9470  -24.2360   -9.1810 O.2     1  UNL1       -0.2670
     10  N         23.1800  -22.7880  -10.5230 N.am    1  UNL1       -0.3220
     11  H         23.0860  -22.0440  -11.2160 H       1  UNL1        0.1690
     12  C         24.5100  -23.2540  -10.3670 C.2     1  UNL1        0.0500
     13  C         24.9410  -23.9500   -9.2330 C.2     1  UNL1        0.0300
     14  C         26.2380  -24.4710   -9.1620 C.2     1  UNL1        0.0020
     15  C         27.1210  -24.3140  -10.2270 C.2     1  UNL1        0.0010
     16  C         26.7200  -23.6070  -11.3570 C.2     1  UNL1        0.0190
     17  C         25.4360  -23.0440  -11.4130 C.2     1  UNL1        0.0590
     18  C         25.0450  -22.2410  -12.6010 C.2     1  UNL1        0.2560
     19  O         24.9590  -21.0200  -12.4680 O.2     1  UNL1       -0.2670
     20  N         24.8660  -22.8770  -13.8190 N.am    1  UNL1       -0.3480
     21  C         25.2950  -24.2250  -14.1780 C.3     1  UNL1        0.1260
     22  C         24.5370  -22.1040  -15.0060 C.3     1  UNL1        0.1260
     23  C         24.9070  -24.3680  -15.6430 C.3     1  UNL1        0.0210
     24  C         25.0390  -22.9470  -16.1710 C.3     1  UNL1        0.0210
     25  S         16.8740  -22.9570   -9.2720 S.O2    1  UNL1        0.2460
     26  O         16.1490  -23.8480  -10.1530 O.2     1  UNL1       -0.2060
     27  O         16.2470  -21.7910   -8.6900 O.2     1  UNL1       -0.2060
     28  N         17.5610  -23.9420   -8.0570 N.pl3   1  UNL1       -0.1810
     29  H         16.9340  -24.7380   -7.9290 H       1  UNL1        0.1460
     30  C         17.7720  -23.2600   -6.8120 C.2     1  UNL1        0.0230
     31  C         18.8010  -22.3300   -6.7030 C.2     1  UNL1        0.0250
     32  C         18.9790  -21.6280   -5.5100 C.2     1  UNL1        0.0090
     33  C         18.1240  -21.8390   -4.4180 C.2     1  UNL1       -0.0560
     34  C         18.3420  -21.0540   -3.1530 C.3     1  UNL1        0.0490
     35  C         17.0760  -22.7770   -4.5310 C.2     1  UNL1       -0.0540
     36  C         16.9030  -23.4710   -5.7400 C.2     1  UNL1        0.0310
     37  C         16.1150  -23.0190   -3.4000 C.3     1  UNL1        0.0490
@<TRIPOS>BOND
     1    24    23    1
     2    24    22    1
     3    23    21    1
     4    22    20    1
     5    21    20    1
     6    20    18   am
     7    18    19    2
     8    18    17    1
     9     5     4    2
    10     5     6    1
    11     7     6    1
    12     4     3    1
    13    17    16    1
    14    17    12    2
    15    16    15    2
    16    11    10    1
    17     6     1    2
    18    10    12    1
    19    10     8   am
    20     3     8    1
    21     3     2    2
    22    12    13    1
    23    15    14    1
    24    26    25    2
    25     1     2    1
    26     1    25    1
    27     8     9    2
    28    25    27    2
    29    25    28    1
    30    13    14    2
    31    28    29    1
    32    28    30    1
    33    30    31    2
    34    30    36    1
    35    31    32    1
    36    36    35    2
    37    32    33    2
    38    35    33    1
    39    35    37    1
    40    33    34    1
