@<TRIPOS>MOLECULE
5081_out_ligand_01.pdbqt
 31 34 0 0 0
SMALL
GASTEIGER

@<TRIPOS>ATOM
      1  N         23.5320  -21.9720  -11.5780 N.ar    1  UNL1       -0.1660
      2  C         24.1780  -21.6840  -10.3830 C.ar    1  UNL1        0.7260
      3  N         25.1930  -20.8620  -10.5920 N.ar    1  UNL1       -0.0420
      4  C         25.1570  -20.5730  -11.9150 C.ar    1  UNL1        0.1860
      5  C         24.1380  -21.2190  -12.5520 C.ar    1  UNL1        0.1670
      6  C         23.8920  -21.0600  -13.9420 C.ar    1  UNL1        0.2800
      7  O         22.9750  -21.5800  -14.5680 O.2     1  UNL1       -0.2650
      8  N         24.8020  -20.2230  -14.5490 N.ar    1  UNL1       -0.2730
      9  C         25.8430  -19.5390  -13.9490 C.ar    1  UNL1        0.3300
     10  O         26.5490  -18.8060  -14.6430 O.2     1  UNL1       -0.2460
     11  N         26.0200  -19.7300  -12.5840 N.ar    1  UNL1       -0.2860
     12  C         27.0860  -19.0540  -11.8720 C.3     1  UNL1        0.1630
     13  H         24.6810  -20.0600  -15.5370 H       1  UNL1        0.1730
     14  N         23.7730  -22.2250   -9.1970 N.pl3   1  UNL1       -0.1070
     15  H         23.8520  -23.2350   -9.1130 H       1  UNL1        0.2080
     16  N         22.7450  -21.7470   -8.4240 N.2     1  UNL1       -0.1720
     17  C         21.7920  -22.5850   -8.1590 C.2     1  UNL1        0.1500
     18  C         20.6390  -22.2150   -7.3140 C.2     1  UNL1       -0.0170
     19  C         20.6970  -21.1100   -6.4600 C.2     1  UNL1        0.0130
     20  C         19.5910  -20.7810   -5.6740 C.2     1  UNL1        0.0010
     21  C         18.4320  -21.5550   -5.7410 C.2     1  UNL1        0.0000
     22  C         18.3750  -22.6600   -6.5920 C.2     1  UNL1        0.0010
     23  C         19.4780  -22.9930   -7.3800 C.2     1  UNL1        0.0130
     24  C         22.4440  -22.9170  -11.7820 C.3     1  UNL1        0.1860
     25  C         21.0980  -22.2780  -11.5400 C.2     1  UNL1       -0.0390
     26  C         20.8540  -20.9560  -11.9450 C.2     1  UNL1        0.0090
     27  C         19.6010  -20.3700  -11.7490 C.2     1  UNL1        0.0070
     28  C         18.5670  -21.0920  -11.1420 C.2     1  UNL1       -0.0620
     29  C         17.2120  -20.4790  -10.9400 C.3     1  UNL1        0.0480
     30  C         18.8060  -22.4080  -10.7330 C.2     1  UNL1        0.0070
     31  C         20.0580  -22.9960  -10.9290 C.2     1  UNL1        0.0090
@<TRIPOS>BOND
     1    13     8    1
     2    10     9    2
     3     7     6    2
     4     8     9   ar
     5     8     6   ar
     6     9    11   ar
     7     6     5   ar
     8    11     4   ar
     9    11    12    1
    10     5     4   ar
    11     5     1   ar
    12    26    27    1
    13    26    25    2
    14     4     3   ar
    15    24     1    1
    16    24    25    1
    17    27    28    2
    18     1     2   ar
    19    25    31    1
    20    28    29    1
    21    28    30    1
    22    31    30    2
    23     3     2   ar
    24     2    14    1
    25    14    15    1
    26    14    16    1
    27    16    17    2
    28    17    18    1
    29    23    18    2
    30    23    22    1
    31    18    19    1
    32    22    21    2
    33    19    20    2
    34    21    20    1
