@<TRIPOS>MOLECULE
50918_out_ligand_01.pdbqt
 45 48 0 0 0
SMALL
GASTEIGER

@<TRIPOS>ATOM
      1  C         22.9330  -21.9520   -9.6020 C.2     1  UNL1        0.2560
      2  O         23.2530  -21.0580   -8.8260 O.2     1  UNL1       -0.2670
      3  N         21.9160  -22.8740   -9.4440 N.am    1  UNL1       -0.3230
      4  H         21.8760  -23.6320  -10.1130 H       1  UNL1        0.1690
      5  C         20.9260  -22.9010   -8.4380 C.2     1  UNL1        0.0350
      6  C         20.0880  -24.0270   -8.4050 C.2     1  UNL1        0.0310
      7  C         19.0490  -24.1150   -7.4770 C.2     1  UNL1        0.0270
      8  C         18.8510  -23.0750   -6.5660 C.2     1  UNL1        0.0800
      9  C         19.6790  -21.9520   -6.5820 C.2     1  UNL1        0.0270
     10  C         20.7140  -21.8710   -7.5180 C.2     1  UNL1        0.0310
     11  S         17.4920  -23.1660   -5.4310 S.O2    1  UNL1        0.2630
     12  O         17.2430  -24.5510   -5.0930 O.2     1  UNL1       -0.2000
     13  O         17.7340  -22.1800   -4.3960 O.2     1  UNL1       -0.2000
     14  N         16.1990  -22.5710   -6.3430 N.pl3   1  UNL1       -0.2810
     15  H         15.3230  -22.6730   -5.8290 H       1  UNL1        0.1790
     16  C         16.1920  -22.8300   -7.7370 C.2     1  UNL1        0.0430
     17  C         15.5080  -23.9420   -8.2230 C.2     1  UNL1        0.0300
     18  C         15.4720  -24.1880   -9.5950 C.2     1  UNL1        0.0030
     19  C         16.1100  -23.3160  -10.4770 C.2     1  UNL1        0.0160
     20  C         16.7980  -22.1900   -9.9970 C.2     1  UNL1        0.0500
     21  C         16.8260  -21.9500   -8.6140 C.2     1  UNL1        0.0460
     22  C         17.4560  -21.2300  -10.9530 C.3     1  UNL1        0.4170
     23  F         18.7650  -20.9980  -10.6550 F       1  UNL1       -0.1660
     24  F         17.4380  -21.6810  -12.2340 F       1  UNL1       -0.1660
     25  F         16.8600  -20.0060  -10.9750 F       1  UNL1       -0.1660
     26  C         23.7380  -22.1030  -10.8530 C.2     1  UNL1        0.0320
     27  C         23.1230  -21.8410  -12.0860 C.2     1  UNL1        0.0190
     28  C         23.8310  -22.0110  -13.2800 C.2     1  UNL1        0.0310
     29  C         25.1600  -22.4410  -13.2440 C.2     1  UNL1        0.0450
     30  C         25.7750  -22.7040  -12.0190 C.2     1  UNL1        0.0310
     31  C         25.0640  -22.5550  -10.8260 C.2     1  UNL1        0.0190
     32  N         25.9170  -22.6450  -14.4440 N.pl3   1  UNL1       -0.2720
     33  S         25.7290  -24.1220  -15.2320 S.O2    1  UNL1        0.2290
     34  C         24.5260  -23.7640  -16.4890 C.3     1  UNL1        0.1860
     35  O         25.1270  -25.0660  -14.3180 O.2     1  UNL1       -0.2060
     36  O         26.9630  -24.4640  -15.9150 O.2     1  UNL1       -0.2060
     37  C         27.1180  -21.7920  -14.6230 C.3     1  UNL1        0.1830
     38  C         26.9350  -20.4300  -15.2530 C.2     1  UNL1        0.0040
     39  C         26.7470  -19.2710  -14.4730 C.2     1  UNL1        0.0430
     40 CL         26.6550  -19.3180  -12.7390 Cl      1  UNL1       -0.0840
     41  C         26.5760  -18.0110  -15.0640 C.2     1  UNL1        0.0240
     42  C         26.5810  -17.8800  -16.4480 C.2     1  UNL1        0.0030
     43  C         26.7310  -19.0130  -17.2410 C.2     1  UNL1        0.0240
     44  C         26.8920  -20.2730  -16.6530 C.2     1  UNL1        0.0430
     45 CL         27.0040  -21.6140  -17.7420 Cl      1  UNL1       -0.0840
@<TRIPOS>BOND
     1    45    44    1
     2    43    44    1
     3    43    42    2
     4    44    38    2
     5    34    33    1
     6    42    41    1
     7    36    33    2
     8    38    37    1
     9    38    39    1
    10    33    32    1
    11    33    35    2
    12    41    39    2
    13    37    32    1
    14    39    40    1
    15    32    29    1
    16    28    29    2
    17    28    27    1
    18    29    30    1
    19    24    22    1
    20    27    26    2
    21    30    31    2
    22    25    22    1
    23    22    23    1
    24    22    20    1
    25    26    31    1
    26    26     1    1
    27    19    20    2
    28    19    18    1
    29     4     3    1
    30    20    21    1
    31     1     3   am
    32     1     2    2
    33    18    17    2
    34     3     5    1
    35    21    16    2
    36     5     6    2
    37     5    10    1
    38     6     7    1
    39    17    16    1
    40    16    14    1
    41    10     9    2
    42     7     8    2
    43     9     8    1
    44     8    11    1
    45    14    15    1
    46    14    11    1
    47    11    12    2
    48    11    13    2
