@<TRIPOS>MOLECULE
51181_out_ligand_01.pdbqt
 36 39 0 0 0
SMALL
GASTEIGER

@<TRIPOS>ATOM
      1  C         17.5930  -23.2870   -8.6830 C.2     1  UNL1        0.0860
      2  C         18.9880  -23.2700   -8.5080 C.2     1  UNL1        0.0420
      3  C         19.8110  -22.5890   -9.4090 C.2     1  UNL1        0.0330
      4  C         19.2360  -21.9320  -10.4990 C.2     1  UNL1        0.0170
      5  C         17.8480  -21.9390  -10.6700 C.2     1  UNL1        0.0090
      6  C         17.0020  -22.6100   -9.7670 C.2     1  UNL1       -0.0390
      7  C         15.5210  -22.5670  -10.0230 C.3     1  UNL1        0.0500
      8  C         21.2830  -22.6220   -9.1880 C.2     1  UNL1        0.2510
      9  O         21.7440  -22.2620   -8.1110 O.2     1  UNL1       -0.2680
     10  N         22.0510  -23.0440  -10.2500 N.am    1  UNL1       -0.3530
     11  H         21.6290  -23.0980  -11.1670 H       1  UNL1        0.1630
     12  C         23.4960  -22.9760  -10.2130 C.3     1  UNL1        0.1610
     13  C         24.0300  -22.2890  -11.4410 C.2     1  UNL1       -0.0400
     14  C         25.3280  -21.7750  -11.4580 C.2     1  UNL1        0.0110
     15  C         25.8220  -21.1180  -12.5940 C.2     1  UNL1        0.0300
     16  C         25.0490  -20.9450  -13.7530 C.2     1  UNL1        0.0300
     17  C         23.7460  -21.4660  -13.7110 C.2     1  UNL1        0.0300
     18  C         23.2390  -22.1230  -12.5800 C.2     1  UNL1        0.0110
     19  N         25.5430  -20.2980  -14.8710 N.pl3   1  UNL1       -0.3770
     20  C         25.5520  -20.9330  -16.1990 C.3     1  UNL1        0.1490
     21  C         25.5010  -19.8590  -17.2980 C.3     1  UNL1        0.1870
     22  O         26.5910  -18.9250  -17.2590 O.3     1  UNL1       -0.3880
     23  C         27.1210  -18.7300  -15.9380 C.3     1  UNL1        0.1870
     24  C         26.0930  -18.9360  -14.8120 C.3     1  UNL1        0.1490
     25  S         16.6640  -24.1990   -7.4570 S.O2    1  UNL1        0.2630
     26  O         15.5270  -24.7810   -8.1420 O.2     1  UNL1       -0.2000
     27  O         17.5420  -25.0320   -6.6680 O.2     1  UNL1       -0.2000
     28  N         16.0360  -22.9650   -6.4890 N.pl3   1  UNL1       -0.2800
     29  H         15.0490  -23.1120   -6.2840 H       1  UNL1        0.1790
     30  C         16.8570  -22.4120   -5.4660 C.2     1  UNL1        0.0480
     31  C         17.9250  -21.5930   -5.8450 C.2     1  UNL1        0.0300
     32  C         18.7790  -21.0600   -4.8820 C.2     1  UNL1        0.0020
     33  C         18.5710  -21.3480   -3.5350 C.2     1  UNL1        0.0010
     34  C         17.5080  -22.1690   -3.1530 C.2     1  UNL1        0.0090
     35  C         16.6310  -22.7050   -4.1110 C.2     1  UNL1       -0.0350
     36  C         15.5150  -23.6060   -3.6630 C.3     1  UNL1        0.0500
@<TRIPOS>BOND
     1    21    22    1
     2    21    20    1
     3    22    23    1
     4    20    19    1
     5    23    24    1
     6    19    24    1
     7    19    16    1
     8    16    17    2
     9    16    15    1
    10    17    18    1
    11    15    14    2
    12    18    13    2
    13    14    13    1
    14    13    12    1
    15    11    10    1
    16     5     4    2
    17     5     6    1
    18     4     3    1
    19    10    12    1
    20    10     8   am
    21     7     6    1
    22     6     1    2
    23     3     8    1
    24     3     2    2
    25     8     9    2
    26     1     2    1
    27     1    25    1
    28    26    25    2
    29    25    27    2
    30    25    28    1
    31    28    29    1
    32    28    30    1
    33    31    30    2
    34    31    32    1
    35    30    35    1
    36    32    33    2
    37    35    36    1
    38    35    34    2
    39    33    34    1
