@<TRIPOS>MOLECULE
51509_out_ligand_01.pdbqt
 37 40 0 0 0
SMALL
GASTEIGER

@<TRIPOS>ATOM
      1  C         18.4330  -22.3640   -9.3690 C.2     1  UNL1        0.0830
      2  C         19.6600  -22.1070  -10.0090 C.2     1  UNL1        0.0540
      3  C         19.7020  -21.6410  -11.3250 C.2     1  UNL1        0.0360
      4  C         18.5010  -21.4360  -12.0000 C.2     1  UNL1        0.0300
      5  C         17.2770  -21.6960  -11.3710 C.2     1  UNL1        0.0100
      6  C         17.2180  -22.1560  -10.0450 C.2     1  UNL1       -0.0390
      7  C         15.8650  -22.4340   -9.4540 C.3     1  UNL1        0.0500
      8  N         20.9740  -21.4010  -11.8830 N.am    1  UNL1       -0.3230
      9  C         22.1060  -22.1820  -11.7510 C.2     1  UNL1        0.2560
     10  O         22.2360  -23.1940  -11.0750 O.2     1  UNL1       -0.2670
     11  H         21.0810  -20.5130  -12.3600 H       1  UNL1        0.1690
     12  C         23.2890  -21.6780  -12.4980 C.2     1  UNL1        0.0340
     13  C         24.4860  -21.5030  -11.8230 C.2     1  UNL1        0.0180
     14  C         25.5960  -21.0230  -12.5170 C.2     1  UNL1        0.0220
     15  C         25.5500  -20.7180  -13.8980 C.2     1  UNL1        0.0270
     16  C         24.3480  -20.9420  -14.5960 C.2     1  UNL1        0.0520
     17  S         27.1070  -20.0730  -14.4800 S.3     1  UNL1       -0.1270
     18  C         23.2260  -21.4130  -13.8710 C.2     1  UNL1        0.0480
     19  N         24.0740  -20.7670  -15.9690 N.am    1  UNL1       -0.3260
     20  C         24.7990  -20.4670  -17.0710 C.2     1  UNL1        0.2220
     21  H         23.1160  -20.9400  -16.2580 H       1  UNL1        0.1690
     22  O         24.1900  -20.4260  -18.1480 O.2     1  UNL1       -0.2730
     23  C         26.2750  -20.2340  -17.0360 C.3     1  UNL1        0.1130
     24  C         26.6400  -19.2130  -15.9920 C.3     1  UNL1        0.0890
     25  S         18.5100  -22.9940   -7.6950 S.O2    1  UNL1        0.2460
     26  O         18.0060  -24.3490   -7.6950 O.2     1  UNL1       -0.2060
     27  O         19.8350  -22.7080   -7.1800 O.2     1  UNL1       -0.2060
     28  N         17.3890  -22.0450   -6.8540 N.pl3   1  UNL1       -0.1790
     29  H         17.8160  -21.1660   -6.5550 H       1  UNL1        0.1460
     30  C         16.6160  -22.6780   -5.8260 C.2     1  UNL1        0.0560
     31  C         15.3440  -23.1770   -6.1060 C.2     1  UNL1        0.0270
     32  C         14.6250  -23.8360   -5.1100 C.2     1  UNL1        0.0020
     33  C         15.1800  -23.9970   -3.8410 C.2     1  UNL1        0.0030
     34  C         16.4530  -23.4890   -3.5540 C.2     1  UNL1        0.0380
     35  C         17.1790  -22.8230   -4.5430 C.2     1  UNL1        0.0900
     36  O         18.4300  -22.2800   -4.3860 O.2     1  UNL1       -0.3540
     37  C         18.5320  -21.1030   -3.5940 C.3     1  UNL1        0.2100
@<TRIPOS>BOND
     1    22    20    2
     2    20    23    1
     3    20    19   am
     4    23    24    1
     5    21    19    1
     6    24    17    1
     7    19    16    1
     8    16    15    2
     9    16    18    1
    10    17    15    1
    11    15    14    1
    12    18    12    2
    13    14    13    2
    14    12    13    1
    15    12     9    1
    16    11     8    1
    17     4     5    2
    18     4     3    1
    19     8     9   am
    20     8     3    1
    21     9    10    2
    22     5     6    1
    23     3     2    2
    24     6     7    1
    25     6     1    2
    26     2     1    1
    27     1    25    1
    28    25    26    2
    29    25    27    2
    30    25    28    1
    31    28    29    1
    32    28    30    1
    33    31    30    2
    34    31    32    1
    35    30    35    1
    36    32    33    2
    37    35    36    1
    38    35    34    2
    39    36    37    1
    40    33    34    1
