@<TRIPOS>MOLECULE
51516_out_ligand_01.pdbqt
 36 39 0 0 0
SMALL
GASTEIGER

@<TRIPOS>ATOM
      1  C         18.8430  -22.2840  -10.7160 C.2     1  UNL1        0.0840
      2  C         17.4530  -22.2050  -10.5240 C.2     1  UNL1        0.0390
      3  C         16.8360  -22.8590   -9.4560 C.2     1  UNL1        0.0270
      4  C         17.6100  -23.6020   -8.5690 C.2     1  UNL1        0.0760
      5  C         18.9920  -23.7000   -8.7400 C.2     1  UNL1        0.0440
      6  C         19.6260  -23.0400   -9.8100 C.2     1  UNL1        0.0670
      7  C         21.1230  -23.1980   -9.8900 C.2     1  UNL1        0.2590
      8  O         21.6440  -24.1020   -9.2430 O.2     1  UNL1       -0.2670
      9  N         21.7980  -22.3000  -10.6900 N.am    1  UNL1       -0.3230
     10  H         21.2250  -21.5760  -11.1140 H       1  UNL1        0.1690
     11  C         23.1760  -22.2500  -10.9770 C.2     1  UNL1        0.0360
     12  C         24.1210  -21.6070  -10.1730 C.2     1  UNL1        0.0290
     13  C         25.4800  -21.6250  -10.5120 C.2     1  UNL1        0.0040
     14  C         25.9050  -22.2760  -11.6670 C.2     1  UNL1        0.0250
     15  C         24.9600  -22.8920  -12.4870 C.2     1  UNL1        0.0810
     16  C         23.6040  -22.9020  -12.1370 C.2     1  UNL1        0.0540
     17  S         25.4880  -23.7400  -13.9600 S.O2    1  UNL1        0.2600
     18  O         24.9570  -25.0870  -13.8950 O.2     1  UNL1       -0.2000
     19  O         26.9070  -23.5050  -14.1140 O.2     1  UNL1       -0.2000
     20  N         24.6680  -22.9100  -15.1990 N.3     1  UNL1       -0.3150
     21  C         24.6170  -23.5620  -16.5200 C.3     1  UNL1        0.1620
     22  C         24.8780  -21.4550  -15.2800 C.3     1  UNL1        0.1620
     23  O         19.4930  -21.6520  -11.7470 O.2     1  UNL1       -0.3550
     24  C         19.5150  -20.2260  -11.7540 C.3     1  UNL1        0.2100
     25  S         16.8450  -24.4510   -7.2030 S.O2    1  UNL1        0.2480
     26  O         15.6420  -25.0840   -7.7070 O.2     1  UNL1       -0.2050
     27  O         17.8940  -25.2290   -6.5780 O.2     1  UNL1       -0.2050
     28  N         16.3840  -23.1600   -6.1950 N.pl3   1  UNL1       -0.1710
     29  C         15.4850  -23.5070   -5.0430 C.3     1  UNL1        0.1180
     30  C         15.7730  -22.4720   -3.9430 C.3     1  UNL1        0.0560
     31  C         17.1080  -21.9430   -4.3530 C.2     1  UNL1       -0.0350
     32  C         17.9390  -21.1010   -3.6290 C.2     1  UNL1        0.0090
     33  C         17.4350  -22.3510   -5.6460 C.2     1  UNL1        0.0310
     34  C         19.1160  -20.6560   -4.2320 C.2     1  UNL1        0.0010
     35  C         19.4280  -21.0340   -5.5470 C.2     1  UNL1        0.0020
     36  C         18.5750  -21.8760   -6.2680 C.2     1  UNL1        0.0250
@<TRIPOS>BOND
     1    21    20    1
     2    22    20    1
     3    20    17    1
     4    19    17    2
     5    17    18    2
     6    17    15    1
     7    15    16    1
     8    15    14    2
     9    16    11    2
    10    24    23    1
    11    23     1    1
    12    14    13    1
    13    10     9    1
    14    11     9    1
    15    11    12    1
    16     1     2    2
    17     1     6    1
    18     9     7   am
    19     2     3    1
    20    13    12    2
    21     7     6    1
    22     7     8    2
    23     6     5    2
    24     3     4    2
    25     5     4    1
    26     4    25    1
    27    26    25    2
    28    25    27    2
    29    25    28    1
    30    36    33    1
    31    36    35    2
    32    28    33    1
    33    28    29    1
    34    33    31    2
    35    35    34    1
    36    29    30    1
    37    31    30    1
    38    31    32    1
    39    34    32    2
