@<TRIPOS>MOLECULE
5159_out_ligand_01.pdbqt
 38 41 0 0 0
SMALL
GASTEIGER

@<TRIPOS>ATOM
      1  C         20.3970  -21.5280  -11.4730 C.2     1  UNL1        0.0320
      2  C         20.9760  -21.1900  -12.7020 C.2     1  UNL1        0.0170
      3  C         22.3340  -21.4240  -12.9280 C.2     1  UNL1        0.0100
      4  C         23.1380  -21.9830  -11.9240 C.2     1  UNL1       -0.0400
      5  C         22.5540  -22.3100  -10.6920 C.2     1  UNL1        0.0100
      6  C         21.1940  -22.0780  -10.4630 C.2     1  UNL1        0.0170
      7  C         18.9440  -21.2650  -11.2790 C.2     1  UNL1        0.2510
      8  N         18.2580  -22.1660  -10.4900 N.am    1  UNL1       -0.3570
      9  H         18.7050  -23.0320  -10.2210 H       1  UNL1        0.1620
     10  O         18.4070  -20.3150  -11.8360 O.2     1  UNL1       -0.2680
     11  C         16.8270  -22.0440  -10.2840 C.3     1  UNL1        0.1270
     12  C         16.2170  -23.3100   -9.6780 C.3     1  UNL1        0.0580
     13  C         16.3390  -23.3290   -8.1740 C.2     1  UNL1       -0.0570
     14  C         15.4840  -22.5520   -7.3800 C.2     1  UNL1        0.0090
     15  C         15.5880  -22.5870   -5.9890 C.2     1  UNL1        0.0250
     16  C         16.5530  -23.4010   -5.3900 C.2     1  UNL1        0.0740
     17  C         17.3990  -24.1940   -6.1670 C.2     1  UNL1        0.0250
     18  C         17.2920  -24.1530   -7.5570 C.2     1  UNL1        0.0090
     19  S         16.6800  -23.4430   -3.6230 S.O2    1  UNL1        0.2390
     20  O         16.2230  -24.7320   -3.1600 O.2     1  UNL1       -0.2060
     21  O         17.9550  -22.8850   -3.2380 O.2     1  UNL1       -0.2060
     22  N         15.5290  -22.2950   -3.1790 N.3     1  UNL1       -0.2250
     23  H         15.3270  -22.4030   -2.1830 H       1  UNL1        0.1360
     24  H         15.8070  -21.3420   -3.4090 H       1  UNL1        0.1360
     25  C         24.6070  -22.2530  -12.1750 C.3     1  UNL1        0.1750
     26  N         25.2190  -21.2240  -13.0030 N.ar    1  UNL1       -0.2610
     27  C         25.8380  -20.1620  -12.3650 C.ar    1  UNL1        0.3300
     28  O         25.9290  -20.0420  -11.1450 O.2     1  UNL1       -0.2460
     29  N         26.3850  -19.1980  -13.1640 N.ar    1  UNL1       -0.3070
     30  C         26.3550  -19.2330  -14.5550 C.ar    1  UNL1        0.0520
     31  H         26.8280  -18.4310  -12.6760 H       1  UNL1        0.1700
     32  C         26.9360  -18.2000  -15.2910 C.2     1  UNL1        0.0300
     33  C         25.7480  -20.3010  -15.2030 C.ar    1  UNL1        0.0590
     34  C         26.9030  -18.2460  -16.6870 C.2     1  UNL1        0.0020
     35  C         26.2930  -19.3180  -17.3410 C.2     1  UNL1        0.0010
     36  C         25.7140  -20.3500  -16.6000 C.2     1  UNL1        0.0190
     37  C         25.1460  -21.3730  -14.3870 C.ar    1  UNL1        0.2640
     38  O         24.6230  -22.3310  -14.9530 O.2     1  UNL1       -0.2670
@<TRIPOS>BOND
     1    35    34    2
     2    35    36    1
     3    34    32    1
     4    36    33    2
     5    32    30    2
     6    33    30   ar
     7    33    37   ar
     8    38    37    2
     9    30    29   ar
    10    37    26   ar
    11    29    31    1
    12    29    27   ar
    13    26    27   ar
    14    26    25    1
    15     3     2    1
    16     3     4    2
    17     2     1    2
    18    27    28    2
    19    25     4    1
    20     4     5    1
    21    10     7    2
    22     1     7    1
    23     1     6    1
    24     7     8   am
    25     5     6    2
    26     8    11    1
    27     8     9    1
    28    11    12    1
    29    12    13    1
    30    13    18    2
    31    13    14    1
    32    18    17    1
    33    14    15    2
    34    17    16    2
    35    15    16    1
    36    16    19    1
    37    19    21    2
    38    19    22    1
    39    19    20    2
    40    24    22    1
    41    22    23    1
