@<TRIPOS>MOLECULE
5160_out_ligand_01.pdbqt
 31 34 0 0 0
SMALL
GASTEIGER

@<TRIPOS>ATOM
      1  C         20.4680  -22.3640   -8.2190 C.2     1  UNL1        0.0360
      2  C         21.6420  -22.0670   -7.5310 C.2     1  UNL1        0.0320
      3  C         22.7910  -21.6890   -8.2310 C.2     1  UNL1        0.0400
      4  C         22.7880  -21.6290   -9.6270 C.2     1  UNL1        0.0920
      5  C         21.6270  -21.9210  -10.3300 C.2     1  UNL1        0.0680
      6  C         20.4680  -22.2810   -9.6180 C.2     1  UNL1        0.0490
      7  C         21.5220  -21.8600  -11.8020 C.2     1  UNL1        0.2590
      8  O         20.4230  -21.6450  -12.3190 O.2     1  UNL1       -0.2670
      9  N         22.5840  -22.1650  -12.6140 N.am    1  UNL1       -0.3200
     10  C         23.9160  -22.4400  -12.2830 C.2     1  UNL1        0.0690
     11  C         24.6760  -23.1430  -13.2290 C.2     1  UNL1        0.0390
     12  C         26.0220  -23.4600  -12.9870 C.2     1  UNL1       -0.0600
     13  C         26.8220  -24.2020  -14.0160 C.3     1  UNL1        0.0480
     14  C         26.6200  -23.0220  -11.8030 C.2     1  UNL1        0.0090
     15  C         25.8790  -22.2930  -10.8730 C.2     1  UNL1        0.0400
     16  C         24.5300  -22.0110  -11.1080 C.2     1  UNL1        0.1020
     17  O         23.9340  -21.1670  -10.2090 O.2     1  UNL1       -0.3070
     18  H         22.2990  -22.3060  -13.5740 H       1  UNL1        0.1690
     19  N         19.2600  -22.7380   -7.6000 N.am    1  UNL1       -0.3230
     20  C         18.6090  -22.1220   -6.5500 C.2     1  UNL1        0.2590
     21  O         19.0040  -21.1160   -5.9660 O.2     1  UNL1       -0.2670
     22  H         18.8110  -23.5740   -7.9630 H       1  UNL1        0.1690
     23  C         17.3070  -22.7420   -6.1100 C.2     1  UNL1        0.0650
     24  C         16.9770  -22.5960   -4.7490 C.2     1  UNL1        0.0200
     25  C         15.7890  -23.1170   -4.2360 C.2     1  UNL1        0.0010
     26  C         14.9120  -23.7880   -5.0780 C.2     1  UNL1        0.0030
     27  C         15.2240  -23.9490   -6.4300 C.2     1  UNL1        0.0380
     28  C         16.4260  -23.4520   -6.9540 C.2     1  UNL1        0.0840
     29  O         16.7560  -23.5790   -8.2800 O.2     1  UNL1       -0.3500
     30  C         15.9070  -22.9420   -9.2420 C.3     1  UNL1        0.1710
     31  C         16.7180  -21.9640  -10.0740 C.3     1  UNL1        0.0340
@<TRIPOS>BOND
     1    13    12    1
     2    18     9    1
     3    11    12    1
     4    11    10    2
     5    12    14    2
     6     9    10    1
     7     9     7   am
     8     8     7    2
     9    10    16    1
    10    14    15    1
    11     7     5    1
    12    16    15    2
    13    16    17    1
    14     5     4    2
    15     5     6    1
    16    17     4    1
    17    31    30    1
    18     4     3    1
    19     6     1    2
    20    30    29    1
    21    29    28    1
    22     3     2    2
    23     1    19    1
    24     1     2    1
    25    22    19    1
    26    19    20   am
    27    28    27    1
    28    28    23    2
    29    20    23    1
    30    20    21    2
    31    27    26    2
    32    23    24    1
    33    26    25    1
    34    24    25    2
