@<TRIPOS>MOLECULE
52096_out_ligand_01.pdbqt
 32 35 0 0 0
SMALL
GASTEIGER

@<TRIPOS>ATOM
      1  C         19.9990  -22.0770  -10.4140 C.2     1  UNL1       -0.0330
      2  C         19.8100  -20.8990  -11.1390 C.2     1  UNL1        0.0110
      3  C         18.5320  -20.5410  -11.5670 C.2     1  UNL1        0.0040
      4  C         17.4370  -21.3620  -11.2830 C.2     1  UNL1        0.0370
      5  C         17.6160  -22.5480  -10.5700 C.2     1  UNL1        0.0690
      6  C         18.8990  -22.8970  -10.1350 C.2     1  UNL1        0.0480
      7  C         21.3370  -22.4810   -9.9780 C.3     1  UNL1        0.0320
      8  C         22.4720  -22.5110  -10.7070 C.ar    1  UNL1        0.0820
      9  C         22.5930  -22.1250  -12.1530 C.ar    1  UNL1        0.1620
     10  C         23.7280  -22.9580   -9.9810 C.ar    1  UNL1        0.2830
     11  N         23.8700  -22.1870  -12.6770 N.ar    1  UNL1       -0.1890
     12  N         21.5810  -21.7590  -12.8830 N.pl3   1  UNL1       -0.2810
     13  N         24.1530  -21.8580  -13.9960 N.ar    1  UNL1       -0.1610
     14  C         24.9270  -22.5890  -11.9010 C.ar    1  UNL1        0.2010
     15  C         25.4280  -22.0130  -14.1900 C.ar    1  UNL1        0.0950
     16  C         26.1060  -21.7520  -15.4910 C.3     1  UNL1        0.0810
     17  S         26.4030  -22.5590  -12.8380 S.2     1  UNL1       -0.0330
     18  N         24.9250  -22.9510  -10.6690 N.ar    1  UNL1       -0.1820
     19  H         21.9560  -21.5530  -13.8210 H       1  UNL1        0.1880
     20  O         23.6770  -23.3180   -8.8090 O.2     1  UNL1       -0.2650
     21  O         16.6410  -23.4460  -10.2300 O.2     1  UNL1       -0.3490
     22  C         15.8240  -23.1660   -9.0940 C.3     1  UNL1        0.2020
     23  C         15.9250  -24.2790   -8.0480 C.3     1  UNL1        0.2020
     24  O         17.2500  -24.3910   -7.5210 O.2     1  UNL1       -0.3490
     25  C         17.5870  -23.4790   -6.5580 C.2     1  UNL1        0.0690
     26  C         18.6310  -22.5620   -6.6690 C.2     1  UNL1        0.0430
     27  C         18.9050  -21.6700   -5.6220 C.2     1  UNL1       -0.0590
     28  C         20.0210  -20.6750   -5.7520 C.3     1  UNL1        0.0480
     29  C         18.0870  -21.6760   -4.4850 C.2     1  UNL1        0.0130
     30  C         17.0080  -22.5620   -4.3840 C.2     1  UNL1       -0.0590
     31  C         16.1510  -22.5790   -3.1530 C.3     1  UNL1        0.0480
     32  C         16.7710  -23.4660   -5.4260 C.2     1  UNL1        0.0430
@<TRIPOS>BOND
     1    16    15    1
     2    15    13   ar
     3    15    17   ar
     4    13    11   ar
     5    19    12    1
     6    12     9    1
     7    17    14   ar
     8    11     9   ar
     9    11    14   ar
    10     9     8   ar
    11    14    18   ar
    12     3     4    2
    13     3     2    1
    14     4     5    1
    15     2     1    2
    16     8    10   ar
    17     8     7    1
    18    18    10   ar
    19     5    21    1
    20     5     6    2
    21     1     6    1
    22     1     7    1
    23    21    22    1
    24    10    20    2
    25    22    23    1
    26    23    24    1
    27    24    25    1
    28    26    25    2
    29    26    27    1
    30    25    32    1
    31    28    27    1
    32    27    29    2
    33    32    30    2
    34    29    30    1
    35    30    31    1
