@<TRIPOS>MOLECULE
52121_out_ligand_01.pdbqt
 36 39 0 0 0
SMALL
GASTEIGER

@<TRIPOS>ATOM
      1  C         16.3550  -22.8420   -9.0430 C.2     1  UNL1        0.0900
      2  C         17.6310  -22.7270   -9.4520 C.2     1  UNL1        0.1050
      3  N         18.7400  -23.3760   -8.9390 N.pl3   1  UNL1       -0.3500
      4  C         20.0160  -23.2400   -9.4990 C.2     1  UNL1        0.0590
      5  C         21.1110  -23.9240   -8.9660 C.2     1  UNL1        0.0330
      6  C         22.3870  -23.7470   -9.5120 C.2     1  UNL1        0.0190
      7  C         22.5710  -22.8690  -10.5880 C.2     1  UNL1        0.0340
      8  C         21.4870  -22.1500  -11.1060 C.2     1  UNL1        0.0490
      9  C         20.2200  -22.3430  -10.5600 C.2     1  UNL1        0.0620
     10  N         19.1240  -21.6380  -11.0780 N.am    1  UNL1       -0.3200
     11  C         17.8390  -21.7670  -10.6140 C.2     1  UNL1        0.2720
     12  O         16.9240  -21.1200  -11.1180 O.2     1  UNL1       -0.2660
     13  H         18.5900  -24.1470   -8.3020 H       1  UNL1        0.1660
     14  H         19.2500  -20.9940  -11.8470 H       1  UNL1        0.1690
     15  C         23.9100  -22.6540  -11.1920 C.2     1  UNL1        0.2520
     16  O         24.5910  -21.6970  -10.8480 O.2     1  UNL1       -0.2680
     17  N         24.2820  -23.5560  -12.1600 N.am    1  UNL1       -0.3530
     18  H         23.6540  -24.2940  -12.4460 H       1  UNL1        0.1630
     19  C         25.5620  -23.4610  -12.8270 C.3     1  UNL1        0.1610
     20  C         25.3890  -22.9230  -14.2250 C.2     1  UNL1       -0.0400
     21  C         25.2180  -23.7900  -15.3150 C.2     1  UNL1        0.0120
     22  C         25.0450  -23.2780  -16.6030 C.2     1  UNL1        0.0430
     23  C         25.0380  -21.9040  -16.8020 C.2     1  UNL1        0.1160
     24  F         24.8760  -21.4150  -18.0370 F       1  UNL1       -0.2060
     25  C         25.1950  -21.0270  -15.7330 C.2     1  UNL1        0.0430
     26  C         25.3720  -21.5340  -14.4440 C.2     1  UNL1        0.0120
     27  C         15.8990  -23.6880   -7.9160 C.2     1  UNL1        0.1840
     28  O         15.4980  -24.8260   -8.1350 O.2     1  UNL1       -0.2880
     29  C         15.9230  -23.1550   -6.5270 C.2     1  UNL1        0.0170
     30  C         14.7320  -22.6400   -6.0000 C.2     1  UNL1        0.0150
     31  C         14.7020  -22.1620   -4.6920 C.2     1  UNL1        0.0040
     32  C         15.8610  -22.1950   -3.9160 C.2     1  UNL1        0.0370
     33  C         17.0590  -22.6890   -4.4390 C.2     1  UNL1        0.0690
     34  C         17.0940  -23.1530   -5.7540 C.2     1  UNL1        0.0520
     35  O         18.1110  -22.6720   -3.5640 O.2     1  UNL1       -0.3560
     36  C         18.5920  -21.3980   -3.1530 C.3     1  UNL1        0.2100
@<TRIPOS>BOND
     1    24    23    1
     2    23    22    2
     3    23    25    1
     4    22    21    1
     5    25    26    2
     6    21    20    2
     7    26    20    1
     8    20    19    1
     9    19    17    1
    10    18    17    1
    11    17    15   am
    12    14    10    1
    13    15    16    2
    14    15     7    1
    15    12    11    2
    16     8     7    2
    17     8     9    1
    18    10    11   am
    19    10     9    1
    20    11     2    1
    21     7     6    1
    22     9     4    2
    23     6     5    2
    24     4     5    1
    25     4     3    1
    26     2     1    2
    27     2     3    1
    28     1    27    1
    29     3    13    1
    30    28    27    2
    31    27    29    1
    32    29    30    2
    33    29    34    1
    34    30    31    1
    35    34    33    2
    36    31    32    2
    37    33    32    1
    38    33    35    1
    39    35    36    1
