@<TRIPOS>MOLECULE
52140_out_ligand_01.pdbqt
 31 36 0 0 0
SMALL
GASTEIGER

@<TRIPOS>ATOM
      1  C         19.4180  -22.6320   -8.3440 C.ar    1  UNL1        0.0750
      2  N         20.7510  -22.8090   -8.2420 N.ar    1  UNL1       -0.2390
      3  C         21.4520  -22.5230   -9.3510 C.ar    1  UNL1        0.1120
      4  S         23.1400  -22.7040   -9.3380 S.2     1  UNL1       -0.0640
      5  C         23.2800  -22.1860  -10.9670 C.ar    1  UNL1        0.0770
      6  C         24.4300  -22.0560  -11.7580 C.2     1  UNL1        0.1240
      7  N         24.2690  -21.6210  -13.0260 N.2     1  UNL1       -0.2290
      8  C         23.0350  -21.3330  -13.4600 C.2     1  UNL1        0.2350
      9  N         21.8920  -21.4370  -12.7820 N.2     1  UNL1       -0.2400
     10  C         22.0330  -21.8780  -11.5030 C.ar    1  UNL1        0.0920
     11  C         20.9510  -22.0800  -10.5660 C.ar    1  UNL1        0.0370
     12  C         19.5410  -21.9060  -10.6610 C.ar    1  UNL1       -0.0340
     13  C         18.7690  -22.1640   -9.5000 C.ar    1  UNL1       -0.0210
     14  C         17.2660  -21.9780   -9.5150 C.3     1  UNL1        0.0410
     15  C         16.7650  -21.1070  -10.6640 C.3     1  UNL1        0.0050
     16  C         17.3770  -21.5740  -11.9740 C.3     1  UNL1        0.0050
     17  C         18.8930  -21.4070  -11.9330 C.3     1  UNL1        0.0400
     18  N         25.7070  -22.3400  -11.2690 N.pl3   1  UNL1       -0.2700
     19  H         25.7780  -22.1300  -10.2770 H       1  UNL1        0.1290
     20  C         26.2250  -23.6670  -11.5890 C.3     1  UNL1        0.1590
     21  C         26.2910  -23.9670  -13.0500 C.2     1  UNL1        0.0650
     22  C         27.1210  -23.5420  -14.0680 C.2     1  UNL1        0.0360
     23  C         26.6540  -24.1630  -15.2500 C.2     1  UNL1        0.0270
     24  C         25.5760  -24.9340  -14.8760 C.2     1  UNL1        0.1420
     25  O         25.3450  -24.8180  -13.5430 O.2     1  UNL1       -0.3260
     26  C         18.6990  -22.9790   -7.1060 C.2     1  UNL1       -0.0070
     27  C         18.1180  -24.2450   -6.9350 C.2     1  UNL1        0.0140
     28  C         17.4420  -24.5690   -5.7560 C.2     1  UNL1        0.0010
     29  C         17.3420  -23.6300   -4.7300 C.2     1  UNL1        0.0000
     30  C         17.9210  -22.3730   -4.8780 C.2     1  UNL1        0.0010
     31  C         18.6000  -22.0520   -6.0560 C.2     1  UNL1        0.0140
@<TRIPOS>BOND
     1    23    24    2
     2    23    22    1
     3    24    25    1
     4    22    21    2
     5    25    21    1
     6     8     7    2
     7     8     9    1
     8    21    20    1
     9     7     6    1
    10     9    10    2
    11    16    17    1
    12    16    15    1
    13    17    12    1
    14     6    18    1
    15     6     5    2
    16    20    18    1
    17    10     5   ar
    18    10    11   ar
    19    18    19    1
    20     5     4   ar
    21    15    14    1
    22    12    11   ar
    23    12    13   ar
    24    11     3   ar
    25    14    13    1
    26    13     1   ar
    27     3     4   ar
    28     3     2   ar
    29     1     2   ar
    30     1    26    1
    31    26    27    2
    32    26    31    1
    33    27    28    1
    34    31    30    2
    35    28    29    2
    36    30    29    1
