@<TRIPOS>MOLECULE
521_out_ligand_01.pdbqt
 42 45 0 0 0
SMALL
GASTEIGER

@<TRIPOS>ATOM
      1  N         21.3250  -22.6450  -10.1430 N.am    1  UNL1       -0.3230
      2  C         20.5720  -22.1650  -11.1970 C.2     1  UNL1        0.2560
      3  O         20.9650  -21.8690  -12.3170 O.2     1  UNL1       -0.2670
      4  H         20.8450  -22.7740   -9.2600 H       1  UNL1        0.1690
      5  C         22.7080  -22.9190  -10.1370 C.2     1  UNL1        0.0360
      6  C         23.6050  -22.4490  -11.0960 C.2     1  UNL1        0.0560
      7  C         24.9760  -22.7790  -11.0350 C.2     1  UNL1        0.0980
      8  C         25.4530  -23.5870  -10.0030 C.2     1  UNL1        0.0570
      9  C         24.5510  -24.0490   -9.0370 C.2     1  UNL1        0.0280
     10 CL         27.0790  -24.1240   -9.8160 Cl      1  UNL1       -0.0830
     11  C         23.1950  -23.7170   -9.1010 C.2     1  UNL1        0.0310
     12  S         26.0050  -22.0820  -12.3020 S.O2    1  UNL1        0.2470
     13  O         26.5910  -23.1040  -13.1360 O.2     1  UNL1       -0.2050
     14  O         26.8540  -21.1020  -11.6550 O.2     1  UNL1       -0.2050
     15  N         24.8880  -21.1800  -13.2130 N.pl3   1  UNL1       -0.1800
     16  H         24.8270  -20.2420  -12.8090 H       1  UNL1        0.1460
     17  C         25.0300  -21.2300  -14.6360 C.2     1  UNL1        0.0400
     18  C         25.8260  -20.3060  -15.3250 C.2     1  UNL1        0.0330
     19  C         26.0090  -20.4290  -16.7030 C.2     1  UNL1        0.0210
     20 BR         26.6600  -18.8540  -14.4310 Br      1  UNL1       -0.0490
     21  C         25.4010  -21.4780  -17.3960 C.2     1  UNL1        0.0080
     22  C         24.5920  -22.4010  -16.7220 C.2     1  UNL1       -0.0600
     23  C         23.9730  -23.5510  -17.4610 C.3     1  UNL1        0.0480
     24  C         24.4210  -22.2760  -15.3360 C.2     1  UNL1        0.0320
     25  C         19.1260  -21.9870  -10.9010 C.2     1  UNL1        0.0330
     26  C         18.3420  -21.0750  -11.6220 C.2     1  UNL1        0.0170
     27  C         16.9940  -20.9050  -11.2970 C.2     1  UNL1        0.0030
     28  C         16.4310  -21.6300  -10.2470 C.2     1  UNL1        0.0250
     29  C         17.2250  -22.5200   -9.5150 C.2     1  UNL1        0.0800
     30  C         18.5680  -22.7150   -9.8470 C.2     1  UNL1        0.0420
     31  S         16.5070  -23.4570   -8.1890 S.O2    1  UNL1        0.2630
     32  O         15.9300  -24.6630   -8.7370 O.2     1  UNL1       -0.2000
     33  O         15.7080  -22.5410   -7.4000 O.2     1  UNL1       -0.2000
     34  N         17.8500  -23.8370   -7.2310 N.pl3   1  UNL1       -0.2810
     35  H         18.6580  -24.0330   -7.8230 H       1  UNL1        0.1790
     36  C         18.0760  -23.0540   -6.0660 C.2     1  UNL1        0.0440
     37  C         17.5960  -23.4990   -4.8330 C.2     1  UNL1        0.0300
     38  C         17.7640  -22.7120   -3.6930 C.2     1  UNL1        0.0040
     39  C         18.4160  -21.4810   -3.7880 C.2     1  UNL1        0.0240
     40  C         18.8920  -21.0440   -5.0250 C.2     1  UNL1        0.0360
     41 CL         19.6920  -19.5250   -5.1390 Cl      1  UNL1       -0.0840
     42  C         18.7210  -21.8230   -6.1680 C.2     1  UNL1        0.0540
@<TRIPOS>BOND
     1    23    22    1
     2    21    22    2
     3    21    19    1
     4    22    24    1
     5    19    18    2
     6    24    17    2
     7    18    17    1
     8    18    20    1
     9    17    15    1
    10    15    16    1
    11    15    12    1
    12    13    12    2
    13     3     2    2
    14    12    14    2
    15    12     7    1
    16    26    27    1
    17    26    25    2
    18    27    28    2
    19     2    25    1
    20     2     1   am
    21     6     7    1
    22     6     5    2
    23     7     8    2
    24    25    30    1
    25    28    29    1
    26     1     5    1
    27     1     4    1
    28     5    11    1
    29     8    10    1
    30     8     9    1
    31    30    29    2
    32    29    31    1
    33    11     9    2
    34    32    31    2
    35    31    33    2
    36    31    34    1
    37    35    34    1
    38    34    36    1
    39    42    36    2
    40    42    40    1
    41    36    37    1
    42    41    40    1
    43    40    39    2
    44    37    38    2
    45    39    38    1
