@<TRIPOS>MOLECULE
52265_out_ligand_01.pdbqt
 36 39 0 0 0
SMALL
GASTEIGER

@<TRIPOS>ATOM
      1  C         22.0300  -22.0760  -11.0720 C.2     1  UNL1       -0.0380
      2  C         21.4900  -21.5000  -12.2420 C.2     1  UNL1        0.0090
      3  C         20.1210  -21.2550  -12.3550 C.2     1  UNL1        0.0100
      4  C         19.3010  -21.5920  -11.2890 C.2     1  UNL1       -0.0300
      5  C         19.8230  -22.1550  -10.1240 C.2     1  UNL1        0.0440
      6  C         21.1810  -22.3970  -10.0000 C.2     1  UNL1        0.0390
      7  N         18.7920  -22.4070   -9.2020 N.am    1  UNL1       -0.3130
      8  C         18.9580  -22.9490   -7.9390 C.2     1  UNL1        0.2590
      9  O         20.0190  -23.2600   -7.4080 O.2     1  UNL1       -0.2670
     10  C         17.5080  -22.0400   -9.8290 C.2     1  UNL1        0.1370
     11  C         17.8230  -21.3960  -11.1850 C.2     1  UNL1        0.0610
     12  C         23.5160  -22.3220  -10.9680 C.3     1  UNL1        0.1700
     13  N         23.9390  -23.3210  -11.9440 N.3     1  UNL1       -0.3110
     14  H         23.2950  -23.5410  -12.7010 H       1  UNL1        0.1720
     15  S         25.5460  -23.3490  -12.3970 S.O2    1  UNL1        0.2590
     16  O         25.7340  -24.4220  -13.3470 O.2     1  UNL1       -0.2010
     17  O         26.3190  -23.2630  -11.1780 O.2     1  UNL1       -0.2010
     18  C         25.7060  -21.7950  -13.2390 C.2     1  UNL1        0.0790
     19  C         26.4000  -20.7430  -12.6420 C.2     1  UNL1        0.0270
     20  C         26.5160  -19.5200  -13.3110 C.2     1  UNL1        0.0310
     21  C         25.9320  -19.3390  -14.5690 C.2     1  UNL1        0.0340
     22  C         25.2230  -20.4020  -15.1490 C.2     1  UNL1        0.0310
     23  C         25.1060  -21.6280  -14.4880 C.2     1  UNL1        0.0270
     24  N         26.0010  -18.1380  -15.3050 N.am    1  UNL1       -0.3270
     25  C         26.5090  -17.9560  -16.5820 C.2     1  UNL1        0.2210
     26  O         26.9800  -18.8210  -17.3090 O.2     1  UNL1       -0.2730
     27  H         25.6340  -17.3150  -14.8450 H       1  UNL1        0.1690
     28  C         26.4120  -16.4990  -17.0110 C.3     1  UNL1        0.0980
     29  C         25.4110  -16.2850  -18.1330 C.3     1  UNL1        0.0140
     30  C         17.7240  -23.1790   -7.1550 C.2     1  UNL1        0.0380
     31  C         16.8310  -24.1560   -7.6120 C.2     1  UNL1        0.0170
     32  C         15.6550  -24.3990   -6.9070 C.2     1  UNL1        0.0010
     33  C         15.3770  -23.6720   -5.7490 C.2     1  UNL1        0.0010
     34  C         16.2780  -22.7080   -5.2860 C.2     1  UNL1        0.0070
     35  C         17.4700  -22.4530   -5.9790 C.2     1  UNL1       -0.0460
     36  C         18.4360  -21.4240   -5.4660 C.3     1  UNL1        0.0490
@<TRIPOS>BOND
     1    29    28    1
     2    26    25    2
     3    28    25    1
     4    25    24   am
     5    24    27    1
     6    24    21    1
     7    22    21    2
     8    22    23    1
     9    21    20    1
    10    23    18    2
    11    16    15    2
    12    20    19    2
    13    18    19    1
    14    18    15    1
    15    14    13    1
    16    15    13    1
    17    15    17    2
    18     3     2    1
    19     3     4    2
    20     2     1    2
    21    13    12    1
    22     4    11    1
    23     4     5    1
    24    11    10    2
    25     1    12    1
    26     1     6    1
    27     5     6    2
    28     5     7    1
    29    10     7    1
    30     7     8   am
    31     8     9    2
    32     8    30    1
    33    31    30    2
    34    31    32    1
    35    30    35    1
    36    32    33    2
    37    35    36    1
    38    35    34    2
    39    33    34    1
