@<TRIPOS>MOLECULE
5235_out_ligand_01.pdbqt
 34 38 0 0 0
SMALL
GASTEIGER

@<TRIPOS>ATOM
      1  C         19.5370  -22.0790   -9.9100 C.2     1  UNL1        0.0340
      2  C         19.0530  -21.4120  -11.0350 C.2     1  UNL1        0.0190
      3  C         19.9100  -21.1730  -12.1110 C.2     1  UNL1        0.0350
      4  C         21.2340  -21.5940  -12.0900 C.ar    1  UNL1        0.0860
      5  N         22.0240  -21.3270  -13.1420 N.ar    1  UNL1       -0.2420
      6  C         23.3110  -21.7630  -13.0830 C.ar    1  UNL1        0.1150
      7  C         23.7810  -22.4870  -11.9820 C.ar    1  UNL1        0.1150
      8  N         22.9900  -22.7250  -10.8980 N.ar    1  UNL1       -0.2420
      9  C         21.7190  -22.2890  -10.9580 C.ar    1  UNL1        0.0870
     10  C         20.8640  -22.5250   -9.8900 C.2     1  UNL1        0.0510
     11  C         18.6740  -22.3690   -8.7310 C.2     1  UNL1        0.2560
     12  N         19.2400  -22.0700   -7.5050 N.am    1  UNL1       -0.3230
     13  H         20.2110  -21.7890   -7.4990 H       1  UNL1        0.1690
     14  O         17.5740  -22.8670   -8.9360 O.2     1  UNL1       -0.2670
     15  C         18.6430  -22.2010   -6.2310 C.2     1  UNL1        0.0370
     16  C         18.9460  -21.2140   -5.2840 C.2     1  UNL1        0.0290
     17  C         18.3940  -21.2670   -4.0040 C.2     1  UNL1        0.0050
     18  C         17.5320  -22.3070   -3.6650 C.2     1  UNL1        0.0370
     19  C         17.2180  -23.2970   -4.5960 C.2     1  UNL1        0.0700
     20  C         17.7740  -23.2390   -5.8780 C.2     1  UNL1        0.0660
     21  O         16.3600  -24.2590   -4.1340 O.2     1  UNL1       -0.3560
     22  C         14.9830  -24.0980   -4.4520 C.3     1  UNL1        0.2100
     23  C         25.1110  -23.0820  -11.8330 C.2     1  UNL1        0.0630
     24  C         25.9320  -23.7850  -12.7000 C.2     1  UNL1        0.0330
     25  C         27.1170  -24.1340  -12.0060 C.2     1  UNL1        0.0190
     26  C         26.9820  -23.6760  -10.7170 C.2     1  UNL1        0.0880
     27  N         25.7560  -23.0780  -10.6120 N.pl3   1  UNL1       -0.3640
     28  H         25.3490  -22.6920   -9.7690 H       1  UNL1        0.1650
     29  C         24.0980  -21.3240  -14.2340 C.2     1  UNL1        0.0630
     30  C         25.0700  -20.3390  -14.3240 C.2     1  UNL1        0.0330
     31  C         25.5690  -20.3240  -15.6480 C.2     1  UNL1        0.0190
     32  C         24.9170  -21.3190  -16.3360 C.2     1  UNL1        0.0880
     33  N         24.0500  -21.9350  -15.4700 N.pl3   1  UNL1       -0.3640
     34  H         23.4480  -22.7110  -15.7110 H       1  UNL1        0.1650
@<TRIPOS>BOND
     1    32    31    2
     2    32    33    1
     3    34    33    1
     4    31    30    1
     5    33    29    1
     6    30    29    2
     7    29     6    1
     8     5     6   ar
     9     5     4   ar
    10     6     7   ar
    11    24    25    1
    12    24    23    2
    13     3     4    2
    14     3     2    1
    15     4     9   ar
    16    25    26    2
    17     7    23    1
    18     7     8   ar
    19    23    27    1
    20     2     1    2
    21     9     8   ar
    22     9    10    2
    23    26    27    1
    24    27    28    1
    25     1    10    1
    26     1    11    1
    27    14    11    2
    28    11    12   am
    29    12    13    1
    30    12    15    1
    31    15    20    2
    32    15    16    1
    33    20    19    1
    34    16    17    2
    35    19    21    1
    36    19    18    2
    37    22    21    1
    38    17    18    1
