@<TRIPOS>MOLECULE
52550_out_ligand_01.pdbqt
 34 37 0 0 0
SMALL
GASTEIGER

@<TRIPOS>ATOM
      1  C         24.1390  -21.7460  -10.4000 C.ar    1  UNL1        0.7260
      2  N         25.1920  -20.9770  -10.6120 N.ar    1  UNL1       -0.0420
      3  C         25.1390  -20.6540  -11.9300 C.ar    1  UNL1        0.1860
      4  C         24.0720  -21.2330  -12.5550 C.ar    1  UNL1        0.1670
      5  C         23.7890  -21.0070  -13.9340 C.ar    1  UNL1        0.2800
      6  O         22.8150  -21.4280  -14.5530 O.2     1  UNL1       -0.2650
      7  N         24.7290  -20.2000  -14.5430 N.ar    1  UNL1       -0.2730
      8  C         25.7990  -19.5600  -13.9480 C.ar    1  UNL1        0.3300
      9  O         26.4910  -18.8050  -14.6330 O.2     1  UNL1       -0.2460
     10  N         26.0110  -19.8130  -12.5940 N.ar    1  UNL1       -0.2860
     11  C         27.1210  -19.1980  -11.8960 C.3     1  UNL1        0.1630
     12  N         23.4500  -21.9860  -11.5810 N.ar    1  UNL1       -0.1660
     13  H         24.5690  -19.9720  -15.5150 H       1  UNL1        0.1730
     14  N         23.7900  -22.1890   -9.1670 N.pl3   1  UNL1       -0.1070
     15  H         24.6100  -22.4000   -8.5980 H       1  UNL1        0.2080
     16  N         22.6290  -21.8970   -8.5200 N.3     1  UNL1       -0.1720
     17  C         21.8670  -22.9260   -8.3010 C.3     1  UNL1        0.1500
     18  C         20.5510  -22.8040   -7.6450 C.2     1  UNL1       -0.0170
     19  C         20.2110  -21.6630   -6.9180 C.2     1  UNL1        0.0150
     20  C         18.9420  -21.5710   -6.3390 C.2     1  UNL1        0.0370
     21  C         18.0260  -22.6220   -6.4560 C.2     1  UNL1        0.0680
     22  C         18.3790  -23.7640   -7.1790 C.2     1  UNL1        0.0370
     23  C         19.6380  -23.8530   -7.7820 C.2     1  UNL1        0.0150
     24  O         16.8320  -22.4080   -5.8260 O.2     1  UNL1       -0.3520
     25  C         15.6500  -22.4840   -6.6290 C.3     1  UNL1        0.1710
     26  C         14.4740  -22.0910   -5.7520 C.3     1  UNL1        0.0340
     27  C         22.2990  -22.8460  -11.7990 C.3     1  UNL1        0.1860
     28  C         20.9950  -22.1120  -11.5920 C.2     1  UNL1       -0.0390
     29  C         20.8960  -20.7360  -11.8400 C.2     1  UNL1        0.0090
     30  C         19.6920  -20.0630  -11.6330 C.2     1  UNL1        0.0010
     31  C         18.5690  -20.7600  -11.1860 C.2     1  UNL1        0.0070
     32  C         18.6370  -22.1380  -10.9550 C.2     1  UNL1       -0.0610
     33  C         17.4430  -22.8960  -10.4530 C.3     1  UNL1        0.0480
     34  C         19.8560  -22.8020  -11.1480 C.2     1  UNL1        0.0150
@<TRIPOS>BOND
     1    13     7    1
     2     9     8    2
     3     6     5    2
     4     7     8   ar
     5     7     5   ar
     6     8    10   ar
     7     5     4   ar
     8    10     3   ar
     9    10    11    1
    10     4     3   ar
    11     4    12   ar
    12     3     2   ar
    13    29    30    1
    14    29    28    2
    15    27    28    1
    16    27    12    1
    17    30    31    2
    18    28    34    1
    19    12     1   ar
    20    31    32    1
    21    34    32    2
    22    32    33    1
    23     2     1   ar
    24     1    14    1
    25    14    15    1
    26    14    16    1
    27    16    17    1
    28    17    18    1
    29    23    18    2
    30    23    22    1
    31    18    19    1
    32    22    21    2
    33    19    20    2
    34    25    24    1
    35    25    26    1
    36    21    20    1
    37    21    24    1
