@<TRIPOS>MOLECULE
52561_out_ligand_01.pdbqt
 32 35 0 0 0
SMALL
GASTEIGER

@<TRIPOS>ATOM
      1  C         23.5430  -22.3570  -10.0000 C.ar    1  UNL1        0.7250
      2  N         24.7500  -22.7940  -10.3190 N.ar    1  UNL1       -0.0420
      3  C         24.8600  -22.6100  -11.6580 C.ar    1  UNL1        0.1860
      4  C         23.7380  -22.0470  -12.1880 C.ar    1  UNL1        0.1660
      5  C         23.6030  -21.7730  -13.5750 C.ar    1  UNL1        0.2800
      6  O         22.6080  -21.2970  -14.1090 O.2     1  UNL1       -0.2650
      7  N         24.7310  -22.1110  -14.2900 N.ar    1  UNL1       -0.2730
      8  C         25.8900  -22.6880  -13.8050 C.ar    1  UNL1        0.3300
      9  O         26.7990  -22.9480  -14.5940 O.2     1  UNL1       -0.2460
     10  N         25.9480  -22.9400  -12.4390 N.ar    1  UNL1       -0.2860
     11  C         27.1210  -23.5520  -11.8460 C.3     1  UNL1        0.1630
     12  N         22.8960  -21.8640  -11.1220 N.ar    1  UNL1       -0.1700
     13  H         24.7030  -21.9480  -15.2840 H       1  UNL1        0.1730
     14  N         22.9460  -22.3510   -8.7730 N.pl3   1  UNL1       -0.1070
     15  H         23.1630  -21.5710   -8.1570 H       1  UNL1        0.2080
     16  N         21.7070  -22.8720   -8.5020 N.2     1  UNL1       -0.1720
     17  C         20.9790  -22.2040   -7.6600 C.2     1  UNL1        0.1500
     18  C         19.6380  -22.6640   -7.2500 C.2     1  UNL1       -0.0170
     19  C         18.7510  -21.8060   -6.5960 C.2     1  UNL1        0.0130
     20  C         17.4900  -22.2690   -6.2170 C.2     1  UNL1        0.0070
     21  C         17.1090  -23.5920   -6.4800 C.2     1  UNL1       -0.0620
     22  C         15.7400  -24.0750   -6.1020 C.3     1  UNL1        0.0480
     23  C         18.0010  -24.4390   -7.1510 C.2     1  UNL1        0.0070
     24  C         19.2640  -23.9800   -7.5310 C.2     1  UNL1        0.0130
     25  C         21.5840  -21.2490  -11.1810 C.3     1  UNL1        0.1530
     26  C         20.5530  -22.1670  -11.8340 C.3     1  UNL1        0.0590
     27  C         19.1690  -21.9080  -11.2960 C.2     1  UNL1       -0.0570
     28  C         18.5560  -20.6610  -11.4710 C.2     1  UNL1        0.0070
     29  C         17.2660  -20.4360  -10.9880 C.2     1  UNL1        0.0010
     30  C         16.5780  -21.4550  -10.3310 C.2     1  UNL1        0.0000
     31  C         17.1780  -22.7000  -10.1540 C.2     1  UNL1        0.0010
     32  C         18.4690  -22.9270  -10.6350 C.2     1  UNL1        0.0070
@<TRIPOS>BOND
     1    13     7    1
     2     9     8    2
     3     7     8   ar
     4     7     5   ar
     5     6     5    2
     6     8    10   ar
     7     5     4   ar
     8    10    11    1
     9    10     3   ar
    10     4     3   ar
    11     4    12   ar
    12    26    27    1
    13    26    25    1
    14     3     2   ar
    15    28    27    2
    16    28    29    1
    17    27    32    1
    18    25    12    1
    19    12     1   ar
    20    29    30    2
    21    32    31    2
    22    30    31    1
    23     2     1   ar
    24     1    14    1
    25    14    16    1
    26    14    15    1
    27    16    17    2
    28    17    18    1
    29    24    18    2
    30    24    23    1
    31    18    19    1
    32    23    21    2
    33    19    20    2
    34    21    20    1
    35    21    22    1
