@<TRIPOS>MOLECULE
52595_out_ligand_01.pdbqt
 34 37 0 0 0
SMALL
GASTEIGER

@<TRIPOS>ATOM
      1  N         19.2630  -19.7640   -5.0140 N.1     1  UNL1       -0.1910
      2  C         19.2610  -20.7140   -5.6830 C.1     1  UNL1        0.1030
      3  C         19.1150  -21.9270   -6.4320 C.ar    1  UNL1        0.0850
      4  C         20.0470  -22.5430   -7.2560 C.ar    1  UNL1        0.0980
      5  S         19.4710  -24.0410   -7.9070 S.2     1  UNL1       -0.0750
      6  C         18.0080  -23.8450   -7.1330 C.ar    1  UNL1       -0.0070
      7  C         17.9260  -22.7050   -6.3840 C.ar    1  UNL1       -0.0210
      8  C         16.6040  -22.6030   -5.7130 C.3     1  UNL1        0.0420
      9  C         16.0250  -24.0410   -5.9000 C.3     1  UNL1        0.0100
     10  C         16.7880  -24.6830   -7.0990 C.3     1  UNL1        0.0470
     11  N         21.3210  -22.2880   -7.7000 N.am    1  UNL1       -0.3190
     12  C         22.0780  -23.0770   -8.5360 C.2     1  UNL1        0.2350
     13  O         21.7360  -24.1390   -9.0430 O.2     1  UNL1       -0.2720
     14  H         21.8210  -21.4980   -7.2910 H       1  UNL1        0.1690
     15  C         23.4620  -22.4700   -8.8060 C.3     1  UNL1        0.1950
     16  N         23.4020  -21.4460   -9.8830 N.pl3   1  UNL1       -0.2830
     17  H         22.4120  -21.2480  -10.1050 H       1  UNL1        0.1280
     18  C         24.0310  -21.8740  -11.0840 C.2     1  UNL1        0.0240
     19  C         25.3690  -22.3000  -11.0340 C.2     1  UNL1        0.0240
     20  C         26.0300  -22.7320  -12.1850 C.2     1  UNL1        0.0020
     21  C         25.3670  -22.7470  -13.4080 C.2     1  UNL1        0.0010
     22  C         24.0320  -22.3480  -13.4810 C.2     1  UNL1        0.0190
     23  C         23.3500  -21.9360  -12.3230 C.2     1  UNL1        0.0530
     24  C         21.9040  -21.5580  -12.4080 C.2     1  UNL1        0.2580
     25  O         21.5410  -20.8480  -13.3410 O.2     1  UNL1       -0.2670
     26  N         21.1160  -22.0020  -11.3610 N.am    1  UNL1       -0.3230
     27  H         21.5920  -22.4270  -10.5750 H       1  UNL1        0.1690
     28  C         19.7230  -21.8310  -11.2060 C.2     1  UNL1        0.0350
     29  C         19.0470  -20.6400  -11.4890 C.2     1  UNL1        0.0320
     30  C         17.6620  -20.5560  -11.3170 C.2     1  UNL1        0.0440
     31  C         16.9550  -21.6610  -10.8620 C.2     1  UNL1        0.1160
     32  F         15.6280  -21.5780  -10.6980 F       1  UNL1       -0.2060
     33  C         17.6070  -22.8550  -10.5810 C.2     1  UNL1        0.0440
     34  C         18.9900  -22.9400  -10.7550 C.2     1  UNL1        0.0320
@<TRIPOS>BOND
     1    22    21    2
     2    22    23    1
     3    21    20    1
     4    25    24    2
     5    24    23    1
     6    24    26   am
     7    23    18    2
     8    20    19    2
     9    29    30    1
    10    29    28    2
    11    26    28    1
    12    26    27    1
    13    30    31    2
    14    28    34    1
    15    18    19    1
    16    18    16    1
    17    31    32    1
    18    31    33    1
    19    34    33    2
    20    17    16    1
    21    16    15    1
    22    13    12    2
    23    15    12    1
    24    12    11   am
    25     5     4   ar
    26     5     6   ar
    27    11    14    1
    28    11     4    1
    29     4     3   ar
    30     6    10    1
    31     6     7   ar
    32    10     9    1
    33     3     7   ar
    34     3     2    1
    35     7     8    1
    36     9     8    1
    37     2     1    3
