@<TRIPOS>MOLECULE
52963_out_ligand_01.pdbqt
 42 45 0 0 0
SMALL
GASTEIGER

@<TRIPOS>ATOM
      1  C         21.0470  -21.6780   -7.3300 C.2     1  UNL1        0.2560
      2  O         21.9450  -20.9080   -7.0130 O.2     1  UNL1       -0.2670
      3  N         20.9980  -22.4630   -8.4690 N.am    1  UNL1       -0.3230
      4  H         20.1460  -22.9780   -8.6420 H       1  UNL1        0.1690
      5  C         19.8580  -21.7770   -6.4320 C.2     1  UNL1        0.0330
      6  C         18.9280  -22.7940   -6.6720 C.2     1  UNL1        0.0420
      7  C         17.7890  -22.9320   -5.8590 C.2     1  UNL1        0.0860
      8  C         17.5630  -22.0370   -4.7940 C.2     1  UNL1       -0.0390
      9  C         18.4950  -21.0040   -4.5860 C.2     1  UNL1        0.0090
     10  C         16.3680  -22.1000   -3.8830 C.3     1  UNL1        0.0500
     11  C         19.6270  -20.8700   -5.3950 C.2     1  UNL1        0.0170
     12  S         16.6660  -24.2550   -6.2910 S.O2    1  UNL1        0.2630
     13  O         15.7440  -24.4120   -5.1840 O.2     1  UNL1       -0.2000
     14  O         17.3960  -25.3980   -6.7900 O.2     1  UNL1       -0.2000
     15  N         15.7640  -23.5630   -7.5370 N.pl3   1  UNL1       -0.2810
     16  H         14.8930  -24.0670   -7.6970 H       1  UNL1        0.1790
     17  C         16.4450  -23.0450   -8.6680 C.2     1  UNL1        0.0420
     18  C         17.5310  -23.7220   -9.2180 C.2     1  UNL1        0.0300
     19  C         18.1850  -23.1960  -10.3330 C.2     1  UNL1        0.0090
     20  C         17.7540  -21.9910  -10.9060 C.2     1  UNL1       -0.0620
     21  C         18.4390  -21.4490  -12.1250 C.3     1  UNL1        0.0480
     22  C         16.6450  -21.3320  -10.3570 C.2     1  UNL1        0.0090
     23  C         15.9950  -21.8560   -9.2380 C.2     1  UNL1        0.0300
     24  C         21.9880  -22.5810   -9.4690 C.2     1  UNL1        0.0350
     25  C         21.6610  -22.1120  -10.7490 C.2     1  UNL1        0.0310
     26  C         22.5770  -22.2020  -11.8010 C.2     1  UNL1        0.0270
     27  C         23.8330  -22.7620  -11.5690 C.2     1  UNL1        0.0800
     28  C         24.1810  -23.2190  -10.2980 C.2     1  UNL1        0.0270
     29  C         23.2550  -23.1350   -9.2540 C.2     1  UNL1        0.0310
     30  S         25.0040  -22.9010  -12.8940 S.O2    1  UNL1        0.2630
     31  O         25.1310  -24.3090  -13.2060 O.2     1  UNL1       -0.2000
     32  O         26.1650  -22.0950  -12.5800 O.2     1  UNL1       -0.2000
     33  N         24.1820  -22.2000  -14.1970 N.pl3   1  UNL1       -0.2810
     34  H         23.4950  -22.8500  -14.5780 H       1  UNL1        0.1790
     35  C         24.9360  -21.4210  -15.1170 C.2     1  UNL1        0.0440
     36  C         25.2090  -21.9290  -16.3850 C.2     1  UNL1        0.0310
     37  C         25.9180  -21.1570  -17.3070 C.2     1  UNL1        0.0110
     38  C         26.3530  -19.8650  -16.9740 C.2     1  UNL1       -0.0400
     39  C         27.1180  -19.0590  -17.9880 C.3     1  UNL1        0.0500
     40  C         26.0610  -19.3660  -15.6940 C.2     1  UNL1        0.0420
     41 CL         26.5590  -17.7850  -15.2110 Cl      1  UNL1       -0.0840
     42  C         25.3530  -20.1380  -14.7700 C.2     1  UNL1        0.0540
@<TRIPOS>BOND
     1    39    38    1
     2    37    38    2
     3    37    36    1
     4    38    40    1
     5    36    35    2
     6    40    41    1
     7    40    42    2
     8    35    42    1
     9    35    33    1
    10    34    33    1
    11    33    30    1
    12    31    30    2
    13    30    32    2
    14    30    27    1
    15    21    20    1
    16    26    27    2
    17    26    25    1
    18    27    28    1
    19    20    22    2
    20    20    19    1
    21    25    24    2
    22    22    23    1
    23    19    18    2
    24    28    29    2
    25    24    29    1
    26    24     3    1
    27    23    17    2
    28    18    17    1
    29    17    15    1
    30     4     3    1
    31     3     1   am
    32    16    15    1
    33    15    12    1
    34     1     2    2
    35     1     5    1
    36    14    12    2
    37     6     5    2
    38     6     7    1
    39     5    11    1
    40    12     7    1
    41    12    13    2
    42     7     8    2
    43    11     9    2
    44     8     9    1
    45     8    10    1
