@<TRIPOS>MOLECULE
52968_out_ligand_01.pdbqt
 37 40 0 0 0
SMALL
GASTEIGER

@<TRIPOS>ATOM
      1  C         18.2190  -22.5600   -9.8530 C.2     1  UNL1        0.0860
      2  C         19.5360  -23.0260   -9.6970 C.2     1  UNL1        0.0420
      3  C         20.5620  -22.5190  -10.4970 C.2     1  UNL1        0.0330
      4  C         20.2760  -21.5500  -11.4620 C.2     1  UNL1        0.0170
      5  C         18.9680  -21.0800  -11.6110 C.2     1  UNL1        0.0090
      6  C         17.9180  -21.5780  -10.8180 C.2     1  UNL1       -0.0390
      7  C         16.5480  -20.9900  -11.0210 C.3     1  UNL1        0.0500
      8  C         21.9410  -23.0480  -10.3080 C.2     1  UNL1        0.2560
      9  O         22.1030  -23.9900   -9.5440 O.2     1  UNL1       -0.2670
     10  N         22.9170  -22.3760  -11.0140 N.am    1  UNL1       -0.3200
     11  H         22.6510  -21.5300  -11.5030 H       1  UNL1        0.1690
     12  C         24.3030  -22.6520  -11.0490 C.2     1  UNL1        0.0700
     13  C         24.9510  -23.5050  -10.1550 C.2     1  UNL1        0.0560
     14  C         26.3280  -23.7220  -10.2710 C.2     1  UNL1        0.0360
     15 CL         27.1210  -24.7800   -9.1680 Cl      1  UNL1       -0.0840
     16  C         27.0730  -23.0940  -11.2680 C.2     1  UNL1        0.0260
     17  C         26.4370  -22.2430  -12.1690 C.2     1  UNL1        0.0410
     18  C         25.0580  -22.0400  -12.0660 C.2     1  UNL1        0.1020
     19  O         24.4180  -21.1700  -12.9250 O.2     1  UNL1       -0.3090
     20  C         24.7190  -21.2790  -14.2650 C.2     1  UNL1        0.0760
     21  C         24.4050  -22.3990  -15.0380 C.2     1  UNL1        0.0370
     22  C         24.7060  -22.4080  -16.4000 C.2     1  UNL1        0.0030
     23  C         25.3040  -21.2950  -16.9910 C.2     1  UNL1        0.0000
     24  C         25.6010  -20.1690  -16.2220 C.2     1  UNL1        0.0030
     25  C         25.3020  -20.1580  -14.8620 C.2     1  UNL1        0.0370
     26  S         16.9830  -23.2390   -8.7480 S.O2    1  UNL1        0.2630
     27  O         15.8010  -23.5400   -9.5280 O.2     1  UNL1       -0.2000
     28  O         17.6070  -24.2730   -7.9490 O.2     1  UNL1       -0.2000
     29  N         16.6510  -21.9580   -7.7010 N.pl3   1  UNL1       -0.2800
     30  H         16.0870  -21.2330   -8.1360 H       1  UNL1        0.1790
     31  C         16.5170  -22.1810   -6.2960 C.2     1  UNL1        0.0480
     32  C         15.2850  -22.5700   -5.7630 C.2     1  UNL1        0.0300
     33  C         15.1310  -22.7530   -4.3880 C.2     1  UNL1        0.0020
     34  C         16.2180  -22.5650   -3.5370 C.2     1  UNL1        0.0010
     35  C         17.4590  -22.2050   -4.0630 C.2     1  UNL1        0.0090
     36  C         17.6260  -22.0160   -5.4460 C.2     1  UNL1       -0.0350
     37  C         18.9790  -21.6250   -5.9600 C.3     1  UNL1        0.0500
@<TRIPOS>BOND
     1    23    22    2
     2    23    24    1
     3    22    21    1
     4    24    25    2
     5    21    20    2
     6    25    20    1
     7    20    19    1
     8    19    18    1
     9    17    18    1
    10    17    16    2
    11    18    12    2
    12     5     4    2
    13     5     6    1
    14    11    10    1
    15     4     3    1
    16    16    14    1
    17    12    10    1
    18    12    13    1
    19     7     6    1
    20    10     8   am
    21     6     1    2
    22     3     8    1
    23     3     2    2
    24     8     9    2
    25    14    13    2
    26    14    15    1
    27     1     2    1
    28     1    26    1
    29    27    26    2
    30    26    28    2
    31    26    29    1
    32    30    29    1
    33    29    31    1
    34    31    32    2
    35    31    36    1
    36    37    36    1
    37    32    33    1
    38    36    35    2
    39    33    34    2
    40    35    34    1
