@<TRIPOS>MOLECULE
52977_out_ligand_01.pdbqt
 45 48 0 0 0
SMALL
GASTEIGER

@<TRIPOS>ATOM
      1  C         22.2850  -22.3250  -10.7160 C.2     1  UNL1        0.2560
      2  O         21.6310  -21.3100  -10.9070 O.2     1  UNL1       -0.2670
      3  N         22.0750  -23.2970   -9.7550 N.am    1  UNL1       -0.3230
      4  H         22.7660  -24.0320   -9.6880 H       1  UNL1        0.1690
      5  C         21.0690  -23.3160   -8.7660 C.2     1  UNL1        0.0350
      6  C         20.1340  -24.3440   -8.6220 C.2     1  UNL1        0.0310
      7  C         19.1420  -24.2730   -7.6370 C.2     1  UNL1        0.0270
      8  C         19.0990  -23.1730   -6.7760 C.2     1  UNL1        0.0800
      9  C         20.0260  -22.1380   -6.9060 C.2     1  UNL1        0.0270
     10  C         21.0090  -22.2150   -7.8960 C.2     1  UNL1        0.0310
     11  S         17.8030  -23.0590   -5.5600 S.O2    1  UNL1        0.2630
     12  O         17.4280  -24.4040   -5.1790 O.2     1  UNL1       -0.2000
     13  O         18.2190  -22.0880   -4.5700 O.2     1  UNL1       -0.2000
     14  N         16.5410  -22.3390   -6.4170 N.pl3   1  UNL1       -0.2810
     15  H         16.3160  -21.4080   -6.0670 H       1  UNL1        0.1790
     16  C         16.3660  -22.6110   -7.8010 C.2     1  UNL1        0.0430
     17  C         15.6300  -23.7140   -8.2310 C.2     1  UNL1        0.0300
     18  C         15.4710  -23.9610   -9.5950 C.2     1  UNL1        0.0030
     19  C         16.0420  -23.0990  -10.5320 C.2     1  UNL1        0.0160
     20  C         16.7710  -21.9770  -10.1110 C.2     1  UNL1        0.0500
     21  C         16.9380  -21.7480   -8.7340 C.2     1  UNL1        0.0460
     22  C         17.3790  -21.0260  -11.1140 C.3     1  UNL1        0.4170
     23  F         18.7110  -20.8270  -10.9040 F       1  UNL1       -0.1660
     24  F         16.8130  -19.7890  -11.0980 F       1  UNL1       -0.1660
     25  F         17.2610  -21.4740  -12.3940 F       1  UNL1       -0.1660
     26  C         23.4710  -22.5600  -11.5830 C.2     1  UNL1        0.0340
     27  C         23.4260  -22.1260  -12.9130 C.2     1  UNL1        0.0430
     28  C         24.5350  -22.3160  -13.7540 C.2     1  UNL1        0.0970
     29  C         25.6800  -22.9560  -13.2710 C.2     1  UNL1        0.0570
     30  C         25.7050  -23.4100  -11.9450 C.2     1  UNL1        0.0260
     31 CL         27.0970  -23.2410  -14.2150 Cl      1  UNL1       -0.0830
     32  C         24.6080  -23.2150  -11.1010 C.2     1  UNL1        0.0190
     33  S         24.4560  -21.6820  -15.4070 S.O2    1  UNL1        0.2470
     34  O         24.1640  -22.7970  -16.2830 O.2     1  UNL1       -0.2050
     35  O         23.6070  -20.5090  -15.3750 O.2     1  UNL1       -0.2050
     36  N         26.0630  -21.1730  -15.6820 N.pl3   1  UNL1       -0.1810
     37  H         26.5860  -21.3390  -14.8190 H       1  UNL1        0.1460
     38  C         26.1700  -19.7840  -16.0470 C.2     1  UNL1        0.0280
     39  C         26.0460  -19.4170  -17.3910 C.2     1  UNL1        0.0250
     40  C         26.2100  -18.0850  -17.7740 C.2     1  UNL1        0.0080
     41  C         26.5000  -17.1080  -16.8170 C.2     1  UNL1       -0.0610
     42  C         26.7380  -15.6830  -17.2220 C.3     1  UNL1        0.0480
     43  C         26.6280  -17.4860  -15.4700 C.2     1  UNL1        0.0150
     44  C         26.4560  -18.8210  -15.0700 C.2     1  UNL1       -0.0390
     45  C         26.6300  -19.1860  -13.6220 C.3     1  UNL1        0.0500
@<TRIPOS>BOND
     1    40    39    1
     2    40    41    2
     3    39    38    2
     4    42    41    1
     5    41    43    1
     6    34    33    2
     7    38    36    1
     8    38    44    1
     9    36    33    1
    10    36    37    1
    11    43    44    2
    12    33    35    2
    13    33    28    1
    14    44    45    1
    15    31    29    1
    16    28    29    2
    17    28    27    1
    18    29    30    1
    19    27    26    2
    20    25    22    1
    21    30    32    2
    22    26    32    1
    23    26     1    1
    24    22    24    1
    25    22    23    1
    26    22    20    1
    27     2     1    2
    28     1     3   am
    29    19    20    2
    30    19    18    1
    31    20    21    1
    32     3     4    1
    33     3     5    1
    34    18    17    2
    35     5     6    2
    36     5    10    1
    37    21    16    2
    38     6     7    1
    39    17    16    1
    40    10     9    2
    41    16    14    1
    42     7     8    2
    43     9     8    1
    44     8    11    1
    45    14    15    1
    46    14    11    1
    47    11    12    2
    48    11    13    2
