@<TRIPOS>MOLECULE
52994_out_ligand_01.pdbqt
 32 34 0 0 0
SMALL
GASTEIGER

@<TRIPOS>ATOM
      1  C         21.0700  -21.8380  -10.6450 C.2     1  UNL1        0.0330
      2  C         20.6620  -20.9510  -11.6440 C.2     1  UNL1        0.0170
      3  C         19.3030  -20.7120  -11.8640 C.2     1  UNL1        0.0090
      4  C         18.3170  -21.3370  -11.0800 C.2     1  UNL1       -0.0390
      5  C         16.8780  -21.0300  -11.3800 C.3     1  UNL1        0.0500
      6  C         18.7380  -22.2210  -10.0670 C.2     1  UNL1        0.0860
      7  C         20.1070  -22.4710   -9.8570 C.2     1  UNL1        0.0420
      8  S         17.5910  -23.0960   -9.0050 S.O2    1  UNL1        0.2630
      9  O         16.4950  -23.5920   -9.8090 O.2     1  UNL1       -0.2000
     10  O         18.3640  -24.0080   -8.1860 O.2     1  UNL1       -0.2000
     11  N         16.9570  -21.8710   -8.0320 N.pl3   1  UNL1       -0.2800
     12  H         17.3040  -20.9470   -8.2710 H       1  UNL1        0.1790
     13  C         16.6130  -22.1580   -6.6780 C.2     1  UNL1        0.0490
     14  C         15.3460  -22.6900   -6.4230 C.2     1  UNL1        0.0310
     15  C         14.9810  -23.0590   -5.1330 C.2     1  UNL1        0.0030
     16  C         15.8870  -22.9080   -4.0900 C.2     1  UNL1        0.0070
     17  C         17.1660  -22.3770   -4.3220 C.2     1  UNL1       -0.0540
     18  C         18.1090  -22.2420   -3.1530 C.3     1  UNL1        0.0490
     19  C         17.5350  -21.9700   -5.6280 C.2     1  UNL1       -0.0290
     20  C         18.9110  -21.4020   -5.8600 C.3     1  UNL1        0.0510
     21  C         22.5300  -22.0510  -10.4390 C.2     1  UNL1        0.2510
     22  N         23.1950  -22.7310  -11.4360 N.am    1  UNL1       -0.3530
     23  H         22.7450  -22.8560  -12.3310 H       1  UNL1        0.1630
     24  O         23.0750  -21.6070   -9.4340 O.2     1  UNL1       -0.2680
     25  C         24.6340  -22.8760  -11.4180 C.3     1  UNL1        0.1610
     26  C         25.2960  -21.7170  -12.1170 C.2     1  UNL1       -0.0410
     27  C         26.1390  -20.8530  -11.4070 C.2     1  UNL1        0.0090
     28  C         26.7360  -19.7620  -12.0420 C.2     1  UNL1        0.0070
     29  C         26.5050  -19.5180  -13.4010 C.2     1  UNL1       -0.0620
     30  C         27.1190  -18.3280  -14.0750 C.3     1  UNL1        0.0480
     31  C         25.6440  -20.3660  -14.1060 C.2     1  UNL1        0.0070
     32  C         25.0450  -21.4580  -13.4720 C.2     1  UNL1        0.0090
@<TRIPOS>BOND
     1    31    32    1
     2    31    29    2
     3    30    29    1
     4    32    26    2
     5    29    28    1
     6    23    22    1
     7    26    25    1
     8    26    27    1
     9    28    27    2
    10     3     2    1
    11     3     4    2
    12     2     1    2
    13    22    25    1
    14    22    21   am
    15     5     4    1
    16     4     6    1
    17     1    21    1
    18     1     7    1
    19    21    24    2
    20     6     7    2
    21     6     8    1
    22     9     8    2
    23     8    10    2
    24     8    11    1
    25    12    11    1
    26    11    13    1
    27    13    14    2
    28    13    19    1
    29    14    15    1
    30    20    19    1
    31    19    17    2
    32    15    16    2
    33    17    16    1
    34    17    18    1
