@<TRIPOS>MOLECULE
53010_out_ligand_01.pdbqt
 44 47 0 0 0
SMALL
GASTEIGER

@<TRIPOS>ATOM
      1  C         22.2490  -22.2590  -10.6050 C.2     1  UNL1        0.2560
      2  O         21.5240  -21.3100  -10.8770 O.2     1  UNL1       -0.2670
      3  N         22.0450  -23.2230   -9.6340 N.am    1  UNL1       -0.3230
      4  H         22.6700  -24.0200   -9.6410 H       1  UNL1        0.1690
      5  C         20.9950  -23.2750   -8.6940 C.2     1  UNL1        0.0350
      6  C         20.8830  -22.1990   -7.8000 C.2     1  UNL1        0.0310
      7  C         19.8730  -22.1740   -6.8330 C.2     1  UNL1        0.0270
      8  C         18.9560  -23.2230   -6.7750 C.2     1  UNL1        0.0750
      9  C         19.0510  -24.2990   -7.6590 C.2     1  UNL1        0.0270
     10  C         20.0690  -24.3210   -8.6180 C.2     1  UNL1        0.0310
     11  S         17.6840  -23.2280   -5.5350 S.O2    1  UNL1        0.2450
     12  O         18.1540  -22.4550   -4.4030 O.2     1  UNL1       -0.2060
     13  O         17.2120  -24.5880   -5.3900 O.2     1  UNL1       -0.2060
     14  N         16.4970  -22.2760   -6.3000 N.pl3   1  UNL1       -0.1810
     15  H         15.6150  -22.4320   -5.8070 H       1  UNL1        0.1460
     16  C         16.3210  -22.5070   -7.7030 C.2     1  UNL1        0.0230
     17  C         15.6180  -23.6490   -8.0830 C.2     1  UNL1        0.0240
     18  C         15.4890  -23.9740   -9.4330 C.2     1  UNL1        0.0030
     19  C         16.0820  -23.1650  -10.4060 C.2     1  UNL1        0.0160
     20  C         16.8130  -22.0240  -10.0350 C.2     1  UNL1        0.0490
     21  C         16.9440  -21.7130   -8.6710 C.2     1  UNL1        0.0400
     22  C         17.4970  -21.1700  -11.0730 C.3     1  UNL1        0.4170
     23  F         16.8700  -19.9800  -11.2800 F       1  UNL1       -0.1660
     24  F         17.5810  -21.7660  -12.2950 F       1  UNL1       -0.1660
     25  F         18.7740  -20.8660  -10.7190 F       1  UNL1       -0.1660
     26  C         23.4830  -22.4490  -11.4120 C.2     1  UNL1        0.0330
     27  C         23.5140  -22.1230  -12.7700 C.2     1  UNL1        0.0420
     28  C         24.6850  -22.3360  -13.5200 C.2     1  UNL1        0.0810
     29  C         25.8400  -22.8580  -12.9080 C.2     1  UNL1       -0.0390
     30  C         25.7760  -23.2020  -11.5450 C.2     1  UNL1        0.0090
     31  C         27.1200  -23.1470  -13.6380 C.3     1  UNL1        0.0500
     32  C         24.6100  -23.0040  -10.8040 C.2     1  UNL1        0.0170
     33  S         24.6220  -21.9220  -15.2590 S.O2    1  UNL1        0.2460
     34  O         23.5880  -20.9280  -15.4360 O.2     1  UNL1       -0.2060
     35  O         24.5940  -23.1760  -15.9890 O.2     1  UNL1       -0.2060
     36  N         26.1630  -21.2510  -15.5310 N.pl3   1  UNL1       -0.1810
     37  H         26.6350  -21.8260  -16.2330 H       1  UNL1        0.1460
     38  C         26.1950  -19.8720  -15.9560 C.2     1  UNL1        0.0280
     39  C         26.1210  -19.5290  -17.3110 C.2     1  UNL1        0.0250
     40  C         26.2520  -18.1980  -17.7140 C.2     1  UNL1        0.0020
     41  C         26.4930  -17.2070  -16.7710 C.2     1  UNL1        0.0010
     42  C         26.6190  -17.5450  -15.4250 C.2     1  UNL1        0.0080
     43  C         26.4980  -18.8810  -15.0050 C.2     1  UNL1       -0.0400
     44  C         26.6360  -19.1960  -13.5430 C.3     1  UNL1        0.0500
@<TRIPOS>BOND
     1    40    39    1
     2    40    41    2
     3    39    38    2
     4    41    42    1
     5    37    36    1
     6    35    33    2
     7    38    36    1
     8    38    43    1
     9    36    33    1
    10    34    33    2
    11    42    43    2
    12    33    28    1
    13    43    44    1
    14    31    29    1
    15    28    29    2
    16    28    27    1
    17    29    30    1
    18    27    26    2
    19    24    22    1
    20    30    32    2
    21    26    32    1
    22    26     1    1
    23    23    22    1
    24    22    25    1
    25    22    20    1
    26     2     1    2
    27     1     3   am
    28    19    20    2
    29    19    18    1
    30    20    21    1
    31     4     3    1
    32     3     5    1
    33    18    17    2
    34     5    10    2
    35     5     6    1
    36    21    16    2
    37    10     9    1
    38    17    16    1
    39     6     7    2
    40    16    14    1
    41     9     8    2
    42     7     8    1
    43     8    11    1
    44    14    15    1
    45    14    11    1
    46    11    13    2
    47    11    12    2
