@<TRIPOS>MOLECULE
53303_out_ligand_01.pdbqt
 37 40 0 0 0
SMALL
GASTEIGER

@<TRIPOS>ATOM
      1  O         19.3940  -20.9290  -12.5010 O.2     1  UNL1       -0.3420
      2  C         18.5600  -21.4680  -11.5580 C.2     1  UNL1        0.0690
      3  C         19.1200  -22.5220  -10.8300 C.2     1  UNL1        0.0380
      4  C         18.4010  -23.1490   -9.8100 C.2     1  UNL1        0.0280
      5  C         17.1050  -22.7180   -9.5280 C.2     1  UNL1        0.0800
      6  C         16.5400  -21.6550  -10.2370 C.2     1  UNL1        0.0280
      7  C         17.2670  -21.0350  -11.2580 C.2     1  UNL1        0.0380
      8  S         16.1900  -23.4860   -8.2080 S.O2    1  UNL1        0.2630
      9  O         15.4930  -22.4410   -7.4870 O.2     1  UNL1       -0.2000
     10  O         15.4720  -24.6160   -8.7570 O.2     1  UNL1       -0.2000
     11  N         17.4030  -24.0330   -7.1680 N.pl3   1  UNL1       -0.2810
     12  H         17.4020  -25.0470   -7.0870 H       1  UNL1        0.1790
     13  C         17.7190  -23.2770   -6.0050 C.2     1  UNL1        0.0430
     14  C         17.3050  -23.7500   -4.7600 C.2     1  UNL1        0.0300
     15  C         17.5570  -22.9980   -3.6120 C.2     1  UNL1        0.0030
     16  C         18.2260  -21.7780   -3.7080 C.2     1  UNL1        0.0070
     17  C         18.6610  -21.3030   -4.9520 C.2     1  UNL1       -0.0600
     18  C         19.3500  -19.9750   -5.0660 C.3     1  UNL1        0.0480
     19  C         18.3950  -22.0600   -6.1020 C.2     1  UNL1        0.0370
     20  C         20.6610  -20.4390  -12.0810 C.3     1  UNL1        0.2780
     21  C         21.8850  -21.0570  -12.7720 C.2     1  UNL1        0.2460
     22  O         22.0970  -20.8560  -13.9640 O.2     1  UNL1       -0.2710
     23  N         22.6530  -21.8250  -11.9210 N.am    1  UNL1       -0.3230
     24  H         22.3700  -21.8290  -10.9430 H       1  UNL1        0.1690
     25  C         23.8530  -22.5090  -12.1970 C.2     1  UNL1        0.0690
     26  C         24.1780  -23.0390  -13.4450 C.2     1  UNL1        0.0320
     27  C         25.3940  -23.7050  -13.6340 C.2     1  UNL1        0.0020
     28  C         26.2940  -23.8500  -12.5780 C.2     1  UNL1        0.0030
     29  C         25.9830  -23.3270  -11.3260 C.2     1  UNL1        0.0390
     30  C         24.7760  -22.6470  -11.1470 C.2     1  UNL1        0.1020
     31  O         24.4650  -22.1460   -9.9020 O.2     1  UNL1       -0.3090
     32  C         23.3120  -22.6070   -9.2970 C.2     1  UNL1        0.0760
     33  C         22.7990  -23.9010   -9.4300 C.2     1  UNL1        0.0370
     34  C         21.6390  -24.2670   -8.7410 C.2     1  UNL1        0.0030
     35  C         20.9950  -23.3450   -7.9170 C.2     1  UNL1        0.0000
     36  C         21.5100  -22.0580   -7.7730 C.2     1  UNL1        0.0030
     37  C         22.6680  -21.6900   -8.4610 C.2     1  UNL1        0.0370
@<TRIPOS>BOND
     1    22    21    2
     2    27    26    1
     3    27    28    2
     4    26    25    2
     5    21    20    1
     6    21    23   am
     7    28    29    1
     8     1    20    1
     9     1     2    1
    10    25    23    1
    11    25    30    1
    12    23    24    1
    13     2     7    2
    14     2     3    1
    15    29    30    2
    16     7     6    1
    17    30    31    1
    18     3     4    2
    19     6     5    2
    20    31    32    1
    21     4     5    1
    22     5     8    1
    23    33    32    2
    24    33    34    1
    25    32    37    1
    26    10     8    2
    27    34    35    2
    28    37    36    2
    29     8     9    2
    30     8    11    1
    31    35    36    1
    32    11    12    1
    33    11    13    1
    34    19    13    2
    35    19    17    1
    36    13    14    1
    37    18    17    1
    38    17    16    2
    39    14    15    2
    40    16    15    1
