@<TRIPOS>MOLECULE
53791_out_ligand_01.pdbqt
 37 40 0 0 0
SMALL
GASTEIGER

@<TRIPOS>ATOM
      1  O         18.6460  -20.5460   -4.6870 O.2     1  UNL1       -0.2710
      2  C         19.0090  -21.4160   -5.4750 C.2     1  UNL1        0.2460
      3  N         18.4280  -22.6590   -5.6450 N.am    1  UNL1       -0.3240
      4  H         18.8760  -23.2630   -6.3370 H       1  UNL1        0.1690
      5  C         20.2610  -21.2180   -6.3400 C.3     1  UNL1        0.2810
      6  O         20.4950  -22.2360   -7.3170 O.3     1  UNL1       -0.3120
      7  C         21.7190  -22.1820   -7.9200 C.2     1  UNL1        0.2650
      8  O         22.5570  -21.3210   -7.7080 O.2     1  UNL1       -0.2650
      9  C         21.8500  -23.3110   -8.9040 C.3     1  UNL1        0.1720
     10  C         23.1000  -23.2310   -9.7550 C.ar    1  UNL1        0.0750
     11  N         24.1820  -23.7530   -9.2570 N.ar    1  UNL1       -0.1750
     12  N         25.3210  -23.7040   -9.9990 N.ar    1  UNL1       -0.2430
     13  C         25.4530  -23.1530  -11.2490 C.ar    1  UNL1        0.2720
     14  H         26.1530  -24.1110   -9.5810 H       1  UNL1        0.1920
     15  O         26.5160  -23.1540  -11.8590 O.2     1  UNL1       -0.2660
     16  C         24.2350  -22.5610  -11.8280 C.ar    1  UNL1        0.0460
     17  C         24.2730  -21.9800  -13.1020 C.2     1  UNL1        0.0180
     18  C         23.0510  -22.5910  -11.0950 C.ar    1  UNL1        0.0060
     19  C         23.1160  -21.4250  -13.6430 C.2     1  UNL1        0.0010
     20  C         21.9280  -21.4490  -12.9150 C.2     1  UNL1        0.0010
     21  C         21.8910  -22.0320  -11.6440 C.2     1  UNL1        0.0140
     22  C         17.2420  -23.1730   -5.0720 C.2     1  UNL1        0.0500
     23  C         17.0480  -23.2430   -3.6880 C.2     1  UNL1        0.0300
     24  C         15.8500  -23.7290   -3.1530 C.2     1  UNL1        0.0020
     25  C         14.8220  -24.1440   -3.9930 C.2     1  UNL1        0.0010
     26  C         14.9930  -24.0900   -5.3740 C.2     1  UNL1        0.0190
     27  C         16.2030  -23.6270   -5.9200 C.2     1  UNL1        0.0590
     28  C         16.3690  -23.5900   -7.4070 C.2     1  UNL1        0.2580
     29  O         15.9270  -24.5280   -8.0640 O.2     1  UNL1       -0.2670
     30  N         16.9670  -22.4480   -7.9070 N.am    1  UNL1       -0.3230
     31  H         17.1240  -21.6870   -7.2590 H       1  UNL1        0.1690
     32  C         17.2940  -22.1720   -9.2520 C.2     1  UNL1        0.0350
     33  C         16.6160  -21.2440  -10.0460 C.2     1  UNL1        0.0290
     34  C         16.9990  -21.0350  -11.3750 C.2     1  UNL1        0.0020
     35  C         18.0580  -21.7550  -11.9230 C.2     1  UNL1        0.0000
     36  C         18.7370  -22.6870  -11.1420 C.2     1  UNL1        0.0020
     37  C         18.3550  -22.8950   -9.8140 C.2     1  UNL1        0.0290
@<TRIPOS>BOND
     1    19    17    1
     2    19    20    2
     3    17    16    2
     4    20    21    1
     5    35    34    2
     6    35    36    1
     7    15    13    2
     8    16    13   ar
     9    16    18   ar
    10    21    18    2
    11    34    33    1
    12    13    12   ar
    13    36    37    2
    14    18    10   ar
    15    33    32    2
    16    12    14    1
    17    12    11   ar
    18    37    32    1
    19    10    11   ar
    20    10     9    1
    21    32    30    1
    22     9     7    1
    23    29    28    2
    24     7     8    2
    25     7     6    1
    26    30    28   am
    27    30    31    1
    28    28    27    1
    29     6     5    1
    30     5     2    1
    31     4     3    1
    32    27    26    1
    33    27    22    2
    34     3     2   am
    35     3    22    1
    36     2     1    2
    37    26    25    2
    38    22    23    1
    39    25    24    1
    40    23    24    2
