@<TRIPOS>MOLECULE
53833_out_ligand_01.pdbqt
 40 43 0 0 0
SMALL
GASTEIGER

@<TRIPOS>ATOM
      1  C         20.3160  -21.5850   -6.6520 C.2     1  UNL1        0.0410
      2  C         19.9720  -20.7370   -5.5870 C.2     1  UNL1        0.0170
      3  C         18.7250  -20.8440   -4.9670 C.2     1  UNL1        0.0030
      4  C         17.8110  -21.8020   -5.4060 C.2     1  UNL1        0.0250
      5  C         18.1630  -22.6620   -6.4510 C.2     1  UNL1        0.0800
      6  C         19.4110  -22.5650   -7.0760 C.2     1  UNL1        0.0420
      7  C         21.6380  -21.3780   -7.3080 C.2     1  UNL1        0.2940
      8  O         22.5490  -20.7510   -6.7950 O.2     1  UNL1       -0.2590
      9  O         21.6510  -21.9250   -8.5500 O.3     1  UNL1       -0.3030
     10  C         22.7620  -22.8080   -8.8020 C.3     1  UNL1        0.2200
     11  C         22.1960  -24.1680   -9.1800 C.3     1  UNL1        0.0500
     12  C         23.6330  -22.2710   -9.9570 C.2     1  UNL1        0.2510
     13  O         24.0780  -21.1250   -9.9400 O.2     1  UNL1       -0.2700
     14  N         23.8660  -23.2340  -10.9300 N.am    1  UNL1       -0.3250
     15  H         23.4510  -24.1440  -10.7560 H       1  UNL1        0.1690
     16  C         24.5600  -23.0910  -12.1470 C.2     1  UNL1        0.0370
     17  C         25.7980  -23.6820  -12.4210 C.2     1  UNL1        0.0320
     18  C         26.4270  -23.4780  -13.6560 C.2     1  UNL1        0.0420
     19  C         25.8220  -22.6780  -14.6170 C.2     1  UNL1        0.1020
     20  C         24.5930  -22.0710  -14.3480 C.2     1  UNL1        0.1040
     21  O         26.4880  -22.5290  -15.8060 O.2     1  UNL1       -0.3460
     22  C         23.9580  -22.2890  -13.1240 C.2     1  UNL1        0.0690
     23  O         23.9440  -21.2540  -15.2370 O.2     1  UNL1       -0.3460
     24  C         24.8070  -20.8580  -16.3140 C.3     1  UNL1        0.2020
     25  C         25.6050  -22.0480  -16.8290 C.3     1  UNL1        0.2020
     26  S         16.9860  -23.8630   -7.0310 S.O2    1  UNL1        0.2630
     27  O         15.6590  -23.3050   -6.8700 O.2     1  UNL1       -0.2000
     28  O         17.3510  -25.1230   -6.4220 O.2     1  UNL1       -0.2000
     29  N         17.3310  -24.0160   -8.6620 N.pl3   1  UNL1       -0.2810
     30  H         17.7620  -24.9090   -8.8900 H       1  UNL1        0.1790
     31  C         17.4520  -22.9260   -9.5680 C.2     1  UNL1        0.0430
     32  C         16.3840  -22.1110   -9.9480 C.2     1  UNL1        0.0300
     33  C         16.5740  -21.0900  -10.8820 C.2     1  UNL1        0.0030
     34  C         17.8280  -20.8870  -11.4600 C.2     1  UNL1        0.0160
     35  C         18.9060  -21.7150  -11.1170 C.2     1  UNL1        0.0500
     36  C         18.7020  -22.7330  -10.1680 C.2     1  UNL1        0.0460
     37  C         20.2760  -21.5030  -11.7240 C.3     1  UNL1        0.4170
     38  F         21.0680  -20.6540  -11.0090 F       1  UNL1       -0.1660
     39  F         20.2170  -20.9840  -12.9860 F       1  UNL1       -0.1660
     40  F         20.9750  -22.6700  -11.8290 F       1  UNL1       -0.1660
@<TRIPOS>BOND
     1    25    24    1
     2    25    21    1
     3    24    23    1
     4    21    19    1
     5    23    20    1
     6    19    20    2
     7    19    18    1
     8    20    22    1
     9    18    17    2
    10    22    16    2
    11    39    37    1
    12    17    16    1
    13    16    14    1
    14    40    37    1
    15    37    35    1
    16    37    38    1
    17    34    35    2
    18    34    33    1
    19    35    36    1
    20    14    15    1
    21    14    12   am
    22    33    32    2
    23    36    31    2
    24    12    13    2
    25    12    10    1
    26    32    31    1
    27    31    29    1
    28    11    10    1
    29    30    29    1
    30    10     9    1
    31    29    26    1
    32     9     7    1
    33     7     8    2
    34     7     1    1
    35     6     1    2
    36     6     5    1
    37    26    27    2
    38    26     5    1
    39    26    28    2
    40     1     2    1
    41     5     4    2
    42     2     3    2
    43     4     3    1
