@<TRIPOS>MOLECULE
53993_out_ligand_01.pdbqt
 36 39 0 0 0
SMALL
GASTEIGER

@<TRIPOS>ATOM
      1  C         25.1020  -22.9260  -13.9300 C.2     1  UNL1        0.0400
      2  C         25.6260  -22.1720  -14.9160 C.2     1  UNL1        0.1130
      3  C         26.3450  -22.7660  -15.9910 C.1     1  UNL1        0.1050
      4  N         26.8910  -23.2950  -16.8690 N.1     1  UNL1       -0.1910
      5  C         25.5020  -20.6890  -14.9150 C.2     1  UNL1        0.2660
      6  O         24.5770  -20.1540  -14.3140 O.2     1  UNL1       -0.2670
      7  N         26.5070  -20.0750  -15.6350 N.am    1  UNL1       -0.3200
      8  H         27.2060  -20.6600  -16.0880 H       1  UNL1        0.1690
      9  C         26.6520  -18.6980  -15.9160 C.2     1  UNL1        0.0730
     10  C         27.0190  -17.7330  -14.9780 C.2     1  UNL1        0.0330
     11  C         27.1200  -16.3890  -15.3600 C.2     1  UNL1        0.0020
     12  C         26.8640  -15.9990  -16.6780 C.2     1  UNL1        0.0030
     13  C         26.5030  -16.9540  -17.6240 C.2     1  UNL1        0.0440
     14  C         26.3980  -18.2880  -17.2340 C.2     1  UNL1        0.1430
     15  F         26.0460  -19.2060  -18.1500 F       1  UNL1       -0.2040
     16  C         24.4160  -22.4090  -12.7380 C.2     1  UNL1       -0.0320
     17  C         23.0130  -22.4390  -12.6700 C.2     1  UNL1        0.0510
     18  C         22.3380  -21.9640  -11.5370 C.2     1  UNL1        0.1020
     19  C         23.0900  -21.5030  -10.4430 C.2     1  UNL1        0.1020
     20  C         24.4850  -21.4490  -10.5230 C.2     1  UNL1        0.0400
     21  C         25.1480  -21.9050  -11.6600 C.2     1  UNL1        0.0140
     22  O         20.9740  -21.9300  -11.4240 O.2     1  UNL1       -0.3490
     23  C         20.3080  -20.7480  -11.8780 C.3     1  UNL1        0.1710
     24  C         18.8390  -20.8610  -11.5160 C.3     1  UNL1        0.0340
     25  O         22.5860  -21.0190   -9.2650 O.2     1  UNL1       -0.3440
     26  C         22.6760  -21.9060   -8.1490 C.3     1  UNL1        0.2140
     27  C         21.3170  -22.5320   -7.9180 C.2     1  UNL1       -0.0330
     28  C         20.9830  -23.7440   -8.5400 C.2     1  UNL1        0.0100
     29  C         19.7240  -24.3170   -8.3530 C.2     1  UNL1        0.0130
     30  C         18.7650  -23.6920   -7.5420 C.2     1  UNL1       -0.0260
     31  C         17.4910  -24.2550   -7.3510 C.2     1  UNL1        0.0120
     32  C         19.0880  -22.4720   -6.9040 C.2     1  UNL1       -0.0250
     33  C         16.5470  -23.6260   -6.5400 C.2     1  UNL1        0.0010
     34  C         16.8660  -22.4280   -5.9030 C.2     1  UNL1        0.0010
     35  C         18.1270  -21.8550   -6.0850 C.2     1  UNL1        0.0120
     36  C         20.3600  -21.9040   -7.1040 C.2     1  UNL1        0.0210
@<TRIPOS>BOND
     1    15    14    1
     2    13    14    1
     3    13    12    2
     4    14     9    2
     5     4     3    3
     6    12    11    1
     7     8     7    1
     8     3     2    1
     9     9     7    1
    10     9    10    1
    11     7     5   am
    12    11    10    2
    13     2     5    1
    14     2     1    2
    15     5     6    2
    16     1    16    1
    17    16    17    2
    18    16    21    1
    19    17    18    1
    20    23    24    1
    21    23    22    1
    22    21    20    2
    23    18    22    1
    24    18    19    2
    25    20    19    1
    26    19    25    1
    27    25    26    1
    28    28    29    1
    29    28    27    2
    30    29    30    2
    31    26    27    1
    32    27    36    1
    33    30    31    1
    34    30    32    1
    35    31    33    2
    36    36    32    2
    37    32    35    1
    38    33    34    1
    39    35    34    2
