@<TRIPOS>MOLECULE
54784_out_ligand_01.pdbqt
 36 39 0 0 0
SMALL
GASTEIGER

@<TRIPOS>ATOM
      1  C         23.3550  -22.5350   -9.0360 C.2     1  UNL1        0.2350
      2  O         23.9920  -23.5770   -8.8830 O.2     1  UNL1       -0.2720
      3  N         23.4790  -21.6640  -10.1100 N.am    1  UNL1       -0.3250
      4  H         22.7720  -20.9280  -10.1910 H       1  UNL1        0.1690
      5  C         22.2660  -22.0760   -8.0410 C.3     1  UNL1        0.1980
      6  N         20.9490  -22.6950   -8.2460 N.pl3   1  UNL1       -0.2740
      7  C         20.8900  -24.1110   -8.6600 C.3     1  UNL1        0.1010
      8  C         19.4810  -24.6300   -8.3190 C.3     1  UNL1        0.0550
      9  C         19.0770  -23.6590   -7.2600 C.2     1  UNL1       -0.0340
     10  C         19.9560  -22.5680   -7.2640 C.2     1  UNL1        0.0170
     11  C         17.9980  -23.7370   -6.3940 C.2     1  UNL1        0.0330
     12  C         19.7560  -21.5160   -6.3810 C.2     1  UNL1        0.0260
     13  C         18.6800  -21.5740   -5.4900 C.2     1  UNL1        0.0260
     14  C         17.8060  -22.6750   -5.5090 C.2     1  UNL1        0.0740
     15  S         16.4390  -22.7070   -4.3800 S.O2    1  UNL1        0.2390
     16  O         15.3240  -22.0030   -4.9750 O.2     1  UNL1       -0.2060
     17  O         16.3170  -24.0370   -3.8410 O.2     1  UNL1       -0.2060
     18  N         17.0040  -21.7030   -3.1530 N.3     1  UNL1       -0.2250
     19  H         17.9350  -21.9560   -2.8240 H       1  UNL1        0.1360
     20  H         16.9690  -20.7350   -3.4860 H       1  UNL1        0.1360
     21  C         24.3400  -21.7600  -11.2320 C.2     1  UNL1        0.0500
     22  C         25.7260  -21.9130  -11.0960 C.2     1  UNL1        0.0300
     23  C         26.5470  -22.0510  -12.2200 C.2     1  UNL1        0.0020
     24  C         25.9960  -22.0490  -13.5000 C.2     1  UNL1        0.0010
     25  C         24.6210  -21.8800  -13.6610 C.2     1  UNL1        0.0190
     26  C         23.7890  -21.7000  -12.5400 C.2     1  UNL1        0.0590
     27  C         22.3150  -21.4820  -12.7380 C.2     1  UNL1        0.2580
     28  O         21.9300  -21.0620  -13.8290 O.2     1  UNL1       -0.2670
     29  N         21.5020  -21.8420  -11.6710 N.am    1  UNL1       -0.3230
     30  H         21.9320  -22.3540  -10.9120 H       1  UNL1        0.1690
     31  C         20.1080  -21.6550  -11.5560 C.2     1  UNL1        0.0350
     32  C         19.4650  -20.4290  -11.7310 C.2     1  UNL1        0.0290
     33  C         18.0800  -20.3240  -11.5780 C.2     1  UNL1        0.0020
     34  C         17.3260  -21.4450  -11.2450 C.2     1  UNL1        0.0000
     35  C         17.9550  -22.6740  -11.0660 C.2     1  UNL1        0.0020
     36  C         19.3390  -22.7790  -11.2220 C.2     1  UNL1        0.0290
@<TRIPOS>BOND
     1    28    27    2
     2    25    24    2
     3    25    26    1
     4    24    23    1
     5    27    26    1
     6    27    29   am
     7    26    21    2
     8    23    22    2
     9    32    33    1
    10    32    31    2
    11    29    31    1
    12    29    30    1
    13    33    34    2
    14    31    36    1
    15    34    35    1
    16    21    22    1
    17    21     3    1
    18    36    35    2
    19     4     3    1
    20     3     1   am
    21     1     2    2
    22     1     5    1
    23     7     8    1
    24     7     6    1
    25     8     9    1
    26     6     5    1
    27     6    10    1
    28    10     9    2
    29    10    12    1
    30     9    11    1
    31    11    14    2
    32    12    13    2
    33    14    13    1
    34    14    15    1
    35    16    15    2
    36    15    17    2
    37    15    18    1
    38    20    18    1
    39    18    19    1
