@<TRIPOS>MOLECULE
55513_out_ligand_01.pdbqt
 33 35 0 0 0
SMALL
GASTEIGER

@<TRIPOS>ATOM
      1  C         18.8510  -21.8150  -10.9910 C.2     1  UNL1        0.0330
      2  C         19.2510  -21.0930  -12.1190 C.2     1  UNL1        0.0170
      3  C         20.5990  -21.0480  -12.4800 C.2     1  UNL1        0.0090
      4  C         21.5740  -21.7370  -11.7370 C.2     1  UNL1       -0.0390
      5  C         23.0090  -21.6320  -12.1740 C.3     1  UNL1        0.0500
      6  C         21.1570  -22.4730  -10.6100 C.2     1  UNL1        0.0810
      7  C         19.8030  -22.5120  -10.2410 C.2     1  UNL1        0.0420
      8  C         17.4230  -21.9050  -10.5840 C.2     1  UNL1        0.2520
      9  N         17.0490  -23.0600   -9.9370 N.am    1  UNL1       -0.3490
     10  H         17.7250  -23.7890   -9.7650 H       1  UNL1        0.1630
     11  O         16.6600  -20.9830  -10.8420 O.2     1  UNL1       -0.2680
     12  C         15.7410  -23.2180   -9.3230 C.3     1  UNL1        0.1140
     13  C         15.0170  -24.4190   -9.9310 C.3     1  UNL1        0.0370
     14  C         15.9220  -23.2840   -7.8160 C.2     1  UNL1       -0.0360
     15  C         15.3030  -22.3840   -6.9350 C.2     1  UNL1        0.0100
     16  C         15.4620  -22.5140   -5.5530 C.2     1  UNL1        0.0070
     17  C         16.2330  -23.5530   -5.0180 C.2     1  UNL1       -0.0590
     18  C         16.8480  -24.4560   -5.8890 C.2     1  UNL1        0.0070
     19  C         16.6870  -24.3270   -7.2720 C.2     1  UNL1        0.0100
     20  C         16.4120  -23.6860   -3.5270 C.3     1  UNL1        0.0340
     21  C         17.8590  -23.9720   -3.1530 C.3     1  UNL1        0.0100
     22  S         22.3180  -23.3810   -9.5930 S.O2    1  UNL1        0.2460
     23  O         23.4940  -23.6540  -10.3940 O.2     1  UNL1       -0.2060
     24  O         21.5910  -24.4400   -8.9280 O.2     1  UNL1       -0.2060
     25  N         22.7690  -22.1670   -8.4790 N.pl3   1  UNL1       -0.1810
     26  H         23.5620  -22.5300   -7.9480 H       1  UNL1        0.1460
     27  C         21.7090  -21.7750   -7.5950 C.2     1  UNL1        0.0220
     28  C         21.8750  -20.6840   -6.7420 C.2     1  UNL1        0.0250
     29  C         20.8550  -20.3350   -5.8540 C.2     1  UNL1        0.0080
     30  C         19.6660  -21.0750   -5.8110 C.2     1  UNL1       -0.0620
     31  C         18.5890  -20.7260   -4.8260 C.3     1  UNL1        0.0480
     32  C         19.5260  -22.1870   -6.6490 C.2     1  UNL1        0.0080
     33  C         20.5450  -22.5370   -7.5380 C.2     1  UNL1        0.0250
@<TRIPOS>BOND
     1     3     2    1
     2     3     4    2
     3     5     4    1
     4     2     1    2
     5     4     6    1
     6     1     8    1
     7     1     7    1
     8    11     8    2
     9     6     7    2
    10     6    22    1
    11     8     9   am
    12    23    22    2
    13     9    10    1
    14     9    12    1
    15    13    12    1
    16    22    24    2
    17    22    25    1
    18    12    14    1
    19    25    26    1
    20    25    27    1
    21    14    19    2
    22    14    15    1
    23    27    33    2
    24    27    28    1
    25    33    32    1
    26    19    18    1
    27    15    16    2
    28    28    29    2
    29    32    30    2
    30    18    17    2
    31    29    30    1
    32    30    31    1
    33    16    17    1
    34    17    20    1
    35    20    21    1
