@<TRIPOS>MOLECULE
55765_out_ligand_01.pdbqt
 33 36 0 0 0
SMALL
GASTEIGER

@<TRIPOS>ATOM
      1  C         23.3310  -22.7670  -10.4300 C.2     1  UNL1        0.1480
      2  C         22.9380  -23.2730   -9.1740 C.2     1  UNL1        0.0910
      3  C         21.6010  -22.9850   -9.0590 C.2     1  UNL1        0.1540
      4  N         20.7110  -23.2390   -8.0570 N.2     1  UNL1       -0.2290
      5  C         19.4880  -22.8240   -8.2300 C.2     1  UNL1        0.0710
      6  C         19.0080  -22.1250   -9.4660 C.2     1  UNL1        0.0690
      7  C         19.9270  -21.9020  -10.4260 C.2     1  UNL1        0.1460
      8  N         21.2370  -22.3240  -10.2340 N.pl3   1  UNL1       -0.2100
      9  N         22.2970  -22.1920  -11.0740 N.2     1  UNL1       -0.1600
     10  C         24.6760  -22.8310  -11.0260 C.2     1  UNL1        0.2720
     11  N         24.7400  -22.2640  -12.2760 N.am    1  UNL1       -0.3510
     12  H         23.8500  -21.9790  -12.6750 H       1  UNL1        0.1630
     13  O         25.6300  -23.3490  -10.4540 O.2     1  UNL1       -0.2660
     14  C         25.9010  -22.3650  -13.1190 C.3     1  UNL1        0.1640
     15  C         25.5020  -22.9970  -14.4010 C.2     1  UNL1       -0.0040
     16  C         25.0070  -22.3900  -15.5370 C.2     1  UNL1        0.1220
     17  N         24.7870  -23.3860  -16.4430 N.pl3   1  UNL1       -0.2810
     18  N         25.1010  -24.6090  -15.9770 N.2     1  UNL1       -0.1850
     19  C         25.5350  -24.3700  -14.7370 C.2     1  UNL1        0.1490
     20  C         24.2780  -23.2340  -17.7920 C.3     1  UNL1        0.1460
     21  C         22.9070  -23.8660  -17.9610 C.3     1  UNL1        0.0280
     22  C         19.6290  -21.2310  -11.7110 C.3     1  UNL1        0.4340
     23  F         20.3200  -21.7570  -12.7520 F       1  UNL1       -0.1650
     24  F         19.8820  -19.8980  -11.6790 F       1  UNL1       -0.1650
     25  F         18.3110  -21.3500  -12.0400 F       1  UNL1       -0.1650
     26  C         18.4770  -23.0710   -7.1620 C.2     1  UNL1       -0.0070
     27  C         17.4700  -24.0090   -7.4010 C.2     1  UNL1        0.0140
     28  C         16.5050  -24.2660   -6.4280 C.2     1  UNL1        0.0080
     29  C         16.5330  -23.5960   -5.1950 C.2     1  UNL1       -0.0560
     30  C         15.4770  -23.9040   -4.1680 C.3     1  UNL1        0.0490
     31  C         17.5580  -22.6630   -4.9390 C.2     1  UNL1       -0.0550
     32  C         17.6440  -21.9400   -3.6220 C.3     1  UNL1        0.0490
     33  C         18.5260  -22.4120   -5.9280 C.2     1  UNL1        0.0210
@<TRIPOS>BOND
     1    21    20    1
     2    20    17    1
     3    17    18    1
     4    17    16    1
     5    18    19    2
     6    16    15    2
     7    19    15    1
     8    15    14    1
     9    14    11    1
    10    23    22    1
    11    12    11    1
    12    11    10   am
    13    25    22    1
    14    22    24    1
    15    22     7    1
    16     9     1    2
    17     9     8    1
    18    10    13    2
    19    10     1    1
    20     1     2    1
    21     7     8    1
    22     7     6    2
    23     8     3    1
    24     6     5    1
    25     2     3    2
    26     3     4    1
    27     5     4    2
    28     5    26    1
    29    27    26    2
    30    27    28    1
    31    26    33    1
    32    28    29    2
    33    33    31    2
    34    29    31    1
    35    29    30    1
    36    31    32    1
