@<TRIPOS>MOLECULE
56180_out_ligand_01.pdbqt
 40 44 0 0 0
SMALL
GASTEIGER

@<TRIPOS>ATOM
      1  C         19.7230  -21.6660  -11.4040 C.2     1  UNL1        0.0350
      2  C         20.3000  -21.2340  -12.6100 C.2     1  UNL1        0.0460
      3  C         21.6810  -21.3350  -12.8480 C.2     1  UNL1        0.0300
      4  C         22.4830  -21.8330  -11.8170 C.2     1  UNL1        0.0540
      5  C         21.9200  -22.2140  -10.5940 C.2     1  UNL1        0.0830
      6  C         20.5420  -22.1500  -10.3830 C.2     1  UNL1        0.0420
      7  N         22.1930  -20.8040  -14.0290 N.pl3   1  UNL1       -0.3860
      8  H         21.7530  -21.1740  -14.8680 H       1  UNL1        0.1600
      9  C         23.6210  -20.5700  -14.1880 C.3     1  UNL1        0.1580
     10  C         24.2970  -21.8600  -14.5890 C.2     1  UNL1       -0.0400
     11  C         24.0280  -22.4300  -15.8560 C.2     1  UNL1        0.0110
     12  C         24.6280  -23.6300  -16.2450 C.2     1  UNL1        0.0380
     13  C         25.4870  -24.2370  -15.3540 C.2     1  UNL1        0.0750
     14  C         25.7600  -23.6980  -14.1060 C.2     1  UNL1       -0.0220
     15  O         26.1350  -25.4210  -15.5940 O.2     1  UNL1       -0.3500
     16  C         25.1680  -22.5160  -13.6980 C.2     1  UNL1        0.0180
     17  C         26.6630  -24.6100  -13.3680 C.3     1  UNL1        0.0680
     18  C         27.1210  -25.4860  -14.5360 C.3     1  UNL1        0.1800
     19  C         18.2450  -21.5560  -11.2420 C.2     1  UNL1        0.2520
     20  O         17.5870  -20.9000  -12.0420 O.2     1  UNL1       -0.2680
     21  N         17.6950  -22.2440  -10.1820 N.am    1  UNL1       -0.3530
     22  H         18.2560  -22.9340   -9.6930 H       1  UNL1        0.1630
     23  C         16.2660  -22.2900   -9.9650 C.3     1  UNL1        0.1620
     24  C         15.9410  -22.8060   -8.5960 C.2     1  UNL1       -0.0230
     25  C         15.5540  -21.9510   -7.5640 C.2     1  UNL1        0.0120
     26  C         15.2630  -22.4710   -6.3070 C.2     1  UNL1        0.0200
     27  C         15.3820  -23.8370   -6.1180 C.2     1  UNL1        0.1160
     28  N         15.7600  -24.6960   -7.0880 N.2     1  UNL1       -0.2730
     29  C         16.0250  -24.1650   -8.3030 C.2     1  UNL1        0.1240
     30  S         22.9800  -22.8250   -9.3020 S.O2    1  UNL1        0.2630
     31  O         24.3490  -22.6620   -9.7360 O.2     1  UNL1       -0.2000
     32  O         22.4680  -24.1240   -8.9150 O.2     1  UNL1       -0.2000
     33  N         22.6540  -21.7910   -8.0080 N.pl3   1  UNL1       -0.2810
     34  H         23.4610  -21.6650   -7.4010 H       1  UNL1        0.1790
     35  C         21.3710  -21.8300   -7.3940 C.2     1  UNL1        0.0420
     36  C         20.4790  -22.8610   -7.6820 C.2     1  UNL1        0.0300
     37  C         19.2460  -22.9150   -7.0340 C.2     1  UNL1        0.0020
     38  C         18.9070  -21.9380   -6.0950 C.2     1  UNL1        0.0000
     39  C         19.8000  -20.9070   -5.8080 C.2     1  UNL1        0.0020
     40  C         21.0340  -20.8510   -6.4570 C.2     1  UNL1        0.0300
@<TRIPOS>BOND
     1    12    11    1
     2    12    13    2
     3    11    10    2
     4    15    13    1
     5    15    18    1
     6    13    14    1
     7     8     7    1
     8    10     9    1
     9    10    16    1
    10    18    17    1
    11     9     7    1
    12    14    16    2
    13    14    17    1
    14     7     3    1
    15     3     2    1
    16     3     4    2
    17     2     1    2
    18    20    19    2
    19     4     5    1
    20     1    19    1
    21     1     6    1
    22    19    21   am
    23     5     6    2
    24     5    30    1
    25    21    23    1
    26    21    22    1
    27    23    24    1
    28    31    30    2
    29    30    32    2
    30    30    33    1
    31    24    29    2
    32    24    25    1
    33    29    28    1
    34    33    34    1
    35    33    35    1
    36    36    35    2
    37    36    37    1
    38    25    26    2
    39    35    40    1
    40    28    27    2
    41    37    38    2
    42    40    39    2
    43    26    27    1
    44    38    39    1
