@<TRIPOS>MOLECULE
56211_out_ligand_01.pdbqt
 33 37 0 0 0
SMALL
GASTEIGER

@<TRIPOS>ATOM
      1  C         17.5100  -22.1550  -10.3350 C.ar    1  UNL1        0.1480
      2  N         17.0670  -21.1480  -11.0590 N.ar    1  UNL1       -0.1330
      3  N         18.1070  -20.6700  -11.8090 N.ar    1  UNL1       -0.1350
      4  C         19.1800  -21.3880  -11.5410 C.ar    1  UNL1        0.1320
      5  N         18.8350  -22.3620  -10.6340 N.ar    1  UNL1       -0.3170
      6  C         19.6700  -23.4610  -10.2110 C.3     1  UNL1        0.1620
      7  C         20.9740  -23.0540   -9.5120 C.3     1  UNL1        0.2930
      8  N         21.7620  -21.9710  -10.1290 N.3     1  UNL1        0.0940
      9  C         21.7010  -21.9790  -11.5970 C.3     1  UNL1        0.2800
     10  C         20.5300  -21.1420  -12.1280 C.3     1  UNL1        0.1110
     11  C         16.6980  -22.9590   -9.3880 C.3     1  UNL1        0.2030
     12  N         17.0360  -22.5450   -8.0420 N.am    1  UNL1       -0.3500
     13  C         17.2510  -23.4450   -7.0280 C.2     1  UNL1        0.2520
     14  O         17.1590  -24.6600   -7.1710 O.2     1  UNL1       -0.2680
     15  H         17.1940  -21.5540   -7.9080 H       1  UNL1        0.1630
     16  C         17.6170  -22.8780   -5.7050 C.2     1  UNL1        0.0350
     17  C         17.4460  -23.5990   -4.5140 C.2     1  UNL1        0.0170
     18  C         17.8250  -23.0320   -3.2950 C.2     1  UNL1        0.0040
     19  C         18.3770  -21.7510   -3.2640 C.2     1  UNL1        0.0420
     20  C         18.5540  -21.0490   -4.4510 C.2     1  UNL1        0.1170
     21  F         19.0890  -19.8190   -4.4170 F       1  UNL1       -0.2060
     22  C         18.1850  -21.5990   -5.6710 C.2     1  UNL1        0.0590
     23  C         23.1390  -21.9720   -9.6120 C.3     1  UNL1        0.3110
     24  C         24.1760  -22.0880  -10.7090 C.2     1  UNL1       -0.0270
     25  C         25.1450  -21.0890  -10.8920 C.2     1  UNL1        0.0120
     26  C         26.0840  -21.1910  -11.9240 C.2     1  UNL1        0.0400
     27  C         26.0570  -22.2860  -12.7860 C.2     1  UNL1        0.1020
     28  C         25.1090  -23.2970  -12.6000 C.2     1  UNL1        0.1020
     29  O         26.9940  -22.3080  -13.7880 O.2     1  UNL1       -0.3460
     30  C         24.1650  -23.1900  -11.5800 C.2     1  UNL1        0.0480
     31  O         25.0390  -24.4190  -13.3890 O.2     1  UNL1       -0.3460
     32  C         26.2430  -24.5940  -14.1460 C.3     1  UNL1        0.2020
     33  C         26.6660  -23.2820  -14.7880 C.3     1  UNL1        0.2020
@<TRIPOS>BOND
     1    33    32    1
     2    33    29    1
     3    32    31    1
     4    29    27    1
     5    31    28    1
     6    27    28    2
     7    27    26    1
     8    28    30    1
     9    10     9    1
    10    10     4    1
    11    26    25    2
    12     3     4   ar
    13     3     2   ar
    14     9     8    1
    15    30    24    2
    16     4     5   ar
    17     2     1   ar
    18    25    24    1
    19    24    23    1
    20     5     1   ar
    21     5     6    1
    22     1    11    1
    23     6     7    1
    24     8    23    1
    25     8     7    1
    26    11    12    1
    27    12    15    1
    28    12    13   am
    29    14    13    2
    30    13    16    1
    31    16    22    2
    32    16    17    1
    33    22    20    1
    34    17    18    2
    35    20    21    1
    36    20    19    2
    37    18    19    1
