@<TRIPOS>MOLECULE
56349_out_ligand_01.pdbqt
 35 39 0 0 0
SMALL
GASTEIGER

@<TRIPOS>ATOM
      1  C         21.0310  -21.5800  -10.6790 C.2     1  UNL1        0.0760
      2  C         20.1250  -20.8060  -11.4330 C.2     1  UNL1        0.1590
      3  N         18.8510  -21.0040  -11.1070 N.2     1  UNL1       -0.1640
      4  N         18.8890  -22.0080  -10.1760 N.pl3   1  UNL1       -0.0630
      5  C         20.2020  -22.2950   -9.8230 C.2     1  UNL1        0.0760
      6  C         17.6750  -22.6330   -9.7090 C.cat   1  UNL1        0.7500
      7  N         16.9880  -23.4120  -10.5760 N.2     1  UNL1       -0.0730
      8  C         15.8690  -23.9990  -10.1190 C.2     1  UNL1        0.1390
      9  C         15.4110  -23.8500   -8.8350 C.2     1  UNL1        0.0530
     10  C         16.1720  -23.0490   -8.0100 C.2     1  UNL1        0.0880
     11  N         17.2940  -22.4290   -8.4290 N.2     1  UNL1       -0.0600
     12  C         15.8060  -22.7950   -6.6120 C.2     1  UNL1        0.0080
     13  C         14.6540  -22.0310   -6.3390 C.2     1  UNL1        0.0140
     14  C         14.2530  -21.7680   -5.0290 C.2     1  UNL1        0.0010
     15  C         14.9950  -22.2680   -3.9650 C.2     1  UNL1        0.0010
     16  C         16.1480  -23.0120   -4.2120 C.2     1  UNL1        0.0170
     17  C         16.5740  -23.2760   -5.5290 C.2     1  UNL1        0.0600
     18  C         17.8420  -24.0650   -5.7550 C.3     1  UNL1        0.4180
     19  F         18.8830  -23.2980   -6.1890 F       1  UNL1       -0.1660
     20  F         18.2870  -24.6660   -4.6150 F       1  UNL1       -0.1660
     21  F         17.7130  -25.0540   -6.6810 F       1  UNL1       -0.1660
     22  C         20.6830  -23.2730   -8.7080 C.3     1  UNL1        0.0390
     23  C         21.7720  -24.2750   -9.0020 C.3     1  UNL1        0.0110
     24  C         20.3630  -24.7440   -8.8380 C.3     1  UNL1        0.0110
     25  C         22.4840  -21.6390  -10.7640 C.2     1  UNL1        0.2550
     26  O         23.2270  -21.1620   -9.9120 O.2     1  UNL1       -0.2680
     27  N         22.9790  -22.2640  -11.8900 N.am    1  UNL1       -0.3540
     28  H         22.3530  -22.5680  -12.6220 H       1  UNL1        0.1620
     29  C         24.4040  -22.3230  -12.1610 C.3     1  UNL1        0.1570
     30  C         24.9070  -21.2010  -13.0970 C.3     1  UNL1        0.1630
     31  C         23.8160  -20.7310  -14.0770 C.3     1  UNL1        0.2010
     32  O         23.4340  -21.7620  -14.9950 O.3     1  UNL1       -0.3860
     33  C         24.5590  -22.4970  -15.5060 C.3     1  UNL1        0.1930
     34  C         25.9050  -21.8450  -15.1910 C.3     1  UNL1        0.1940
     35  O         26.0890  -21.6750  -13.7810 O.3     1  UNL1       -0.3800
@<TRIPOS>BOND
     1    33    34    1
     2    33    32    1
     3    34    35    1
     4    32    31    1
     5    31    30    1
     6    35    30    1
     7    30    29    1
     8    28    27    1
     9    29    27    1
    10    27    25   am
    11     2     3    2
    12     2     1    1
    13     3     4    1
    14    25     1    1
    15    25    26    2
    16     1     5    2
    17     7     8    1
    18     7     6    2
    19     4     5    1
    20     4     6    1
    21     8     9    2
    22     5    22    1
    23     6    11    1
    24    23    24    1
    25    23    22    1
    26    24    22    1
    27     9    10    1
    28    11    10    2
    29    10    12    1
    30    21    18    1
    31    12    13    2
    32    12    17    1
    33    13    14    1
    34    19    18    1
    35    18    17    1
    36    18    20    1
    37    17    16    2
    38    14    15    2
    39    16    15    1
