@<TRIPOS>MOLECULE
5663_out_ligand_01.pdbqt
 31 33 0 0 0
SMALL
GASTEIGER

@<TRIPOS>ATOM
      1  N         20.1810  -22.6310  -10.1990 N.am    1  UNL1       -0.3220
      2  C         20.4470  -21.5210  -10.9810 C.2     1  UNL1        0.2730
      3  O         19.7040  -20.5790  -11.2160 O.2     1  UNL1       -0.2660
      4  H         20.8850  -23.3590  -10.2050 H       1  UNL1        0.1690
      5  C         19.0130  -22.8940   -9.4560 C.2     1  UNL1        0.0360
      6  C         17.8010  -22.9090  -10.1580 C.2     1  UNL1        0.0300
      7  C         16.5920  -23.1690   -9.5040 C.2     1  UNL1        0.0100
      8  C         16.5680  -23.4290   -8.1290 C.2     1  UNL1       -0.0460
      9  C         15.2640  -23.7230   -7.4470 C.3     1  UNL1        0.0490
     10  C         17.7870  -23.3980   -7.4300 C.2     1  UNL1        0.0400
     11  C         19.0010  -23.1470   -8.0860 C.2     1  UNL1        0.0470
     12  C         17.8420  -23.6400   -5.9730 C.2     1  UNL1        0.2520
     13  O         17.8870  -24.7820   -5.5400 O.2     1  UNL1       -0.2680
     14  N         17.8440  -22.4960   -5.2060 N.am    1  UNL1       -0.3530
     15  H         17.7440  -21.6020   -5.6700 H       1  UNL1        0.1630
     16  C         17.7800  -22.5470   -3.7540 C.3     1  UNL1        0.0760
     17  C         16.3270  -22.5180   -3.2830 C.3     1  UNL1        0.0320
     18  C         18.5670  -21.3880   -3.1530 C.3     1  UNL1        0.0320
     19  C         21.8410  -21.5830  -11.5550 C.ar    1  UNL1        0.1100
     20  N         21.9340  -21.4780  -12.9250 N.ar    1  UNL1       -0.3180
     21  C         23.1030  -21.5140  -13.6380 C.ar    1  UNL1        0.2570
     22  H         21.0870  -21.4480  -13.4810 H       1  UNL1        0.1690
     23  O         23.1080  -21.4140  -14.8590 O.2     1  UNL1       -0.2670
     24  C         24.3450  -21.6790  -12.8510 C.ar    1  UNL1        0.0430
     25  C         25.5740  -21.7360  -13.5230 C.2     1  UNL1        0.0180
     26  C         24.2640  -21.7880  -11.4510 C.ar    1  UNL1       -0.0120
     27  C         26.7510  -21.9080  -12.8000 C.2     1  UNL1        0.0010
     28  C         26.6960  -22.0260  -11.4140 C.2     1  UNL1        0.0010
     29  C         25.4660  -21.9680  -10.7460 C.2     1  UNL1        0.0130
     30  C         22.9370  -21.7140  -10.7770 C.ar    1  UNL1       -0.0180
     31  C         22.9050  -21.7680   -9.2710 C.3     1  UNL1        0.0520
@<TRIPOS>BOND
     1    23    21    2
     2    21    20   ar
     3    21    24   ar
     4    25    24    2
     5    25    27    1
     6    22    20    1
     7    20    19   ar
     8    24    26   ar
     9    27    28    2
    10    19     2    1
    11    19    30   ar
    12    26    30   ar
    13    26    29    2
    14    28    29    1
    15     3     2    2
    16     2     1   am
    17    30    31    1
    18     4     1    1
    19     1     5    1
    20     6     7    1
    21     6     5    2
    22     7     8    2
    23     5    11    1
    24     8     9    1
    25     8    10    1
    26    11    10    2
    27    10    12    1
    28    12    13    2
    29    12    14   am
    30    15    14    1
    31    14    16    1
    32    16    17    1
    33    16    18    1
