@<TRIPOS>MOLECULE
57000_out_ligand_01.pdbqt
 40 44 0 0 0
SMALL
GASTEIGER

@<TRIPOS>ATOM
      1  C         23.2150  -22.5370  -11.7570 C.cat   1  UNL1        0.2580
      2  N         21.9640  -22.1100  -11.6330 N.2     1  UNL1       -0.0280
      3  C         21.5040  -21.3610  -12.6190 C.cat   1  UNL1        0.7450
      4  N         22.2170  -21.0470  -13.6940 N.2     1  UNL1        0.1300
      5  C         23.4620  -21.5120  -13.7540 C.cat   1  UNL1        0.7430
      6  N         23.9920  -22.2620  -12.7960 N.pl3   1  UNL1       -0.0290
      7  N         23.8020  -23.3500  -10.7520 N.pl3   1  UNL1       -0.1480
      8  H         24.5140  -23.8670  -11.2670 H       1  UNL1        0.1580
      9  N         24.2520  -22.7330   -9.6170 N.2     1  UNL1       -0.2050
     10  C         23.4150  -22.6060   -8.6270 C.2     1  UNL1        0.1440
     11  C         22.0470  -23.1460   -8.4630 C.2     1  UNL1       -0.0170
     12  C         21.7030  -24.4390   -8.8650 C.2     1  UNL1        0.0150
     13  C         20.4130  -24.9290   -8.6290 C.2     1  UNL1        0.0370
     14  C         19.4670  -24.1320   -7.9810 C.2     1  UNL1        0.0690
     15  C         19.8210  -22.8410   -7.5770 C.2     1  UNL1        0.0370
     16  C         21.1070  -22.3490   -7.8080 C.2     1  UNL1        0.0150
     17  O         18.1840  -24.4910   -7.6740 O.2     1  UNL1       -0.3470
     18  C         17.7970  -24.4230   -6.2990 C.3     1  UNL1        0.2160
     19  C         16.5760  -23.5410   -6.1150 C.2     1  UNL1       -0.0120
     20  C         15.8680  -23.0350   -7.2200 C.2     1  UNL1        0.0130
     21  C         14.7550  -22.2090   -7.0460 C.2     1  UNL1        0.0240
     22  C         14.3390  -21.8720   -5.7610 C.2     1  UNL1        0.0350
     23 CL         12.9680  -20.8560   -5.5460 Cl      1  UNL1       -0.0840
     24  C         15.0280  -22.3490   -4.6500 C.2     1  UNL1        0.0480
     25  C         16.1420  -23.1740   -4.8280 C.2     1  UNL1        0.0440
     26 CL         16.9700  -23.7110   -3.4080 Cl      1  UNL1       -0.0840
     27  N         20.2040  -20.8590  -12.6120 N.pl3   1  UNL1       -0.1880
     28  H         20.1430  -20.0830  -13.2550 H       1  UNL1        0.1840
     29  C         19.0480  -21.1790  -11.8950 C.2     1  UNL1        0.0490
     30  C         18.0310  -20.2630  -11.6040 C.2     1  UNL1        0.0300
     31  C         16.9120  -20.6340  -10.8500 C.2     1  UNL1        0.0020
     32  C         16.7950  -21.9330  -10.3640 C.2     1  UNL1        0.0000
     33  C         17.7970  -22.8610  -10.6360 C.2     1  UNL1        0.0020
     34  C         18.9100  -22.4850  -11.3910 C.2     1  UNL1        0.0300
     35  N         24.2280  -21.2190  -14.8650 N.pl3   1  UNL1       -0.2130
     36  C         25.0530  -20.0160  -14.8700 C.3     1  UNL1        0.1410
     37  C         26.3970  -20.2940  -15.5440 C.3     1  UNL1        0.0200
     38  C         26.2380  -20.8280  -16.9650 C.3     1  UNL1        0.0030
     39  C         24.9550  -21.6360  -17.1580 C.3     1  UNL1        0.0200
     40  C         24.4670  -22.2610  -15.8540 C.3     1  UNL1        0.1410
@<TRIPOS>BOND
     1    39    38    1
     2    39    40    1
     3    38    37    1
     4    40    35    1
     5    37    36    1
     6    36    35    1
     7    35     5    1
     8     5     4    2
     9     5     6    1
    10     4     3    1
    11    28    27    1
    12     6     1    1
    13     3    27    1
    14     3     2    2
    15    27    29    1
    16    29    30    2
    17    29    34    1
    18     1     2    2
    19     1     7    1
    20    30    31    1
    21    34    33    2
    22     8     7    1
    23    31    32    2
    24     7     9    1
    25    33    32    1
    26     9    10    2
    27    12    13    1
    28    12    11    2
    29    13    14    2
    30    10    11    1
    31    11    16    1
    32    14    17    1
    33    14    15    1
    34    16    15    2
    35    17    18    1
    36    20    21    1
    37    20    19    2
    38    21    22    2
    39    18    19    1
    40    19    25    1
    41    22    23    1
    42    22    24    1
    43    25    24    2
    44    25    26    1
