@<TRIPOS>MOLECULE
572_out_ligand_01.pdbqt
 39 42 0 0 0
SMALL
GASTEIGER

@<TRIPOS>ATOM
      1  O         21.2040  -20.7030  -13.0640 O.2     1  UNL1       -0.2670
      2  C         21.0670  -21.4960  -12.1410 C.2     1  UNL1        0.2560
      3  N         22.0310  -22.3060  -11.5920 N.am    1  UNL1       -0.3210
      4  H         21.8090  -22.8760  -10.7780 H       1  UNL1        0.1690
      5  C         19.7290  -21.6040  -11.5020 C.2     1  UNL1        0.0340
      6  C         18.6710  -20.7620  -11.8680 C.2     1  UNL1        0.0170
      7  C         17.4270  -20.8980  -11.2500 C.2     1  UNL1        0.0030
      8  C         17.2440  -21.8660  -10.2620 C.2     1  UNL1        0.0240
      9  C         18.3070  -22.6840   -9.8770 C.2     1  UNL1        0.0230
     10  C         19.5490  -22.5630  -10.4990 C.2     1  UNL1        0.0410
     11  N         18.0860  -23.7080   -8.8960 N.pl3   1  UNL1       -0.1810
     12  H         18.0330  -24.6230   -9.3490 H       1  UNL1        0.1460
     13  S         16.6270  -23.5260   -8.0280 S.O2    1  UNL1        0.2460
     14  O         15.7560  -22.5790   -8.6890 O.2     1  UNL1       -0.2060
     15  O         16.1900  -24.8590   -7.6760 O.2     1  UNL1       -0.2060
     16  C         17.2300  -22.7430   -6.5520 C.2     1  UNL1        0.0770
     17  C         16.5050  -22.8460   -5.3560 C.2     1  UNL1        0.0280
     18  C         16.9760  -22.2020   -4.2100 C.2     1  UNL1        0.0470
     19  C         18.1540  -21.4610   -4.2730 C.2     1  UNL1        0.1540
     20  F         18.5980  -20.8410   -3.1710 F       1  UNL1       -0.2030
     21  C         18.8600  -21.3530   -5.4680 C.2     1  UNL1        0.1560
     22  F         19.9830  -20.6230   -5.5250 F       1  UNL1       -0.2030
     23  C         18.4050  -21.9880   -6.6170 C.2     1  UNL1        0.0700
     24  C         23.3860  -22.4360  -11.9610 C.2     1  UNL1        0.0570
     25  C         23.8370  -22.4720  -13.2810 C.2     1  UNL1        0.0470
     26  C         25.2100  -22.5810  -13.5600 C.2     1  UNL1        0.0500
     27  C         26.1200  -22.6530  -12.4950 C.2     1  UNL1        0.0180
     28  C         25.6710  -22.6270  -11.1730 C.2     1  UNL1        0.0270
     29  C         24.3050  -22.5220  -10.8860 C.2     1  UNL1        0.0370
     30  C         25.6800  -22.6210  -14.9930 C.3     1  UNL1        0.4170
     31  F         24.6850  -22.3520  -15.8830 F       1  UNL1       -0.1660
     32  F         26.1840  -23.8370  -15.3450 F       1  UNL1       -0.1660
     33  F         26.6670  -21.7210  -15.2600 F       1  UNL1       -0.1660
     34  N         23.7990  -22.5310   -9.5580 N.pl3   1  UNL1       -0.2810
     35  C         22.8640  -21.4090   -9.3420 C.3     1  UNL1        0.0960
     36  C         22.1760  -21.5650   -7.9890 C.3     1  UNL1        0.0150
     37  C         21.3380  -22.8440   -7.9350 C.3     1  UNL1        0.0020
     38  C         21.8390  -23.9220   -8.8990 C.3     1  UNL1        0.0150
     39  C         23.3540  -23.8580   -9.0790 C.3     1  UNL1        0.0960
@<TRIPOS>BOND
     1    31    30    1
     2    32    30    1
     3    33    30    1
     4    30    26    1
     5    26    25    1
     6    26    27    2
     7    25    24    2
     8     1     2    2
     9    27    28    1
    10     2     3   am
    11     2     5    1
    12    24     3    1
    13    24    29    1
    14     6     5    2
    15     6     7    1
    16     3     4    1
    17     5    10    1
    18     7     8    2
    19    28    29    2
    20    29    34    1
    21    10     9    2
    22     8     9    1
    23     9    11    1
    24    34    35    1
    25    34    39    1
    26    12    11    1
    27    35    36    1
    28    39    38    1
    29    38    37    1
    30    11    13    1
    31    14    13    2
    32    13    15    2
    33    13    16    1
    34    36    37    1
    35    23    16    2
    36    23    21    1
    37    16    17    1
    38    22    21    1
    39    21    19    2
    40    17    18    2
    41    19    18    1
    42    19    20    1
