@<TRIPOS>MOLECULE
57378_out_ligand_01.pdbqt
 37 41 0 0 0
SMALL
GASTEIGER

@<TRIPOS>ATOM
      1  O         21.0490  -21.6300  -11.6480 O.2     1  UNL1       -0.2670
      2  C         21.2810  -22.4870  -10.8030 C.2     1  UNL1        0.2560
      3  N         22.4920  -23.1120  -10.5670 N.am    1  UNL1       -0.3230
      4  H         22.5160  -23.8290   -9.8530 H       1  UNL1        0.1690
      5  C         20.1550  -22.9370   -9.9340 C.2     1  UNL1        0.0320
      6  C         18.8570  -22.5130  -10.2560 C.2     1  UNL1        0.0180
      7  C         17.7710  -22.9060   -9.4720 C.2     1  UNL1        0.0260
      8  C         17.9880  -23.7300   -8.3640 C.2     1  UNL1        0.0790
      9  C         19.2810  -24.1330   -8.0140 C.2     1  UNL1        0.0260
     10  C         20.3660  -23.7340   -8.7990 C.2     1  UNL1        0.0180
     11  S         16.6120  -24.2160   -7.3480 S.O2    1  UNL1        0.2630
     12  O         17.0740  -25.1570   -6.3510 O.2     1  UNL1       -0.2000
     13  O         15.5200  -24.5520   -8.2390 O.2     1  UNL1       -0.2000
     14  N         16.1720  -22.7610   -6.6080 N.pl3   1  UNL1       -0.2810
     15  H         15.1610  -22.7120   -6.4870 H       1  UNL1        0.1790
     16  C         16.9730  -22.2950   -5.5290 C.2     1  UNL1        0.0420
     17  C         16.5740  -22.5550   -4.2180 C.2     1  UNL1        0.0300
     18  C         17.3360  -22.0760   -3.1530 C.2     1  UNL1        0.0020
     19  C         18.4930  -21.3360   -3.4000 C.2     1  UNL1        0.0000
     20  C         18.8880  -21.0730   -4.7130 C.2     1  UNL1        0.0020
     21  C         18.1270  -21.5530   -5.7800 C.2     1  UNL1        0.0300
     22  C         23.7150  -22.8860  -11.2360 C.2     1  UNL1        0.0350
     23  C         24.8240  -22.5510  -10.4500 C.2     1  UNL1        0.0290
     24  C         26.0630  -22.3040  -11.0420 C.2     1  UNL1        0.0030
     25  C         26.2020  -22.3820  -12.4270 C.2     1  UNL1        0.0150
     26  C         25.1040  -22.7080  -13.2340 C.2     1  UNL1        0.0140
     27  C         23.8710  -22.9800  -12.6210 C.2     1  UNL1        0.0440
     28  C         25.2860  -22.8020  -14.6850 C.ar    1  UNL1        0.1640
     29  N         25.3040  -23.9330  -15.3670 N.ar    1  UNL1       -0.1290
     30  N         25.4490  -23.6440  -16.6950 N.ar    1  UNL1       -0.1340
     31  C         25.5450  -22.3380  -16.8250 C.ar    1  UNL1        0.1300
     32  N         25.5020  -21.7650  -15.5740 N.ar    1  UNL1       -0.3160
     33  C         25.6950  -21.6250  -18.1260 C.3     1  UNL1        0.0810
     34  C         25.6860  -20.3670  -15.2370 C.3     1  UNL1        0.1320
     35  C         26.5720  -19.5730  -16.1930 C.3     1  UNL1        0.0200
     36  C         25.8670  -19.1620  -17.4850 C.3     1  UNL1        0.0020
     37  C         25.0320  -20.2540  -18.1530 C.3     1  UNL1        0.0080
@<TRIPOS>BOND
     1    37    33    1
     2    37    36    1
     3    33    31    1
     4    36    35    1
     5    31    30   ar
     6    31    32   ar
     7    30    29   ar
     8    35    34    1
     9    32    34    1
    10    32    28   ar
    11    29    28   ar
    12    28    26    1
    13    26    27    1
    14    26    25    2
    15    27    22    2
    16    25    24    1
    17     1     2    2
    18    22     3    1
    19    22    23    1
    20    24    23    2
    21     2     3   am
    22     2     5    1
    23     3     4    1
    24     6     5    2
    25     6     7    1
    26     5    10    1
    27     7     8    2
    28    10     9    2
    29     8     9    1
    30     8    11    1
    31    13    11    2
    32    11    14    1
    33    11    12    2
    34    14    15    1
    35    14    16    1
    36    21    16    2
    37    21    20    1
    38    16    17    1
    39    20    19    2
    40    17    18    2
    41    19    18    1
