@<TRIPOS>MOLECULE
57381_out_ligand_01.pdbqt
 33 37 0 0 0
SMALL
GASTEIGER

@<TRIPOS>ATOM
      1  O         22.9230  -24.0150   -9.1990 O.2     1  UNL1       -0.2670
      2  C         22.1630  -23.0590   -9.2850 C.2     1  UNL1        0.2570
      3  N         22.2930  -21.9690  -10.1260 N.am    1  UNL1       -0.3230
      4  H         21.6630  -21.1880   -9.9920 H       1  UNL1        0.1690
      5  C         20.9890  -23.0320   -8.3750 C.2     1  UNL1        0.0510
      6  C         20.0260  -24.0270   -8.4960 C.2     1  UNL1        0.1360
      7  N         18.9080  -24.1010   -7.7280 N.2     1  UNL1       -0.2410
      8  C         18.7080  -23.1390   -6.7890 C.ar    1  UNL1        0.1490
      9  C         19.6180  -22.1030   -6.6290 C.ar    1  UNL1        0.0790
     10  N         17.5500  -23.2010   -5.9730 N.ar    1  UNL1       -0.2780
     11  C         20.7680  -22.0380   -7.4270 C.2     1  UNL1        0.0390
     12  C         19.3520  -21.0730   -5.6250 C.ar    1  UNL1        0.2630
     13  O         20.1540  -20.1710   -5.4140 O.2     1  UNL1       -0.2670
     14  N         18.1720  -21.1850   -4.9480 N.ar    1  UNL1       -0.2740
     15  C         17.2480  -22.1890   -5.0740 C.ar    1  UNL1        0.3310
     16  H         17.9580  -20.4730   -4.2660 H       1  UNL1        0.1730
     17  O         16.2240  -22.1350   -4.3950 O.2     1  UNL1       -0.2460
     18  C         16.6100  -24.2820   -6.1860 C.3     1  UNL1        0.0960
     19  C         15.1290  -24.0330   -6.3600 C.3     1  UNL1        0.0280
     20  C         15.9390  -24.5160   -7.5200 C.3     1  UNL1        0.0280
     21  C         23.2700  -21.7750  -11.1310 C.2     1  UNL1        0.0370
     22  C         24.6300  -21.5810  -10.8670 C.2     1  UNL1        0.0320
     23  C         25.5690  -21.4070  -11.8970 C.2     1  UNL1        0.0340
     24  C         25.0810  -21.4390  -13.2020 C.ar    1  UNL1        0.0620
     25  N         25.6910  -21.3110  -14.4210 N.ar    1  UNL1       -0.3380
     26  C         23.7410  -21.6320  -13.5050 C.ar    1  UNL1        0.0870
     27  C         24.7310  -21.4290  -15.3990 C.ar    1  UNL1        0.1700
     28  H         26.6760  -21.1500  -14.5850 H       1  UNL1        0.1670
     29  N         23.5370  -21.6240  -14.8630 N.ar    1  UNL1       -0.2280
     30  C         22.8180  -21.8030  -12.4610 C.2     1  UNL1        0.0630
     31  C         25.0950  -21.3420  -16.8360 C.3     1  UNL1        0.4220
     32  F         24.5060  -20.2600  -17.4160 F       1  UNL1       -0.2060
     33  F         24.6210  -22.4230  -17.5170 F       1  UNL1       -0.2060
@<TRIPOS>BOND
     1    33    31    1
     2    32    31    1
     3    31    27    1
     4    27    29   ar
     5    27    25   ar
     6    29    26   ar
     7    28    25    1
     8    25    24   ar
     9    26    24   ar
    10    26    30    1
    11    24    23    1
    12    30    21    2
    13    23    22    2
    14    21    22    1
    15    21     3    1
    16     3     4    1
    17     3     2   am
    18     2     1    2
    19     2     5    1
    20     6     5    2
    21     6     7    1
    22     5    11    1
    23     7     8    2
    24    20    19    1
    25    20    18    1
    26    11     9    2
    27     8     9   ar
    28     8    10   ar
    29     9    12   ar
    30    19    18    1
    31    18    10    1
    32    10    15   ar
    33    12    13    2
    34    12    14   ar
    35    15    14   ar
    36    15    17    2
    37    14    16    1
