@<TRIPOS>MOLECULE
57388_out_ligand_01.pdbqt
 35 40 0 0 0
SMALL
GASTEIGER

@<TRIPOS>ATOM
      1  O         18.9430  -20.8880  -11.7480 O.2     1  UNL1       -0.2670
      2  C         19.5030  -21.7460  -11.0780 C.2     1  UNL1        0.2580
      3  N         18.9190  -22.5570  -10.1160 N.am    1  UNL1       -0.3070
      4  H         19.4700  -23.2880   -9.6920 H       1  UNL1        0.1700
      5  C         20.9510  -21.9710  -11.3230 C.2     1  UNL1        0.0510
      6  C         21.5040  -21.5110  -12.5120 C.2     1  UNL1        0.1360
      7  N         22.8130  -21.6560  -12.8500 N.2     1  UNL1       -0.2410
      8  C         23.6390  -22.2790  -11.9720 C.ar    1  UNL1        0.1490
      9  C         23.1600  -22.7460  -10.7570 C.ar    1  UNL1        0.0790
     10  N         25.0080  -22.4450  -12.3080 N.ar    1  UNL1       -0.2780
     11  C         21.8090  -22.5900  -10.4170 C.2     1  UNL1        0.0390
     12  C         24.0860  -23.3950   -9.8280 C.ar    1  UNL1        0.2630
     13  O         23.6930  -23.8510   -8.7630 O.2     1  UNL1       -0.2670
     14  N         25.3900  -23.4530  -10.2250 N.ar    1  UNL1       -0.2740
     15  C         25.9080  -22.9910  -11.4050 C.ar    1  UNL1        0.3310
     16  H         26.0540  -23.8700   -9.5880 H       1  UNL1        0.1730
     17  O         27.1210  -23.0840  -11.5950 O.2     1  UNL1       -0.2460
     18  C         25.4780  -21.9110  -13.5690 C.3     1  UNL1        0.0960
     19  C         25.1970  -22.5990  -14.8860 C.3     1  UNL1        0.0280
     20  C         26.5930  -22.5640  -14.3540 C.3     1  UNL1        0.0280
     21  C         17.5820  -22.4440   -9.7500 C.2     1  UNL1        0.1290
     22  C         16.5110  -21.8800  -10.4120 C.2     1  UNL1        0.0710
     23  C         15.4070  -22.0530   -9.5670 C.2     1  UNL1        0.1420
     24  N         15.7270  -22.6840   -8.4390 N.2     1  UNL1       -0.1820
     25  N         17.0590  -22.9040   -8.5480 N.pl3   1  UNL1       -0.2450
     26  C         17.7670  -23.5850   -7.4520 C.3     1  UNL1        0.1450
     27  C         16.9990  -24.8150   -6.9290 C.3     1  UNL1        0.0330
     28  C         16.0380  -24.4720   -5.7970 C.3     1  UNL1        0.0070
     29  C         16.7870  -23.8400   -4.6290 C.3     1  UNL1        0.0390
     30  C         17.7100  -22.7220   -5.0460 C.2     1  UNL1       -0.0500
     31  C         18.1430  -21.8120   -4.0670 C.2     1  UNL1        0.0070
     32  C         18.1870  -22.6040   -6.3660 C.2     1  UNL1       -0.0270
     33  C         19.0250  -20.7840   -4.3900 C.2     1  UNL1        0.0010
     34  C         19.4940  -20.6570   -5.6930 C.2     1  UNL1        0.0010
     35  C         19.0810  -21.5600   -6.6720 C.2     1  UNL1        0.0100
@<TRIPOS>BOND
     1    19    20    1
     2    19    18    1
     3    20    18    1
     4    18    10    1
     5     7     6    1
     6     7     8    2
     7     6     5    2
     8    10     8   ar
     9    10    15   ar
    10     8     9   ar
    11     1     2    2
    12    17    15    2
    13    15    14   ar
    14     5     2    1
    15     5    11    1
    16     2     3   am
    17     9    11    2
    18     9    12   ar
    19    22    21    2
    20    22    23    1
    21    14    12   ar
    22    14    16    1
    23     3    21    1
    24     3     4    1
    25    12    13    2
    26    21    25    1
    27    23    24    2
    28    25    24    1
    29    25    26    1
    30    26    27    1
    31    26    32    1
    32    27    28    1
    33    35    32    1
    34    35    34    2
    35    32    30    2
    36    28    29    1
    37    34    33    1
    38    30    29    1
    39    30    31    1
    40    33    31    2
