@<TRIPOS>MOLECULE
57409_out_ligand_01.pdbqt
 35 38 0 0 0
SMALL
GASTEIGER

@<TRIPOS>ATOM
      1  C         24.3690  -21.2810  -14.7970 C.2     1  UNL1        0.1900
      2  N         23.7590  -22.1150  -15.6770 N.2     1  UNL1       -0.2350
      3  C         24.5570  -22.9260  -16.4040 C.2     1  UNL1        0.1190
      4  C         25.9370  -22.9530  -16.2860 C.2     1  UNL1        0.0210
      5  C         26.5390  -22.1000  -15.3600 C.2     1  UNL1        0.0280
      6  C         25.7430  -21.2490  -14.5890 C.2     1  UNL1        0.0970
      7  C         26.3370  -20.3870  -13.6180 C.1     1  UNL1        0.1040
      8  N         26.8410  -19.6920  -12.8360 N.1     1  UNL1       -0.1910
      9  O         23.5290  -20.5010  -14.0260 O.2     1  UNL1       -0.2910
     10  C         22.7630  -21.1910  -13.1140 C.2     1  UNL1        0.0780
     11  C         21.4200  -20.8220  -13.0080 C.2     1  UNL1        0.0450
     12  C         20.5710  -21.4640  -12.0940 C.2     1  UNL1       -0.0370
     13  C         19.1330  -21.0390  -11.9980 C.3     1  UNL1        0.0500
     14  C         21.1060  -22.4630  -11.2670 C.2     1  UNL1        0.0290
     15  C         22.4600  -22.8070  -11.3470 C.2     1  UNL1        0.0270
     16  C         23.2900  -22.1700  -12.2710 C.2     1  UNL1        0.0390
     17  N         20.2800  -23.0980  -10.2760 N.pl3   1  UNL1       -0.1810
     18  H         20.0200  -24.0360  -10.5940 H       1  UNL1        0.1460
     19  S         21.0380  -23.3000   -8.7620 S.O2    1  UNL1        0.2470
     20  O         21.8670  -22.1590   -8.4490 O.2     1  UNL1       -0.2050
     21  O         21.5490  -24.6530   -8.7390 O.2     1  UNL1       -0.2050
     22  C         19.6390  -23.2420   -7.6950 C.2     1  UNL1        0.0930
     23  C         18.5670  -24.0810   -7.9310 C.2     1  UNL1        0.1430
     24  N         17.4460  -24.0840   -7.1630 N.2     1  UNL1       -0.2400
     25  C         17.3790  -23.2070   -6.1290 C.ar    1  UNL1        0.1480
     26  C         18.4200  -22.3300   -5.8500 C.ar    1  UNL1        0.0800
     27  N         16.2200  -23.1990   -5.3230 N.ar    1  UNL1       -0.2870
     28  C         19.5690  -22.3350   -6.6440 C.2     1  UNL1        0.0470
     29  C         18.2910  -21.4130   -4.7160 C.ar    1  UNL1        0.2630
     30  O         19.1950  -20.6460   -4.4110 O.2     1  UNL1       -0.2670
     31  N         17.1150  -21.4800   -4.0220 N.ar    1  UNL1       -0.2750
     32  C         16.0740  -22.3360   -4.2590 C.ar    1  UNL1        0.3300
     33  H         17.0070  -20.8590   -3.2340 H       1  UNL1        0.1730
     34  O         15.0880  -22.2980   -3.5270 O.2     1  UNL1       -0.2460
     35  C         15.1600  -24.1380   -5.6520 C.3     1  UNL1        0.1630
@<TRIPOS>BOND
     1     3     4    2
     2     3     2    1
     3     4     5    1
     4     2     1    2
     5     5     6    2
     6     1     6    1
     7     1     9    1
     8     6     7    1
     9     9    10    1
    10     7     8    3
    11    10    11    2
    12    10    16    1
    13    11    12    1
    14    16    15    2
    15    12    13    1
    16    12    14    2
    17    15    14    1
    18    14    17    1
    19    18    17    1
    20    17    19    1
    21    19    21    2
    22    19    20    2
    23    19    22    1
    24    23    22    2
    25    23    24    1
    26    22    28    1
    27    24    25    2
    28    28    26    2
    29    25    26   ar
    30    25    27   ar
    31    26    29   ar
    32    35    27    1
    33    27    32   ar
    34    29    30    2
    35    29    31   ar
    36    32    31   ar
    37    32    34    2
    38    31    33    1
