@<TRIPOS>MOLECULE
57475_out_ligand_01.pdbqt
 36 39 0 0 0
SMALL
GASTEIGER

@<TRIPOS>ATOM
      1  N         21.6410  -22.6430  -10.6160 N.am    1  UNL1       -0.3220
      2  C         22.7460  -21.8740  -10.3110 C.2     1  UNL1        0.2760
      3  O         23.0250  -21.3860   -9.2220 O.2     1  UNL1       -0.2660
      4  H         21.6260  -22.9450  -11.5890 H       1  UNL1        0.1690
      5  C         20.5860  -23.0390   -9.7790 C.2     1  UNL1        0.0350
      6  C         20.6710  -24.0970   -8.8680 C.2     1  UNL1        0.0310
      7  C         19.5750  -24.4350   -8.0680 C.2     1  UNL1        0.0270
      8  C         18.3870  -23.7140   -8.1890 C.2     1  UNL1        0.0790
      9  C         18.2890  -22.6480   -9.0840 C.2     1  UNL1        0.0270
     10  C         19.3890  -22.3150   -9.8770 C.2     1  UNL1        0.0310
     11  S         16.9760  -24.1290   -7.1860 S.O2    1  UNL1        0.2610
     12  O         17.4880  -24.9470   -6.1080 O.2     1  UNL1       -0.2000
     13  O         15.9330  -24.6230   -8.0590 O.2     1  UNL1       -0.2000
     14  N         16.4880  -22.6020   -6.5700 N.3     1  UNL1       -0.3020
     15  C         15.0140  -22.3590   -6.4910 C.3     1  UNL1        0.1360
     16  C         14.3910  -22.9840   -5.2480 C.3     1  UNL1        0.0210
     17  C         15.1140  -22.5670   -3.9720 C.3     1  UNL1        0.0040
     18  C         16.6250  -22.7570   -4.0860 C.3     1  UNL1        0.0260
     19  C         17.1690  -22.0600   -5.3390 C.3     1  UNL1        0.0950
     20  C         18.7010  -22.0840   -5.4310 C.3     1  UNL1        0.0210
     21  C         19.3200  -20.6910   -5.4140 C.3     1  UNL1        0.0070
     22  C         23.6190  -21.6910  -11.4870 C.2     1  UNL1        0.1470
     23  C         23.2250  -21.6680  -12.8500 C.2     1  UNL1        0.0710
     24  C         24.3790  -21.4690  -13.5840 C.2     1  UNL1        0.0650
     25  N         25.3700  -21.3900  -12.6370 N.pl3   1  UNL1       -0.2770
     26  N         24.9500  -21.5170  -11.3640 N.2     1  UNL1       -0.1690
     27  H         26.3580  -21.2460  -12.8260 H       1  UNL1        0.1890
     28  C         24.6360  -21.3540  -15.0270 C.2     1  UNL1        0.0260
     29  C         24.2810  -22.4100  -15.8840 C.2     1  UNL1        0.0230
     30  C         24.5010  -22.3400  -17.2690 C.2     1  UNL1       -0.0610
     31  C         24.1410  -23.5010  -18.1500 C.3     1  UNL1        0.0480
     32  C         25.1080  -21.2040  -17.8070 C.2     1  UNL1        0.0090
     33  C         25.4690  -20.1410  -16.9790 C.2     1  UNL1        0.0380
     34  C         25.2320  -20.2160  -15.6050 C.2     1  UNL1        0.0780
     35  O         25.5980  -19.1540  -14.8130 O.2     1  UNL1       -0.3600
     36  H         24.8060  -18.8360  -14.3460 H       1  UNL1        0.2170
@<TRIPOS>BOND
     1    31    30    1
     2    32    30    2
     3    32    33    1
     4    30    29    1
     5    33    34    2
     6    29    28    2
     7    34    28    1
     8    34    35    1
     9    28    24    1
    10    35    36    1
    11    24    23    2
    12    24    25    1
    13    23    22    1
    14    27    25    1
    15    25    26    1
    16     4     1    1
    17    22    26    2
    18    22     2    1
    19     1     2   am
    20     1     5    1
    21     2     3    2
    22    10     5    2
    23    10     9    1
    24     5     6    1
    25     9     8    2
    26     6     7    2
    27     8     7    1
    28     8    11    1
    29    13    11    2
    30    11    14    1
    31    11    12    2
    32    14    15    1
    33    14    19    1
    34    15    16    1
    35    20    21    1
    36    20    19    1
    37    19    18    1
    38    16    17    1
    39    18    17    1
