@<TRIPOS>MOLECULE
58285_out_ligand_01.pdbqt
 39 42 0 0 0
SMALL
GASTEIGER

@<TRIPOS>ATOM
      1  O         19.4720  -21.3150  -12.4990 O.2     1  UNL1       -0.3420
      2  C         18.6350  -21.6780  -11.4750 C.2     1  UNL1        0.0690
      3  C         17.3740  -21.1330  -11.2120 C.2     1  UNL1        0.0380
      4  C         16.5920  -21.6470  -10.1730 C.2     1  UNL1        0.0280
      5  C         17.0870  -22.6830   -9.3750 C.2     1  UNL1        0.0800
      6  C         18.3470  -23.2330   -9.6290 C.2     1  UNL1        0.0280
      7  C         19.1170  -22.7240  -10.6780 C.2     1  UNL1        0.0380
      8  S         16.0610  -23.3700   -8.0920 S.O2    1  UNL1        0.2630
      9  O         15.2160  -22.3080   -7.5840 O.2     1  UNL1       -0.2000
     10  O         15.4810  -24.5980   -8.6000 O.2     1  UNL1       -0.2000
     11  N         17.1640  -23.8380   -6.9040 N.pl3   1  UNL1       -0.2800
     12  H         17.8940  -24.4390   -7.2800 H       1  UNL1        0.1790
     13  C         17.5030  -22.9370   -5.8520 C.2     1  UNL1        0.0490
     14  C         16.8760  -23.0480   -4.5980 C.2     1  UNL1       -0.0350
     15  C         17.2650  -22.1740   -3.5700 C.2     1  UNL1        0.0090
     16  C         15.7910  -24.0540   -4.3320 C.3     1  UNL1        0.0500
     17  C         18.2540  -21.2110   -3.7840 C.2     1  UNL1        0.0070
     18  C         18.8600  -21.0880   -5.0380 C.2     1  UNL1       -0.0600
     19  C         19.9420  -20.0730   -5.2740 C.3     1  UNL1        0.0480
     20  C         18.4820  -21.9610   -6.0650 C.2     1  UNL1        0.0370
     21  C         20.6790  -20.6320  -12.1720 C.3     1  UNL1        0.2780
     22  C         21.9570  -21.1700  -12.8350 C.2     1  UNL1        0.2460
     23  O         22.1710  -20.9870  -14.0300 O.2     1  UNL1       -0.2710
     24  N         22.7810  -21.8320  -11.9470 N.am    1  UNL1       -0.3230
     25  H         22.4350  -21.9140  -10.9940 H       1  UNL1        0.1690
     26  C         23.9740  -22.5350  -12.2100 C.2     1  UNL1        0.0700
     27  C         24.3050  -23.0740  -13.4530 C.2     1  UNL1        0.0560
     28  C         25.5050  -23.7730  -13.6110 C.2     1  UNL1        0.0360
     29 CL         25.9080  -24.4420  -15.1460 Cl      1  UNL1       -0.0840
     30  C         26.3880  -23.9360  -12.5410 C.2     1  UNL1        0.0260
     31  C         26.0730  -23.3980  -11.2960 C.2     1  UNL1        0.0410
     32  C         24.8620  -22.7180  -11.1320 C.2     1  UNL1        0.1020
     33  O         24.5460  -22.1510   -9.9150 O.2     1  UNL1       -0.3090
     34  C         23.4190  -22.6180   -9.2680 C.2     1  UNL1        0.0760
     35  C         22.7360  -21.6790   -8.4900 C.2     1  UNL1        0.0370
     36  C         21.5610  -22.0370   -7.8240 C.2     1  UNL1        0.0030
     37  C         21.0690  -23.3370   -7.9370 C.2     1  UNL1        0.0000
     38  C         21.7450  -24.2780   -8.7220 C.2     1  UNL1        0.0030
     39  C         22.9130  -23.9180   -9.3980 C.2     1  UNL1        0.0370
@<TRIPOS>BOND
     1    29    28    1
     2    23    22    2
     3    28    27    1
     4    28    30    2
     5    27    26    2
     6    22    21    1
     7    22    24   am
     8    30    31    1
     9     1    21    1
    10     1     2    1
    11    26    24    1
    12    26    32    1
    13    24    25    1
    14     2     3    2
    15     2     7    1
    16    31    32    2
    17     3     4    1
    18    32    33    1
    19     7     6    2
    20     4     5    2
    21    33    34    1
    22     6     5    1
    23    39    34    2
    24    39    38    1
    25     5     8    1
    26    34    35    1
    27    38    37    2
    28    10     8    2
    29    35    36    2
    30     8     9    2
    31     8    11    1
    32    37    36    1
    33    12    11    1
    34    11    13    1
    35    20    13    2
    36    20    18    1
    37    13    14    1
    38    19    18    1
    39    18    17    2
    40    14    16    1
    41    14    15    2
    42    17    15    1
