@<TRIPOS>MOLECULE
58417_out_ligand_01.pdbqt
 33 35 0 0 0
SMALL
GASTEIGER

@<TRIPOS>ATOM
      1  C         21.5210  -22.7950  -10.0340 C.2     1  UNL1        0.0800
      2  C         20.7960  -23.8190   -9.4270 C.2     1  UNL1        0.0280
      3  C         19.4110  -23.8850   -9.6030 C.2     1  UNL1        0.0390
      4  C         18.7510  -22.9310  -10.3880 C.2     1  UNL1        0.0750
      5  C         19.4900  -21.9140  -11.0230 C.2     1  UNL1       -0.0270
      6  C         18.8080  -20.8860  -11.8830 C.3     1  UNL1        0.0510
      7  C         20.8800  -21.8520  -10.8410 C.2     1  UNL1        0.0340
      8  O         17.4020  -22.9190  -10.6340 O.2     1  UNL1       -0.3420
      9  C         16.5580  -22.2000   -9.7410 C.3     1  UNL1        0.2780
     10  C         16.3960  -22.8220   -8.3470 C.2     1  UNL1        0.2460
     11  O         16.1200  -24.0120   -8.2310 O.2     1  UNL1       -0.2710
     12  N         16.6520  -21.9240   -7.3270 N.am    1  UNL1       -0.3240
     13  H         17.1430  -21.0940   -7.6420 H       1  UNL1        0.1690
     14  C         16.6160  -22.1460   -5.9310 C.2     1  UNL1        0.0460
     15  C         15.4300  -22.3290   -5.1890 C.2     1  UNL1       -0.0350
     16  C         14.0390  -22.2010   -5.7480 C.3     1  UNL1        0.0500
     17  C         15.5180  -22.6010   -3.8090 C.2     1  UNL1        0.0090
     18  C         16.7420  -22.6240   -3.1530 C.2     1  UNL1        0.0010
     19  C         17.9070  -22.3690   -3.8660 C.2     1  UNL1        0.0090
     20  C         17.8600  -22.1240   -5.2480 C.2     1  UNL1       -0.0350
     21  C         19.1670  -21.8770   -5.9590 C.3     1  UNL1        0.0500
     22  S         23.2820  -22.7190   -9.8180 S.O2    1  UNL1        0.2630
     23  O         23.6710  -23.6650   -8.7950 O.2     1  UNL1       -0.2000
     24  O         23.6440  -21.3210   -9.7130 O.2     1  UNL1       -0.2000
     25  N         23.8590  -23.2360  -11.3210 N.pl3   1  UNL1       -0.2810
     26  H         23.2460  -23.9470  -11.7170 H       1  UNL1        0.1790
     27  C         24.3740  -22.2540  -12.2100 C.2     1  UNL1        0.0420
     28  C         25.6750  -21.7870  -12.0370 C.2     1  UNL1        0.0300
     29  C         26.1780  -20.7990  -12.8860 C.2     1  UNL1        0.0090
     30  C         25.3770  -20.2630  -13.9020 C.2     1  UNL1       -0.0620
     31  C         25.9280  -19.2230  -14.8330 C.3     1  UNL1        0.0480
     32  C         24.0720  -20.7440  -14.0680 C.2     1  UNL1        0.0090
     33  C         23.5680  -21.7330  -13.2200 C.2     1  UNL1        0.0300
@<TRIPOS>BOND
     1    31    30    1
     2    32    30    2
     3    32    33    1
     4    30    29    1
     5    33    27    2
     6    29    28    2
     7    27    28    1
     8    27    25    1
     9     6     5    1
    10    26    25    1
    11    25    22    1
    12     5     7    1
    13     5     4    2
    14     7     1    2
    15     8     4    1
    16     8     9    1
    17     4     3    1
    18     1    22    1
    19     1     2    1
    20    22    24    2
    21    22    23    2
    22     9    10    1
    23     3     2    2
    24    10    11    2
    25    10    12   am
    26    13    12    1
    27    12    14    1
    28    21    20    1
    29    14    20    2
    30    14    15    1
    31    16    15    1
    32    20    19    1
    33    15    17    2
    34    19    18    2
    35    17    18    1
