@<TRIPOS>MOLECULE
59029_out_ligand_01.pdbqt
 30 35 0 0 0
SMALL
GASTEIGER

@<TRIPOS>ATOM
      1  C         19.2960  -22.7180   -8.5740 C.ar    1  UNL1        0.0750
      2  N         20.6170  -23.0140   -8.6030 N.ar    1  UNL1       -0.2390
      3  C         21.2760  -22.6550   -9.7270 C.ar    1  UNL1        0.1120
      4  S         22.9420  -22.9580   -9.8710 S.2     1  UNL1       -0.0630
      5  C         23.0100  -22.2510  -11.4370 C.ar    1  UNL1        0.0820
      6  C         24.1100  -22.0930  -12.2930 C.2     1  UNL1        0.1440
      7  N         23.8900  -21.4930  -13.4810 N.2     1  UNL1       -0.2230
      8  C         22.6500  -21.0880  -13.7870 C.2     1  UNL1        0.2360
      9  N         21.5520  -21.1950  -13.0370 N.2     1  UNL1       -0.2400
     10  C         21.7570  -21.7950  -11.8350 C.ar    1  UNL1        0.0920
     11  C         20.7440  -22.0320  -10.8470 C.ar    1  UNL1        0.0370
     12  C         19.3690  -21.7670  -10.7930 C.ar    1  UNL1       -0.0340
     13  C         18.6500  -22.1180   -9.6430 C.ar    1  UNL1       -0.0210
     14  C         17.2070  -21.7400   -9.7950 C.3     1  UNL1        0.0420
     15  C         17.0920  -21.5710  -11.3150 C.3     1  UNL1        0.0090
     16  C         18.4690  -21.1080  -11.8030 C.3     1  UNL1        0.0400
     17  N         25.3820  -22.5450  -11.9460 N.pl3   1  UNL1       -0.3690
     18  H         25.8960  -21.8560  -11.4060 H       1  UNL1        0.1610
     19  C         26.1500  -23.2670  -12.9580 C.3     1  UNL1        0.0830
     20  C         26.7520  -22.2780  -13.9770 C.3     1  UNL1        0.0250
     21  C         26.8740  -22.8450  -15.3940 C.3     1  UNL1        0.0020
     22  C         27.1210  -24.3460  -15.3800 C.3     1  UNL1        0.0000
     23  C         25.9750  -25.1020  -14.7070 C.3     1  UNL1        0.0020
     24  C         25.2270  -24.2710  -13.6630 C.3     1  UNL1        0.0250
     25  C         18.6100  -23.1020   -7.3290 C.2     1  UNL1       -0.0070
     26  C         18.5540  -22.2100   -6.2430 C.2     1  UNL1        0.0140
     27  C         17.9120  -22.5580   -5.0520 C.2     1  UNL1        0.0010
     28  C         17.3030  -23.8040   -4.9280 C.2     1  UNL1        0.0000
     29  C         17.3310  -24.6980   -5.9950 C.2     1  UNL1        0.0010
     30  C         17.9750  -24.3470   -7.1850 C.2     1  UNL1        0.0140
@<TRIPOS>BOND
     1    21    22    1
     2    21    20    1
     3    22    23    1
     4    23    24    1
     5    20    19    1
     6     8     7    2
     7     8     9    1
     8    24    19    1
     9     7     6    1
    10     9    10    2
    11    19    17    1
    12     6    17    1
    13     6     5    2
    14    17    18    1
    15    10     5   ar
    16    10    11   ar
    17    16    15    1
    18    16    12    1
    19     5     4   ar
    20    15    14    1
    21    11    12   ar
    22    11     3   ar
    23    12    13   ar
    24     4     3   ar
    25    14    13    1
    26     3     2   ar
    27    13     1   ar
    28     2     1   ar
    29     1    25    1
    30    25    30    2
    31    25    26    1
    32    30    29    1
    33    26    27    2
    34    29    28    2
    35    27    28    1
