@<TRIPOS>MOLECULE
59155_out_ligand_01.pdbqt
 43 47 0 0 0
SMALL
GASTEIGER

@<TRIPOS>ATOM
      1  C         20.2670  -23.7340   -9.1740 C.ar    1  UNL1        0.1610
      2  N         21.5480  -24.0830   -8.9330 N.ar    1  UNL1       -0.1310
      3  N         22.5800  -23.5090   -9.6210 N.ar    1  UNL1       -0.1470
      4  C         22.3300  -22.5760  -10.5650 C.ar    1  UNL1        0.1000
      5  C         21.0210  -22.1470  -10.8550 C.ar    1  UNL1        0.0090
      6  C         20.7200  -21.1430  -11.8120 C.2     1  UNL1        0.0150
      7  C         19.4100  -20.7390  -12.0600 C.2     1  UNL1        0.0010
      8  C         18.3670  -21.3170  -11.3540 C.2     1  UNL1        0.0010
      9  C         18.6370  -22.3010  -10.4030 C.2     1  UNL1        0.0160
     10  C         19.9580  -22.7420  -10.1350 C.ar    1  UNL1        0.0240
     11  C         23.5360  -22.0670  -11.2280 C.2     1  UNL1       -0.0030
     12  C         24.5890  -21.5080  -10.4900 C.2     1  UNL1        0.0140
     13  C         25.7350  -21.0240  -11.1270 C.2     1  UNL1        0.0090
     14  C         25.8710  -21.0860  -12.5230 C.2     1  UNL1       -0.0390
     15  C         27.1200  -20.5270  -13.1430 C.3     1  UNL1        0.0500
     16  C         24.8090  -21.6320  -13.2680 C.2     1  UNL1        0.0860
     17  C         23.6540  -22.1080  -12.6250 C.2     1  UNL1        0.0390
     18  S         24.8530  -21.7370  -15.0480 S.O2    1  UNL1        0.2590
     19  O         23.5120  -21.9780  -15.5290 O.2     1  UNL1       -0.2010
     20  O         25.9570  -22.5780  -15.4540 O.2     1  UNL1       -0.2010
     21  N         25.2370  -20.1580  -15.4890 N.3     1  UNL1       -0.3130
     22  H         24.5700  -19.4930  -15.0960 H       1  UNL1        0.1720
     23  C         25.7370  -19.9290  -16.8520 C.3     1  UNL1        0.1640
     24  C         26.5310  -18.6230  -16.9220 C.3     1  UNL1        0.1400
     25  C         26.4980  -17.8070  -15.6390 C.3     1  UNL1        0.0350
     26  C         26.7760  -16.4180  -16.1550 C.3     1  UNL1        0.0290
     27  C         26.0260  -16.4100  -17.4710 C.3     1  UNL1        0.1680
     28  O         25.9910  -17.7650  -17.9440 O.3     1  UNL1       -0.3840
     29  N         19.2100  -24.3700   -8.4660 N.pl3   1  UNL1       -0.3390
     30  H         19.5120  -25.3040   -8.2040 H       1  UNL1        0.1670
     31  C         18.3560  -23.8120   -7.4890 C.2     1  UNL1        0.0340
     32  C         17.0800  -24.3070   -7.2230 C.2     1  UNL1        0.0320
     33  C         16.2850  -23.7640   -6.2050 C.2     1  UNL1        0.0400
     34  C         16.7580  -22.7220   -5.4000 C.2     1  UNL1        0.0840
     35  C         18.0660  -22.2440   -5.6170 C.2     1  UNL1        0.0670
     36  C         18.8470  -22.8040   -6.6500 C.2     1  UNL1        0.0490
     37  O         16.0160  -22.1500   -4.3970 O.2     1  UNL1       -0.3550
     38  C         14.5980  -22.1590   -4.5340 C.3     1  UNL1        0.2100
     39  C         18.7240  -21.1590   -4.8220 C.2     1  UNL1        0.2520
     40  N         18.6700  -21.2230   -3.4610 N.am    1  UNL1       -0.3660
     41  H         19.0850  -20.4750   -2.9250 H       1  UNL1        0.1590
     42  H         18.1640  -21.9610   -2.9890 H       1  UNL1        0.1590
     43  O         19.3070  -20.2260   -5.3660 O.2     1  UNL1       -0.2680
@<TRIPOS>BOND
     1    28    27    1
     2    28    24    1
     3    27    26    1
     4    24    23    1
     5    24    25    1
     6    23    21    1
     7    26    25    1
     8    19    18    2
     9    21    22    1
    10    21    18    1
    11    20    18    2
    12    18    16    1
    13    16    17    1
    14    16    14    2
    15    15    14    1
    16    17    11    2
    17    14    13    1
    18     7     6    2
    19     7     8    1
    20     6     5    1
    21     8     9    2
    22    11     4    1
    23    11    12    1
    24    13    12    2
    25     5     4   ar
    26     5    10   ar
    27     4     3   ar
    28     9    10    1
    29    10     1   ar
    30     3     2   ar
    31     1     2   ar
    32     1    29    1
    33    29    30    1
    34    29    31    1
    35    31    32    2
    36    31    36    1
    37    32    33    1
    38    36    35    2
    39    33    34    2
    40    35    34    1
    41    35    39    1
    42    34    37    1
    43    43    39    2
    44    39    40   am
    45    38    37    1
    46    40    42    1
    47    40    41    1
