@<TRIPOS>MOLECULE
60573_out_ligand_01.pdbqt
 37 41 0 0 0
SMALL
GASTEIGER

@<TRIPOS>ATOM
      1  C         18.4310  -23.1780   -6.6800 C.2     1  UNL1        0.1440
      2  C         19.3040  -22.1280   -6.9200 C.2     1  UNL1        0.0570
      3  C         20.3110  -22.6080   -7.7970 C.2     1  UNL1        0.0010
      4  C         21.4510  -22.0650   -8.4220 C.2     1  UNL1        0.0240
      5  C         22.2470  -22.8730   -9.2620 C.2     1  UNL1       -0.0230
      6  C         21.8530  -24.2160   -9.4660 C.2     1  UNL1        0.0130
      7  C         20.7290  -24.7800   -8.8500 C.2     1  UNL1        0.0390
      8  C         19.9970  -23.9360   -8.0270 C.2     1  UNL1        0.0860
      9  O         18.8820  -24.2860   -7.3400 O.2     1  UNL1       -0.3040
     10  C         23.4970  -22.3550   -9.9930 C.3     1  UNL1        0.0880
     11  C         23.2440  -22.1460  -11.5080 C.3     1  UNL1        0.0620
     12  C         23.8360  -23.2810  -12.3420 C.3     1  UNL1        0.1200
     13  N         25.2790  -23.4380  -12.1570 N.3     1  UNL1       -0.4080
     14  C         25.7940  -22.9100  -10.8910 C.3     1  UNL1        0.1200
     15  C         24.7890  -23.1750   -9.7680 C.3     1  UNL1        0.0620
     16  O         23.7600  -21.0460   -9.4390 O.3     1  UNL1       -0.3850
     17  H         24.5670  -20.7080   -9.8660 H       1  UNL1        0.2110
     18  C         26.1060  -23.1360  -13.3280 C.3     1  UNL1        0.1550
     19  C         26.0640  -21.7100  -13.8370 C.2     1  UNL1       -0.0380
     20  C         25.4800  -21.4030  -15.0780 C.2     1  UNL1        0.0090
     21  C         25.4420  -20.0880  -15.5470 C.2     1  UNL1        0.0040
     22  C         25.9950  -19.0620  -14.7840 C.2     1  UNL1        0.0420
     23  C         26.5820  -19.3610  -13.5630 C.2     1  UNL1        0.1170
     24  F         27.1200  -18.3760  -12.8320 F       1  UNL1       -0.2060
     25  C         26.6240  -20.6670  -13.0860 C.2     1  UNL1        0.0510
     26  C         17.2450  -23.2250   -5.8360 C.2     1  UNL1        0.2770
     27  N         15.9840  -22.8810   -6.3570 N.am    1  UNL1       -0.3500
     28  C         14.8250  -23.0410   -5.4920 C.3     1  UNL1        0.1530
     29  O         17.3490  -23.5680   -4.6560 O.2     1  UNL1       -0.2650
     30  C         15.7480  -22.1900   -7.6330 C.3     1  UNL1        0.1320
     31  C         15.9250  -23.1130   -8.8410 C.3     1  UNL1        0.0790
     32  C         16.8260  -22.4870   -9.8730 C.2     1  UNL1        0.0350
     33  C         17.8960  -23.2030  -10.4090 C.2     1  UNL1        0.0270
     34  C         18.7000  -22.5950  -11.3700 C.2     1  UNL1        0.0030
     35  C         18.4160  -21.2960  -11.7710 C.2     1  UNL1        0.0190
     36  C         17.3340  -20.6550  -11.1920 C.2     1  UNL1        0.1170
     37  N         16.5380  -21.2200  -10.2570 N.2     1  UNL1       -0.2660
@<TRIPOS>BOND
     1    21    20    1
     2    21    22    2
     3    20    19    2
     4    22    23    1
     5    19    18    1
     6    19    25    1
     7    23    25    2
     8    23    24    1
     9    18    13    1
    10    12    13    1
    11    12    11    1
    12    13    14    1
    13    35    34    2
    14    35    36    1
    15    11    10    1
    16    34    33    1
    17    36    37    2
    18    14    15    1
    19    33    32    2
    20    37    32    1
    21    10    15    1
    22    10    16    1
    23    10     5    1
    24    32    31    1
    25    17    16    1
    26     6     5    2
    27     6     7    1
    28     5     4    1
    29     7     8    2
    30    31    30    1
    31     4     3    2
    32     8     3    1
    33     8     9    1
    34     3     2    1
    35    30    27    1
    36     9     1    1
    37     2     1    2
    38     1    26    1
    39    27    26   am
    40    27    28    1
    41    26    29    2
