@<TRIPOS>MOLECULE
60672_out_ligand_01.pdbqt
 33 37 0 0 0
SMALL
GASTEIGER

@<TRIPOS>ATOM
      1  C         21.7450  -21.6650  -10.7270 C.2     1  UNL1        0.0760
      2  C         20.9530  -20.8580  -11.5710 C.2     1  UNL1        0.1590
      3  N         19.6540  -20.8950  -11.2810 N.2     1  UNL1       -0.1640
      4  N         19.5550  -21.8240  -10.2810 N.pl3   1  UNL1       -0.0630
      5  C         20.8180  -22.2140   -9.8500 C.2     1  UNL1        0.0760
      6  C         18.2680  -22.2980   -9.8310 C.cat   1  UNL1        0.7500
      7  N         17.4510  -22.8670  -10.7430 N.2     1  UNL1       -0.0730
      8  C         16.2830  -23.3470  -10.2930 C.2     1  UNL1        0.1390
      9  C         15.8960  -23.2900   -8.9760 C.2     1  UNL1        0.0530
     10  C         16.7770  -22.6940   -8.0950 C.2     1  UNL1        0.0900
     11  N         17.9670  -22.2040   -8.5160 N.2     1  UNL1       -0.0600
     12  C         16.5190  -22.5790   -6.6460 C.2     1  UNL1        0.0320
     13  C         15.2030  -22.4400   -6.1570 C.2     1  UNL1        0.0170
     14  C         14.9340  -22.3230   -4.7880 C.2     1  UNL1        0.0010
     15  C         15.9770  -22.3380   -3.8690 C.2     1  UNL1        0.0030
     16  C         17.2840  -22.4820   -4.3190 C.2     1  UNL1        0.0430
     17  C         17.5440  -22.6050   -5.6870 C.2     1  UNL1        0.1290
     18  F         18.8210  -22.7680   -6.0600 F       1  UNL1       -0.2050
     19  C         21.1510  -23.1250   -8.6310 C.3     1  UNL1        0.0390
     20  C         22.1650  -24.2320   -8.7880 C.3     1  UNL1        0.0110
     21  C         20.7200  -24.5730   -8.6440 C.3     1  UNL1        0.0110
     22  C         23.1850  -21.8850  -10.7580 C.2     1  UNL1        0.2550
     23  N         23.6090  -22.8090  -11.6920 N.am    1  UNL1       -0.3550
     24  H         22.9840  -23.0660  -12.4400 H       1  UNL1        0.1620
     25  O         23.9700  -21.2990  -10.0190 O.2     1  UNL1       -0.2680
     26  C         25.0200  -22.9780  -11.9880 C.3     1  UNL1        0.1580
     27  C         25.4460  -22.2530  -13.2860 C.3     1  UNL1        0.2400
     28  C         24.4510  -22.5620  -14.4130 C.3     1  UNL1        0.0390
     29  C         23.6090  -21.3060  -14.5290 C.3     1  UNL1        0.0320
     30  C         24.6120  -20.2140  -14.2140 C.3     1  UNL1        0.2730
     31  N         25.3840  -20.7830  -13.1080 N.3     1  UNL1        0.0940
     32  C         26.6610  -20.1070  -12.8730 C.3     1  UNL1        0.2680
     33  C         26.7980  -19.2830  -11.5940 C.3     1  UNL1        0.0370
@<TRIPOS>BOND
     1    29    28    1
     2    29    30    1
     3    28    27    1
     4    30    31    1
     5    27    31    1
     6    27    26    1
     7    31    32    1
     8    32    33    1
     9    24    23    1
    10    26    23    1
    11    23    22   am
    12     2     3    2
    13     2     1    1
    14     3     4    1
    15    22     1    1
    16    22    25    2
    17     7     8    1
    18     7     6    2
    19     1     5    2
    20     8     9    2
    21     4     5    1
    22     4     6    1
    23     5    19    1
    24     6    11    1
    25     9    10    1
    26    20    21    1
    27    20    19    1
    28    21    19    1
    29    11    10    2
    30    10    12    1
    31    12    13    2
    32    12    17    1
    33    13    14    1
    34    18    17    1
    35    17    16    2
    36    14    15    2
    37    16    15    1
