@<TRIPOS>MOLECULE
60734_out_ligand_01.pdbqt
 35 39 0 0 0
SMALL
GASTEIGER

@<TRIPOS>ATOM
      1  C         16.8980  -21.6120  -11.2010 C.3     1  UNL1        0.0710
      2  C         18.3990  -21.6070  -11.1320 C.2     1  UNL1        0.0380
      3  N         18.9990  -20.7050  -11.9500 N.2     1  UNL1       -0.2650
      4  C         20.3440  -20.6110  -11.9090 C.2     1  UNL1        0.1260
      5  C         21.1480  -21.3930  -11.0980 C.2     1  UNL1       -0.0160
      6  C         20.5240  -22.3470  -10.2770 C.2     1  UNL1       -0.0370
      7  C         19.1160  -22.4650  -10.2760 C.2     1  UNL1       -0.0090
      8  C         21.4420  -23.1570   -9.3920 C.3     1  UNL1        0.0600
      9  C         22.7430  -23.4650  -10.1290 C.3     1  UNL1        0.1310
     10  N         23.4410  -22.2870  -10.6380 N.am    1  UNL1       -0.3420
     11  C         24.7370  -22.5020  -11.1090 C.2     1  UNL1        0.2720
     12  O         25.1880  -23.6500  -11.1590 O.2     1  UNL1       -0.2660
     13  C         22.6310  -21.1310  -11.0010 C.3     1  UNL1        0.1660
     14  C         18.3900  -23.4300   -9.3640 C.3     1  UNL1        0.1640
     15  N         18.4680  -23.0130   -7.9800 N.am    1  UNL1       -0.3520
     16  C         17.3910  -22.5110   -7.2890 C.2     1  UNL1        0.2550
     17  O         16.2900  -22.3310   -7.8000 O.2     1  UNL1       -0.2680
     18  H         19.3440  -23.1600   -7.4910 H       1  UNL1        0.1630
     19  C         17.5880  -22.1940   -5.8480 C.2     1  UNL1        0.0700
     20  C         18.6080  -21.2950   -5.5000 C.2     1  UNL1        0.0200
     21  C         18.8540  -20.9800   -4.1600 C.2     1  UNL1        0.0010
     22  C         18.0870  -21.5730   -3.1530 C.2     1  UNL1        0.0030
     23  C         17.0680  -22.4640   -3.4870 C.2     1  UNL1        0.0430
     24  C         16.8200  -22.7680   -4.8270 C.2     1  UNL1        0.1320
     25  F         15.8290  -23.6310   -5.0960 F       1  UNL1       -0.2050
     26  C         25.5630  -21.4100  -11.5800 C.ar    1  UNL1        0.1260
     27  N         26.0130  -20.4920  -10.6530 N.ar    1  UNL1       -0.2720
     28  N         26.6860  -19.4500  -11.1620 N.ar    1  UNL1       -0.1780
     29  H         25.8360  -20.5200   -9.6520 H       1  UNL1        0.1890
     30  C         26.6170  -19.6650  -12.4740 C.ar    1  UNL1        0.0630
     31  C         25.9620  -20.8870  -12.8050 C.ar    1  UNL1        0.0020
     32  C         27.1040  -18.6750  -13.4710 C.3     1  UNL1        0.0620
     33  C         25.6890  -21.2780  -14.2210 C.3     1  UNL1        0.0430
     34  C         26.3160  -20.3140  -15.2450 C.3     1  UNL1        0.0050
     35  C         26.3250  -18.8440  -14.7870 C.3     1  UNL1        0.0060
@<TRIPOS>BOND
     1    34    35    1
     2    34    33    1
     3    35    32    1
     4    33    31    1
     5    32    30    1
     6    31    30   ar
     7    31    26   ar
     8    30    28   ar
     9     3     4    1
    10     3     2    2
    11     4     5    2
    12    26    11    1
    13    26    27   ar
    14     1     2    1
    15    28    27   ar
    16    12    11    2
    17     2     7    1
    18    11    10   am
    19     5    13    1
    20     5     6    1
    21    13    10    1
    22    27    29    1
    23    10     9    1
    24     6     7    2
    25     6     8    1
    26     7    14    1
    27     9     8    1
    28    14    15    1
    29    15    18    1
    30    15    16   am
    31    17    16    2
    32    16    19    1
    33    19    20    2
    34    19    24    1
    35    20    21    1
    36    25    24    1
    37    24    23    2
    38    21    22    2
    39    23    22    1
