@<TRIPOS>MOLECULE
60732_out_ligand_01.pdbqt
 31 35 0 0 0
SMALL
GASTEIGER

@<TRIPOS>ATOM
      1  C         21.1030  -22.9080   -9.6720 C.3     1  UNL1        0.2860
      2  C         19.7340  -22.4600  -10.1790 C.2     1  UNL1       -0.0150
      3  C         19.4260  -21.9510  -11.4380 C.2     1  UNL1        0.0100
      4  C         18.1130  -21.5760  -11.7150 C.2     1  UNL1        0.0010
      5  C         17.1160  -21.7200  -10.7470 C.2     1  UNL1        0.0010
      6  C         17.4160  -22.2600   -9.4930 C.2     1  UNL1        0.0090
      7  C         18.7220  -22.6440   -9.2140 C.2     1  UNL1       -0.0380
      8  C         19.2730  -23.2990   -7.9560 C.3     1  UNL1        0.0190
      9  C         19.5980  -22.2390   -6.8800 C.3     1  UNL1        0.0470
     10  C         18.3820  -21.8420   -6.0470 C.3     1  UNL1        0.2700
     11  N         17.7630  -23.0050   -5.4160 N.3     1  UNL1        0.0830
     12  C         17.2860  -23.9490   -6.4230 C.3     1  UNL1        0.2700
     13  C         18.3980  -24.4260   -7.3560 C.3     1  UNL1        0.0470
     14  C         20.5890  -23.9010   -8.5700 C.3     1  UNL1        0.1690
     15  H         18.4480  -23.4680   -4.8170 H       1  UNL1        0.3150
     16  N         21.9070  -21.7610   -9.2010 N.3     1  UNL1        0.1010
     17  C         23.0140  -22.1470   -8.3190 C.3     1  UNL1        0.3110
     18  C         22.4520  -20.9590  -10.3110 C.3     1  UNL1        0.3300
     19  C         23.4530  -21.7710  -11.0660 C.ar    1  UNL1        0.0450
     20  C         23.5480  -22.1240  -12.4040 C.ar    1  UNL1       -0.0250
     21  C         22.5940  -21.7680  -13.4870 C.3     1  UNL1        0.0510
     22  C         24.7380  -22.9130  -12.5450 C.ar    1  UNL1       -0.0020
     23  C         25.3660  -23.5600  -13.6310 C.2     1  UNL1        0.0140
     24  C         25.3350  -23.0060  -11.2880 C.ar    1  UNL1        0.0430
     25  C         26.5550  -24.2700  -13.4210 C.2     1  UNL1        0.0010
     26  C         27.1210  -24.3430  -12.1510 C.2     1  UNL1        0.0020
     27  C         26.5210  -23.7130  -11.0580 C.2     1  UNL1        0.0300
     28  N         24.5390  -22.3080  -10.4150 N.ar    1  UNL1       -0.3570
     29  H         24.6960  -22.2200   -9.4190 H       1  UNL1        0.1660
     30  O         20.3530  -25.1950   -9.1740 O.3     1  UNL1       -0.3920
     31  H         21.2180  -25.6370   -9.2580 H       1  UNL1        0.2100
@<TRIPOS>BOND
     1    23    25    1
     2    23    22    2
     3    21    20    1
     4    25    26    2
     5    22    20   ar
     6    22    24   ar
     7    20    19   ar
     8    26    27    1
     9     4     3    1
    10     4     5    2
    11     3     2    2
    12    24    27    2
    13    24    28   ar
    14    19    28   ar
    15    19    18    1
    16     5     6    1
    17    28    29    1
    18    18    16    1
    19     2     1    1
    20     2     7    1
    21     1    16    1
    22     1    14    1
    23     6     7    2
    24    31    30    1
    25     7     8    1
    26    16    17    1
    27    30    14    1
    28    14     8    1
    29     8    13    1
    30     8     9    1
    31    13    12    1
    32     9    10    1
    33    12    11    1
    34    10    11    1
    35    11    15    1
