@<TRIPOS>MOLECULE
60806_out_ligand_01.pdbqt
 34 38 0 0 0
SMALL
GASTEIGER

@<TRIPOS>ATOM
      1  C         22.7520  -21.5070   -8.3360 C.3     1  UNL1        0.1530
      2  N         22.3360  -22.7970   -8.8620 N.am    1  UNL1       -0.3510
      3  C         21.1680  -23.4530   -8.4860 C.2     1  UNL1        0.2370
      4  O         20.8650  -24.5520   -8.9680 O.2     1  UNL1       -0.2720
      5  C         20.2080  -22.7850   -7.4780 C.3     1  UNL1        0.2320
      6  N         18.8130  -22.6570   -7.9730 N.ar    1  UNL1       -0.3360
      7  C         18.6100  -22.2270   -9.3080 C.ar    1  UNL1        0.0490
      8  C         19.5560  -21.4930  -10.0400 C.2     1  UNL1        0.0310
      9  C         17.3870  -22.4980   -9.9510 C.ar    1  UNL1        0.0420
     10  C         19.3130  -21.0930  -11.3610 C.2     1  UNL1        0.0020
     11  C         18.1140  -21.4150  -11.9850 C.2     1  UNL1        0.0010
     12  C         17.1440  -22.1170  -11.2790 C.2     1  UNL1        0.0180
     13  C         16.3130  -23.1740   -9.1930 C.ar    1  UNL1        0.1960
     14  O         15.2730  -23.5180   -9.7470 O.2     1  UNL1       -0.2860
     15  C         16.4970  -23.3810   -7.7410 C.ar    1  UNL1        0.0420
     16  C         15.4120  -23.8520   -6.9850 C.2     1  UNL1        0.0180
     17  C         17.7430  -23.0860   -7.1550 C.ar    1  UNL1        0.0490
     18  C         15.5440  -24.0110   -5.6110 C.2     1  UNL1        0.0010
     19  C         16.7490  -23.6830   -4.9960 C.2     1  UNL1        0.0020
     20  C         17.8290  -23.2180   -5.7580 C.2     1  UNL1        0.0310
     21  C         23.3280  -23.5380   -9.6370 C.3     1  UNL1        0.1640
     22  C         23.7260  -22.8090  -10.9030 C.2     1  UNL1       -0.0400
     23  C         22.7660  -22.4710  -11.8710 C.2     1  UNL1        0.0100
     24  C         23.1360  -21.7650  -13.0160 C.2     1  UNL1        0.0170
     25  C         24.4710  -21.4010  -13.2170 C.2     1  UNL1        0.0320
     26  C         25.4330  -21.7200  -12.2510 C.2     1  UNL1        0.0170
     27  C         25.0610  -22.4290  -11.1060 C.2     1  UNL1        0.0100
     28  C         24.8290  -20.6640  -14.4540 C.2     1  UNL1        0.2520
     29  O         25.3020  -19.5370  -14.3810 O.2     1  UNL1       -0.2680
     30  N         24.5450  -21.3170  -15.6380 N.am    1  UNL1       -0.3520
     31  H         24.0010  -22.1690  -15.6040 H       1  UNL1        0.1630
     32  C         24.7860  -20.7270  -16.9140 C.3     1  UNL1        0.0840
     33  C         24.8350  -21.5820  -18.1530 C.3     1  UNL1        0.0270
     34  C         26.0920  -20.9540  -17.6260 C.3     1  UNL1        0.0270
@<TRIPOS>BOND
     1    33    34    1
     2    33    32    1
     3    34    32    1
     4    32    30    1
     5    30    31    1
     6    30    28   am
     7    28    29    2
     8    28    25    1
     9    25    24    2
    10    25    26    1
    11    24    23    1
    12    26    27    2
    13    11    10    2
    14    11    12    1
    15    23    22    2
    16    10     8    1
    17    12     9    2
    18    27    22    1
    19    22    21    1
    20     8     7    2
    21     9     7   ar
    22     9    13   ar
    23    14    13    2
    24    21     2    1
    25     7     6   ar
    26    13    15   ar
    27     4     3    2
    28     2     3   am
    29     2     1    1
    30     3     5    1
    31     6     5    1
    32     6    17   ar
    33    15    17   ar
    34    15    16    1
    35    17    20    1
    36    16    18    2
    37    20    19    2
    38    18    19    1
