@<TRIPOS>MOLECULE
60968_out_ligand_01.pdbqt
 34 37 0 0 0
SMALL
GASTEIGER

@<TRIPOS>ATOM
      1  C         19.7450  -22.6510  -10.2470 C.2     1  UNL1        0.0610
      2  C         20.0230  -21.6940  -11.2380 C.2     1  UNL1        0.0190
      3  C         18.9980  -20.9280  -11.7980 C.2     1  UNL1        0.0010
      4  C         17.6860  -21.1090  -11.3730 C.2     1  UNL1        0.0020
      5  C         17.3960  -22.0590  -10.3920 C.2     1  UNL1        0.0250
      6  C         18.4130  -22.8360   -9.8270 C.2     1  UNL1        0.0390
      7  C         20.8360  -23.4670   -9.6440 C.2     1  UNL1        0.2950
      8  O         20.6520  -24.2730   -8.7390 O.2     1  UNL1       -0.2590
      9  O         22.0250  -23.2020  -10.2400 O.3     1  UNL1       -0.3040
     10  C         23.1360  -22.9410   -9.3600 C.3     1  UNL1        0.2060
     11  C         22.7610  -21.7400   -8.5000 C.3     1  UNL1        0.0490
     12  C         24.3160  -22.6330  -10.2110 C.ar    1  UNL1        0.1980
     13  N         25.4220  -23.3200  -10.4030 N.ar    1  UNL1       -0.1240
     14  N         26.1720  -22.6030  -11.3120 N.ar    1  UNL1       -0.1210
     15  C         25.4780  -21.5180  -11.6190 C.ar    1  UNL1        0.2090
     16  O         24.2730  -21.4820  -10.9480 O.2     1  UNL1       -0.2700
     17  C         25.9280  -20.5160  -12.5400 C.2     1  UNL1        0.0590
     18  C         26.9180  -19.5760  -12.3270 C.2     1  UNL1        0.0240
     19  C         27.1130  -18.7220  -13.4520 C.2     1  UNL1        0.0090
     20  C         26.2680  -19.0460  -14.4950 C.2     1  UNL1        0.0500
     21  S         25.2500  -20.3660  -14.1110 S.3     1  UNL1       -0.0980
     22  N         18.0560  -23.8160   -8.8400 N.pl3   1  UNL1       -0.1800
     23  H         17.9710  -24.7780   -9.1960 H       1  UNL1        0.1460
     24  S         16.7550  -23.4870   -7.7980 S.O2    1  UNL1        0.2490
     25  O         15.9080  -22.5510   -8.5090 O.2     1  UNL1       -0.2050
     26  O         16.2040  -24.7230   -7.2880 O.2     1  UNL1       -0.2050
     27  C         17.5030  -22.5970   -6.4740 C.2     1  UNL1        0.1160
     28  C         18.7180  -21.9350   -6.6970 C.2     1  UNL1        0.0700
     29  C         19.3000  -21.2270   -5.6550 C.2     1  UNL1        0.1180
     30  F         20.4750  -20.6140   -5.8520 F       1  UNL1       -0.2060
     31  C         18.6890  -21.1550   -4.4070 C.2     1  UNL1        0.0450
     32  C         17.4710  -21.8010   -4.1960 C.2     1  UNL1        0.0470
     33  C         16.8790  -22.5180   -5.2330 C.2     1  UNL1        0.1390
     34  F         15.7260  -23.1500   -4.9810 F       1  UNL1       -0.2040
@<TRIPOS>BOND
     1    20    21    1
     2    20    19    2
     3    21    17    1
     4    19    18    1
     5    17    18    2
     6    17    15    1
     7     3     4    2
     8     3     2    1
     9    15    14   ar
    10    15    16   ar
    11     4     5    1
    12    14    13   ar
    13     2     1    2
    14    16    12   ar
    15    13    12   ar
    16     5     6    2
    17     1     6    1
    18     1     7    1
    19     9     7    1
    20     9    10    1
    21    12    10    1
    22     6    22    1
    23     7     8    2
    24    10    11    1
    25    23    22    1
    26    22    24    1
    27    25    24    2
    28    24    26    2
    29    24    27    1
    30    28    27    2
    31    28    29    1
    32    27    33    1
    33    30    29    1
    34    29    31    2
    35    33    34    1
    36    33    32    2
    37    31    32    1
