@<TRIPOS>MOLECULE
62297_out_ligand_01.pdbqt
 37 40 0 0 0
SMALL
GASTEIGER

@<TRIPOS>ATOM
      1  C         22.3290  -23.3390   -8.6620 C.2     1  UNL1        0.0320
      2  C         21.5470  -24.4800   -8.8950 C.2     1  UNL1        0.0180
      3  C         20.2130  -24.5240   -8.4820 C.2     1  UNL1        0.0260
      4  C         19.6590  -23.4160   -7.8340 C.2     1  UNL1        0.0790
      5  C         20.4390  -22.2910   -7.5520 C.2     1  UNL1        0.0260
      6  C         21.7720  -22.2530   -7.9670 C.2     1  UNL1        0.0180
      7  C         23.7390  -23.3310   -9.1560 C.2     1  UNL1        0.2510
      8  O         24.5180  -24.2170   -8.8230 O.2     1  UNL1       -0.2680
      9  N         24.0750  -22.3110  -10.0110 N.am    1  UNL1       -0.3560
     10  H         23.3300  -21.7870  -10.4680 H       1  UNL1        0.1620
     11  C         25.3310  -22.2820  -10.7380 C.3     1  UNL1        0.1300
     12  C         25.4510  -21.0320  -11.6110 C.3     1  UNL1        0.0980
     13  C         25.2740  -21.3290  -13.0690 C.ar    1  UNL1        0.1060
     14  N         25.2540  -20.4520  -14.0560 N.ar    1  UNL1       -0.2330
     15  C         25.0950  -21.1870  -15.2040 C.ar    1  UNL1        0.0850
     16  C         25.0030  -20.7610  -16.5350 C.2     1  UNL1        0.0340
     17  C         25.0330  -22.5460  -14.9170 C.ar    1  UNL1        0.0620
     18  C         24.8500  -21.7260  -17.5400 C.2     1  UNL1        0.0020
     19  C         24.7930  -23.0850  -17.2220 C.2     1  UNL1        0.0020
     20  C         24.8830  -23.5290  -15.8970 C.2     1  UNL1        0.0320
     21  N         25.1490  -22.6070  -13.5520 N.ar    1  UNL1       -0.3430
     22  H         25.1490  -23.4530  -13.0000 H       1  UNL1        0.1670
     23  S         17.9470  -23.4460   -7.3480 S.O2    1  UNL1        0.2630
     24  O         17.6920  -24.7300   -6.7320 O.2     1  UNL1       -0.2000
     25  O         17.6510  -22.2080   -6.6610 O.2     1  UNL1       -0.2000
     26  N         17.1400  -23.4700   -8.8330 N.pl3   1  UNL1       -0.2810
     27  H         16.8980  -24.4170   -9.1160 H       1  UNL1        0.1790
     28  C         17.5130  -22.5420   -9.8420 C.2     1  UNL1        0.0430
     29  C         16.5900  -21.6310  -10.3510 C.2     1  UNL1        0.0300
     30  C         16.9850  -20.6970  -11.3060 C.2     1  UNL1        0.0030
     31  C         18.3070  -20.6690  -11.7490 C.2     1  UNL1        0.0160
     32  C         19.2440  -21.5850  -11.2470 C.2     1  UNL1        0.0500
     33  C         18.8350  -22.5170  -10.2830 C.2     1  UNL1        0.0460
     34  C         20.6730  -21.5460  -11.7190 C.3     1  UNL1        0.4170
     35  F         21.4590  -20.7640  -10.9340 F       1  UNL1       -0.1660
     36  F         21.2630  -22.7710  -11.7360 F       1  UNL1       -0.1660
     37  F         20.7950  -21.0540  -12.9830 F       1  UNL1       -0.1660
@<TRIPOS>BOND
     1    18    19    2
     2    18    16    1
     3    19    20    1
     4    16    15    2
     5    20    17    2
     6    15    17   ar
     7    15    14   ar
     8    17    21   ar
     9    14    13   ar
    10    21    13   ar
    11    21    22    1
    12    13    12    1
    13    37    34    1
    14    31    30    2
    15    31    32    1
    16    36    34    1
    17    34    32    1
    18    34    35    1
    19    12    11    1
    20    30    29    1
    21    32    33    2
    22    11     9    1
    23    10     9    1
    24    29    28    2
    25    33    28    1
    26     9     7   am
    27    28    26    1
    28     7     8    2
    29     7     1    1
    30    27    26    1
    31     2     1    2
    32     2     3    1
    33    26    23    1
    34     1     6    1
    35     3     4    2
    36     6     5    2
    37     4     5    1
    38     4    23    1
    39    23    24    2
    40    23    25    2
