@<TRIPOS>MOLECULE
62428_out_ligand_01.pdbqt
 36 38 0 0 0
SMALL
GASTEIGER

@<TRIPOS>ATOM
      1  C         19.3740  -22.0620   -9.7290 C.2     1  UNL1        0.0360
      2  C         18.9730  -21.6010  -10.9860 C.2     1  UNL1        0.0290
      3  C         19.9000  -21.4600  -12.0270 C.2     1  UNL1        0.0040
      4  C         21.2410  -21.7740  -11.8220 C.2     1  UNL1        0.0250
      5  C         21.6450  -22.2230  -10.5650 C.2     1  UNL1        0.0820
      6  C         20.7220  -22.3810   -9.5250 C.2     1  UNL1        0.0540
      7  N         18.5010  -22.2420   -8.6320 N.am    1  UNL1       -0.3230
      8  C         18.3890  -23.3580   -7.8200 C.2     1  UNL1        0.2620
      9  O         19.0110  -24.4030   -7.9580 O.2     1  UNL1       -0.2670
     10  H         17.8730  -21.4650   -8.4560 H       1  UNL1        0.1690
     11  C         17.4120  -23.2640   -6.7010 C.ar    1  UNL1        0.1150
     12  C         17.7430  -22.5420   -5.5470 C.ar    1  UNL1        0.1760
     13  F         18.9070  -21.8840   -5.4470 F       1  UNL1       -0.2020
     14  C         16.8550  -22.4650   -4.4760 C.ar    1  UNL1        0.1970
     15  F         17.1870  -21.7650   -3.3830 F       1  UNL1       -0.1990
     16  C         15.6270  -23.1040   -4.5390 C.ar    1  UNL1        0.1990
     17  F         14.7730  -23.0280   -3.5090 F       1  UNL1       -0.1990
     18  C         15.2830  -23.8180   -5.6760 C.ar    1  UNL1        0.1970
     19  F         14.0950  -24.4350   -5.7480 F       1  UNL1       -0.1990
     20  C         16.1680  -23.8980   -6.7490 C.ar    1  UNL1        0.1760
     21  F         15.7960  -24.5960   -7.8330 F       1  UNL1       -0.2020
     22  S         23.3490  -22.6280  -10.2890 S.O2    1  UNL1        0.2630
     23  O         24.1170  -21.4030  -10.2400 O.2     1  UNL1       -0.2000
     24  O         23.3980  -23.5840   -9.2030 O.2     1  UNL1       -0.2000
     25  N         23.7540  -23.4870  -11.6890 N.pl3   1  UNL1       -0.2810
     26  H         23.7190  -24.4920  -11.5200 H       1  UNL1        0.1790
     27  C         24.8130  -22.9870  -12.4920 C.2     1  UNL1        0.0430
     28  C         26.0850  -23.5420  -12.3720 C.2     1  UNL1        0.0300
     29  C         27.1210  -23.0880  -13.1860 C.2     1  UNL1        0.0030
     30  C         26.8810  -22.0800  -14.1220 C.2     1  UNL1        0.0160
     31  C         25.6030  -21.5140  -14.2500 C.2     1  UNL1        0.0500
     32  C         24.5660  -21.9840  -13.4300 C.2     1  UNL1        0.0460
     33  C         25.3390  -20.4480  -15.2850 C.3     1  UNL1        0.4170
     34  F         25.3170  -19.1900  -14.7650 F       1  UNL1       -0.1660
     35  F         24.1430  -20.6200  -15.9120 F       1  UNL1       -0.1660
     36  F         26.2780  -20.4250  -16.2700 F       1  UNL1       -0.1660
@<TRIPOS>BOND
     1    36    33    1
     2    35    33    1
     3    33    34    1
     4    33    31    1
     5    31    30    2
     6    31    32    1
     7    30    29    1
     8    32    27    2
     9    29    28    2
    10    27    28    1
    11    27    25    1
    12     3     4    2
    13     3     2    1
    14     4     5    1
    15    25    26    1
    16    25    22    1
    17     2     1    2
    18     5    22    1
    19     5     6    2
    20    22    23    2
    21    22    24    2
    22     1     6    1
    23     1     7    1
    24     7    10    1
    25     7     8   am
    26     9     8    2
    27    21    20    1
    28     8    11    1
    29    20    11   ar
    30    20    18   ar
    31    11    12   ar
    32    19    18    1
    33    18    16   ar
    34    12    13    1
    35    12    14   ar
    36    16    14   ar
    37    16    17    1
    38    14    15    1
