@<TRIPOS>MOLECULE
63111_out_ligand_01.pdbqt
 37 40 0 0 0
SMALL
GASTEIGER

@<TRIPOS>ATOM
      1  C         18.0970  -22.3860   -9.7600 C.2     1  UNL1        0.0770
      2  C         17.6370  -21.5470  -10.7750 C.2     1  UNL1        0.0250
      3  C         18.5360  -21.0920  -11.7430 C.2     1  UNL1        0.0040
      4  C         19.8810  -21.4770  -11.6880 C.2     1  UNL1        0.0290
      5  C         20.3390  -22.3340  -10.6780 C.2     1  UNL1        0.0360
      6  C         19.4330  -22.8000   -9.7190 C.2     1  UNL1        0.0540
      7  N         21.6780  -22.7590  -10.5600 N.am    1  UNL1       -0.3260
      8  C         22.6920  -22.1650   -9.8170 C.2     1  UNL1        0.2420
      9  O         22.6180  -21.1170   -9.1760 O.2     1  UNL1       -0.2710
     10  H         21.9360  -23.5750  -11.0990 H       1  UNL1        0.1690
     11  C         24.0230  -22.9020   -9.9220 C.3     1  UNL1        0.2550
     12  N         24.8270  -22.2510  -10.9440 N.ar    1  UNL1       -0.2450
     13  N         25.4540  -21.0650  -10.5520 N.ar    1  UNL1       -0.2600
     14  C         26.1410  -20.2550  -11.4320 C.ar    1  UNL1        0.2710
     15  H         25.2210  -20.6650   -9.6370 H       1  UNL1        0.1900
     16  O         26.6220  -19.1840  -11.0700 O.2     1  UNL1       -0.2660
     17  C         26.2640  -20.7310  -12.8270 C.ar    1  UNL1        0.0490
     18  C         27.0220  -19.9920  -13.7560 C.2     1  UNL1        0.0180
     19  C         25.6040  -21.8960  -13.2320 C.ar    1  UNL1        0.0490
     20  C         27.1200  -20.4260  -15.0840 C.2     1  UNL1        0.0010
     21  C         26.4580  -21.5880  -15.4920 C.2     1  UNL1        0.0010
     22  C         25.6980  -22.3230  -14.5690 C.2     1  UNL1        0.0180
     23  C         24.7970  -22.6790  -12.2630 C.ar    1  UNL1        0.2730
     24  O         24.1440  -23.6560  -12.6380 O.2     1  UNL1       -0.2660
     25  S         16.9730  -22.9540   -8.5060 S.O2    1  UNL1        0.2460
     26  O         16.2470  -21.8150   -7.9890 O.2     1  UNL1       -0.2060
     27  O         16.2730  -24.1050   -9.0490 O.2     1  UNL1       -0.2060
     28  N         18.0330  -23.5680   -7.3230 N.pl3   1  UNL1       -0.1790
     29  H         17.7210  -24.5220   -7.0960 H       1  UNL1        0.1460
     30  C         18.2280  -22.7550   -6.1580 C.2     1  UNL1        0.0560
     31  C         19.0980  -21.6600   -6.2110 C.2     1  UNL1        0.0270
     32  C         19.2390  -20.8390   -5.0930 C.2     1  UNL1        0.0020
     33  C         18.5080  -21.1110   -3.9310 C.2     1  UNL1        0.0030
     34  C         17.6280  -22.2030   -3.8810 C.2     1  UNL1        0.0380
     35  C         17.4770  -23.0270   -4.9980 C.2     1  UNL1        0.0900
     36  O         16.6650  -24.1310   -5.0540 O.2     1  UNL1       -0.3540
     37  C         15.2930  -23.9100   -4.7380 C.3     1  UNL1        0.2100
@<TRIPOS>BOND
     1    21    20    2
     2    21    22    1
     3    20    18    1
     4    22    19    2
     5    18    17    2
     6    19    17   ar
     7    19    23   ar
     8    17    14   ar
     9    24    23    2
    10    23    12   ar
    11     3     4    2
    12     3     2    1
    13     4     5    1
    14    14    16    2
    15    14    13   ar
    16    10     7    1
    17    12    13   ar
    18    12    11    1
    19     2     1    2
    20     5     7    1
    21     5     6    2
    22     7     8   am
    23    13    15    1
    24    11     8    1
    25     8     9    2
    26     1     6    1
    27     1    25    1
    28    27    25    2
    29    25    26    2
    30    25    28    1
    31    28    29    1
    32    28    30    1
    33    31    30    2
    34    31    32    1
    35    30    35    1
    36    32    33    2
    37    36    35    1
    38    36    37    1
    39    35    34    2
    40    33    34    1
