@<TRIPOS>MOLECULE
63185_out_ligand_01.pdbqt
 34 37 0 0 0
SMALL
GASTEIGER

@<TRIPOS>ATOM
      1  C         23.7310  -21.6130  -10.3020 C.ar    1  UNL1        0.1920
      2  N         24.9840  -21.2100  -10.3320 N.ar    1  UNL1       -0.1230
      3  N         25.3410  -21.0690  -11.6480 N.ar    1  UNL1       -0.1340
      4  C         24.3320  -21.4680  -12.4000 C.ar    1  UNL1        0.1360
      5  N         23.2780  -21.8140  -11.5760 N.ar    1  UNL1       -0.3110
      6  S         22.8020  -21.9340   -8.8810 S.3     1  UNL1       -0.0810
      7  C         22.5090  -23.7160   -9.0650 C.3     1  UNL1        0.1850
      8  C         21.1370  -24.1030   -8.5240 C.2     1  UNL1        0.2310
      9  N         20.5380  -23.0860   -7.7900 N.am    1  UNL1       -0.3260
     10  H         21.1360  -22.3040   -7.5390 H       1  UNL1        0.1690
     11  O         20.6520  -25.2020   -8.7840 O.2     1  UNL1       -0.2720
     12  C         19.2230  -23.0440   -7.2680 C.2     1  UNL1        0.0410
     13  C         18.8970  -22.0370   -6.3310 C.2     1  UNL1       -0.0350
     14  C         17.5910  -21.9650   -5.8200 C.2     1  UNL1        0.0090
     15  C         19.8990  -21.0130   -5.8630 C.3     1  UNL1        0.0500
     16  C         16.6100  -22.8720   -6.2260 C.2     1  UNL1        0.0070
     17  C         16.9220  -23.8710   -7.1530 C.2     1  UNL1       -0.0600
     18  C         15.8930  -24.8570   -7.6150 C.3     1  UNL1        0.0480
     19  C         18.2250  -23.9450   -7.6690 C.2     1  UNL1        0.0370
     20  C         21.9610  -22.2660  -11.9870 C.3     1  UNL1        0.1370
     21  C         20.9930  -21.1080  -12.2190 C.3     1  UNL1        0.0590
     22  C         19.6090  -21.4010  -11.6870 C.2     1  UNL1       -0.0570
     23  C         19.3010  -22.6630  -11.1560 C.2     1  UNL1        0.0070
     24  C         18.0420  -22.9060  -10.6100 C.2     1  UNL1        0.0010
     25  C         17.0710  -21.9040  -10.6060 C.2     1  UNL1        0.0000
     26  C         17.3610  -20.6510  -11.1430 C.2     1  UNL1        0.0010
     27  C         18.6240  -20.3990  -11.6800 C.2     1  UNL1        0.0070
     28  C         24.3040  -21.4700  -13.8960 C.3     1  UNL1        0.1370
     29  C         24.7730  -22.7520  -14.5210 C.2     1  UNL1        0.0180
     30  C         25.0790  -23.9740  -13.9360 C.2     1  UNL1        0.0270
     31  C         25.4750  -24.8670  -14.9600 C.2     1  UNL1        0.0190
     32  C         25.4300  -24.1740  -16.1460 C.2     1  UNL1        0.0900
     33  N         25.0290  -22.8870  -15.8700 N.pl3   1  UNL1       -0.3640
     34  C         24.8400  -21.8620  -16.8830 C.3     1  UNL1        0.1550
@<TRIPOS>BOND
     1    34    33    1
     2    32    33    1
     3    32    31    2
     4    33    29    1
     5    31    30    1
     6    29    30    2
     7    29    28    1
     8    28     4    1
     9     4     3   ar
    10     4     5   ar
    11    21    20    1
    12    21    22    1
    13    20     5    1
    14    22    27    2
    15    22    23    1
    16    27    26    1
    17     3     2   ar
    18     5     1   ar
    19    23    24    2
    20    26    25    2
    21    24    25    1
    22     2     1   ar
    23     1     6    1
    24     7     6    1
    25     7     8    1
    26    11     8    2
    27     8     9   am
    28     9    10    1
    29     9    12    1
    30    19    12    2
    31    19    17    1
    32    18    17    1
    33    12    13    1
    34    17    16    2
    35    13    15    1
    36    13    14    2
    37    16    14    1
