@<TRIPOS>MOLECULE
63375_out_ligand_01.pdbqt
 40 43 0 0 0
SMALL
GASTEIGER

@<TRIPOS>ATOM
      1  C         20.1890  -23.7770   -9.1020 C.ar    1  UNL1        0.1610
      2  N         21.4680  -24.1510   -8.8870 N.ar    1  UNL1       -0.1310
      3  N         22.4960  -23.5810   -9.5830 N.ar    1  UNL1       -0.1470
      4  C         22.2480  -22.6250  -10.5060 C.ar    1  UNL1        0.1000
      5  C         20.9360  -22.2060  -10.8010 C.ar    1  UNL1        0.0090
      6  C         20.6190  -21.2470  -11.7970 C.2     1  UNL1        0.0150
      7  C         19.3050  -20.8440  -12.0390 C.2     1  UNL1        0.0010
      8  C         18.2720  -21.3880  -11.2930 C.2     1  UNL1        0.0010
      9  C         18.5540  -22.3480  -10.3200 C.2     1  UNL1        0.0160
     10  C         19.8780  -22.7890  -10.0640 C.ar    1  UNL1        0.0240
     11  N         19.1370  -24.4130   -8.3860 N.pl3   1  UNL1       -0.3390
     12  H         19.3900  -25.3870   -8.2540 H       1  UNL1        0.1670
     13  C         18.4250  -23.8950   -7.2820 C.2     1  UNL1        0.0340
     14  C         17.1610  -24.4110   -6.9770 C.2     1  UNL1        0.0320
     15  C         16.4000  -23.8920   -5.9230 C.2     1  UNL1        0.0400
     16  C         16.8720  -22.8190   -5.1570 C.2     1  UNL1        0.0840
     17  C         18.1270  -22.2630   -5.4760 C.2     1  UNL1        0.0670
     18  C         18.8800  -22.7990   -6.5400 C.2     1  UNL1        0.0490
     19  O         16.1630  -22.2600   -4.1240 O.2     1  UNL1       -0.3550
     20  C         14.7450  -22.2140   -4.2330 C.3     1  UNL1        0.2100
     21  C         18.7340  -21.0950   -4.7660 C.2     1  UNL1        0.2520
     22  N         18.5670  -21.0010   -3.4140 N.am    1  UNL1       -0.3660
     23  H         18.8740  -20.1480   -2.9700 H       1  UNL1        0.1590
     24  H         17.8890  -21.5870   -2.9440 H       1  UNL1        0.1590
     25  O         19.3710  -20.2330   -5.3630 O.2     1  UNL1       -0.2680
     26  C         23.4650  -22.0890  -11.1380 C.2     1  UNL1       -0.0030
     27  C         24.4880  -21.5370  -10.3540 C.2     1  UNL1        0.0140
     28  C         25.6400  -21.0020  -10.9410 C.2     1  UNL1        0.0090
     29  C         25.8080  -20.9970  -12.3360 C.2     1  UNL1       -0.0390
     30  C         27.0610  -20.3930  -12.9020 C.3     1  UNL1        0.0500
     31  C         24.7820  -21.5450  -13.1280 C.2     1  UNL1        0.0810
     32  C         23.6220  -22.0720  -12.5320 C.2     1  UNL1        0.0390
     33  S         24.8780  -21.5770  -14.9100 S.O2    1  UNL1        0.2420
     34  O         23.6140  -22.0550  -15.4280 O.2     1  UNL1       -0.2060
     35  O         25.4700  -20.3400  -15.3610 O.2     1  UNL1       -0.2060
     36  N         25.9560  -22.8620  -15.1750 N.3     1  UNL1       -0.2120
     37  H         26.9040  -22.4830  -15.1110 H       1  UNL1        0.1400
     38  C         25.7890  -24.0580  -14.3080 C.3     1  UNL1        0.0630
     39  C         25.2500  -25.1900  -15.1800 C.3     1  UNL1        0.0270
     40  C         27.1200  -24.4580  -13.6790 C.3     1  UNL1        0.0270
@<TRIPOS>BOND
     1    34    33    2
     2    35    33    2
     3    39    38    1
     4    36    37    1
     5    36    33    1
     6    36    38    1
     7    33    31    1
     8    38    40    1
     9    31    32    1
    10    31    29    2
    11    30    29    1
    12    32    26    2
    13    29    28    1
    14     7     6    2
    15     7     8    1
    16     6     5    1
    17     8     9    2
    18    26     4    1
    19    26    27    1
    20    28    27    2
    21     5     4   ar
    22     5    10   ar
    23     4     3   ar
    24     9    10    1
    25    10     1   ar
    26     3     2   ar
    27     1     2   ar
    28     1    11    1
    29    11    12    1
    30    11    13    1
    31    13    14    2
    32    13    18    1
    33    14    15    1
    34    18    17    2
    35    15    16    2
    36    17    16    1
    37    17    21    1
    38    25    21    2
    39    16    19    1
    40    21    22   am
    41    20    19    1
    42    22    23    1
    43    22    24    1
