@<TRIPOS>MOLECULE
63409_out_ligand_01.pdbqt
 31 34 0 0 0
SMALL
GASTEIGER

@<TRIPOS>ATOM
      1  C         19.3890  -21.6380  -11.4020 C.2     1  UNL1        0.2230
      2  N         18.7580  -22.5990  -10.7560 N.2     1  UNL1       -0.2030
      3  C         17.5050  -22.0680  -10.5870 C.2     1  UNL1        0.1580
      4  N         17.3390  -20.8380  -11.0820 N.4     1  UNL1       -0.1110
      5  O         18.5910  -20.5460  -11.6270 O.2     1  UNL1       -0.1890
      6  C         20.7550  -21.7430  -11.8080 C.ar    1  UNL1        0.0960
      7  C         21.8390  -22.4060  -11.2510 C.ar    1  UNL1       -0.0150
      8  C         22.9650  -22.1550  -12.1090 C.ar    1  UNL1       -0.0000
      9  C         24.3210  -22.5470  -12.0890 C.2     1  UNL1        0.0210
     10  C         22.5260  -21.3500  -13.1580 C.ar    1  UNL1        0.0430
     11  C         25.1950  -22.1140  -13.1010 C.2     1  UNL1       -0.0610
     12  C         24.7070  -21.3180  -14.1420 C.2     1  UNL1        0.0090
     13  C         26.6290  -22.5550  -13.0920 C.3     1  UNL1        0.0480
     14  C         23.3670  -20.9170  -14.1870 C.2     1  UNL1        0.0310
     15  N         21.1910  -21.1150  -12.9480 N.ar    1  UNL1       -0.3510
     16  H         20.5970  -20.5600  -13.5490 H       1  UNL1        0.1660
     17  C         21.8610  -23.2300  -10.0000 C.3     1  UNL1        0.0370
     18  C         22.9050  -22.7460   -9.0060 C.3     1  UNL1        0.0100
     19  C         16.4200  -22.8050   -9.8970 C.3     1  UNL1        0.1030
     20  C         16.3180  -22.4000   -8.4260 C.3     1  UNL1        0.1330
     21  N         16.3830  -23.5510   -7.5100 N.am    1  UNL1       -0.3520
     22  C         15.4410  -24.6330   -7.7540 C.3     1  UNL1        0.1520
     23  C         17.4930  -23.8440   -6.7100 C.2     1  UNL1        0.2530
     24  O         17.7150  -24.9580   -6.2420 O.2     1  UNL1       -0.2670
     25  C         18.4600  -22.7700   -6.3960 C.2     1  UNL1        0.0320
     26  C         19.6070  -22.5930   -7.1740 C.2     1  UNL1        0.0170
     27  C         20.4970  -21.5620   -6.8670 C.2     1  UNL1        0.0070
     28  C         20.2400  -20.6970   -5.7930 C.2     1  UNL1       -0.0620
     29  C         21.1870  -19.5710   -5.4940 C.3     1  UNL1        0.0480
     30  C         19.0690  -20.8620   -5.0430 C.2     1  UNL1        0.0070
     31  C         18.1760  -21.8930   -5.3460 C.2     1  UNL1        0.0170
@<TRIPOS>BOND
     1    14    12    2
     2    14    10    1
     3    12    11    1
     4    16    15    1
     5    10    15   ar
     6    10     8   ar
     7    11    13    1
     8    11     9    2
     9    15     6   ar
    10     8     9    1
    11     8     7   ar
    12     6     1    1
    13     6     7   ar
    14     5     1    1
    15     5     4    1
    16     1     2    2
    17     7    17    1
    18     4     3    1
    19     2     3    2
    20     3    19    1
    21    17    18    1
    22    19    20    1
    23    20    21    1
    24    22    21    1
    25    21    23   am
    26    26    27    1
    27    26    25    2
    28    27    28    2
    29    23    25    1
    30    23    24    2
    31    25    31    1
    32    28    29    1
    33    28    30    1
    34    31    30    2
