@<TRIPOS>MOLECULE
63491_out_ligand_01.pdbqt
 47 52 0 0 0
SMALL
GASTEIGER

@<TRIPOS>ATOM
      1  C         20.0970  -21.7660  -11.7750 C.2     1  UNL1       -0.0350
      2  C         18.9510  -20.9600  -11.8040 C.2     1  UNL1        0.0120
      3  C         17.8220  -21.3120  -11.0600 C.2     1  UNL1        0.0180
      4  C         17.8370  -22.4730  -10.2740 C.2     1  UNL1        0.0320
      5  C         18.9820  -23.2820  -10.2480 C.2     1  UNL1        0.0180
      6  C         20.1100  -22.9250  -10.9910 C.2     1  UNL1        0.0120
      7  C         21.2630  -21.4190  -12.5930 C.2     1  UNL1        0.0360
      8  C         22.5440  -21.4010  -12.1690 C.2     1  UNL1        0.0740
      9  C         23.5870  -20.9750  -13.1590 C.2     1  UNL1        0.2650
     10  S         23.0160  -21.7050  -10.5470 S.3     1  UNL1       -0.0830
     11  N         24.8880  -21.4680  -13.0340 N.am    1  UNL1       -0.3080
     12  O         23.2550  -20.2280  -14.0870 O.2     1  UNL1       -0.2670
     13  C         25.3000  -22.3830  -12.0040 C.2     1  UNL1        0.0550
     14  C         26.5150  -23.0920  -12.0960 C.2     1  UNL1        0.0310
     15  C         24.5150  -22.5930  -10.8600 C.2     1  UNL1        0.0320
     16  C         26.9210  -23.9890  -11.1020 C.2     1  UNL1        0.0020
     17  C         26.1270  -24.1940   -9.9850 C.2     1  UNL1        0.0020
     18  C         24.9320  -23.4930   -9.8620 C.2     1  UNL1        0.0210
     19  C         25.8480  -21.0510  -14.0700 C.3     1  UNL1        0.1710
     20  C         25.3890  -21.2880  -15.5030 C.2     1  UNL1       -0.0330
     21  C         25.6820  -20.3690  -16.5370 C.2     1  UNL1       -0.0540
     22  C         25.2500  -20.6450  -17.8430 C.2     1  UNL1        0.0080
     23  C         26.4360  -19.0920  -16.2840 C.3     1  UNL1        0.0490
     24  C         24.5650  -21.8230  -18.1390 C.2     1  UNL1        0.0070
     25  C         24.3110  -22.7630  -17.1390 C.2     1  UNL1       -0.0610
     26  C         23.5650  -24.0270  -17.4480 C.3     1  UNL1        0.0480
     27  C         24.7210  -22.4850  -15.8300 C.2     1  UNL1        0.0160
     28  C         16.6430  -22.9120   -9.5040 C.2     1  UNL1        0.2510
     29  O         15.5440  -22.4240   -9.7480 O.2     1  UNL1       -0.2680
     30  N         16.8500  -23.8940   -8.5560 N.am    1  UNL1       -0.3570
     31  H         17.7280  -24.3950   -8.5330 H       1  UNL1        0.1620
     32  C         15.7670  -24.3990   -7.7350 C.3     1  UNL1        0.1240
     33  C         15.3180  -23.4240   -6.6470 C.3     1  UNL1        0.0500
     34  C         14.8670  -24.1040   -5.3470 C.3     1  UNL1        0.2740
     35  N         15.6240  -23.6970   -4.1510 N.3     1  UNL1        0.0880
     36  C         15.5810  -22.2280   -4.0010 C.3     1  UNL1        0.2720
     37  C         16.7350  -21.6810   -3.1560 C.3     1  UNL1        0.0350
     38  C         18.1030  -21.9710   -3.8040 C.3     1  UNL1       -0.0070
     39  C         18.0300  -23.2360   -4.6790 C.3     1  UNL1        0.0350
     40  C         17.0000  -24.2280   -4.1400 C.3     1  UNL1        0.2720
     41  C         18.6060  -20.7490   -4.6020 C.3     1  UNL1        0.0430
     42  C         19.6190  -21.0930   -5.6690 C.2     1  UNL1       -0.0580
     43  C         20.8310  -20.3930   -5.7580 C.2     1  UNL1        0.0070
     44  C         21.7740  -20.7320   -6.7310 C.2     1  UNL1        0.0010
     45  C         21.5150  -21.7730   -7.6240 C.2     1  UNL1        0.0000
     46  C         20.3130  -22.4720   -7.5470 C.2     1  UNL1        0.0010
     47  C         19.3680  -22.1350   -6.5760 C.2     1  UNL1        0.0070
@<TRIPOS>BOND
     1    24    22    2
     2    24    25    1
     3    22    21    1
     4    26    25    1
     5    25    27    2
     6    21    23    1
     7    21    20    2
     8    27    20    1
     9    20    19    1
    10    12     9    2
    11    19    11    1
    12     9    11   am
    13     9     8    1
    14    11    13    1
    15     7     8    2
    16     7     1    1
    17     8    10    1
    18    14    13    2
    19    14    16    1
    20    13    15    1
    21     2     1    2
    22     2     3    1
    23     1     6    1
    24    16    17    2
    25     3     4    2
    26     6     5    2
    27    15    10    1
    28    15    18    2
    29     4     5    1
    30     4    28    1
    31    17    18    1
    32    29    28    2
    33    28    30   am
    34    30    31    1
    35    30    32    1
    36    32    33    1
    37    45    46    2
    38    45    44    1
    39    46    47    1
    40    44    43    2
    41    33    34    1
    42    47    42    2
    43    43    42    1
    44    42    41    1
    45    34    35    1
    46    39    40    1
    47    39    38    1
    48    41    38    1
    49    35    40    1
    50    35    36    1
    51    36    37    1
    52    38    37    1
