@<TRIPOS>MOLECULE
63505_out_ligand_01.pdbqt
 36 38 0 0 0
SMALL
GASTEIGER

@<TRIPOS>ATOM
      1  N         25.5080  -21.1710  -12.7840 N.am    1  UNL1       -0.3080
      2  C         26.2410  -19.9990  -12.5720 C.2     1  UNL1        0.0120
      3  C         26.7580  -19.6690  -11.1970 C.3     1  UNL1        0.0680
      4  C         26.4930  -19.1750  -13.6040 C.2     1  UNL1        0.0330
      5  C         26.0160  -19.4590  -14.9440 C.2     1  UNL1       -0.0340
      6  C         26.3730  -18.4200  -15.9810 C.3     1  UNL1        0.0500
      7  C         25.3150  -20.5860  -15.1780 C.2     1  UNL1        0.1180
      8  C         24.8370  -20.9390  -16.4710 C.1     1  UNL1        0.1050
      9  N         24.4960  -21.1730  -17.5550 N.1     1  UNL1       -0.1910
     10  C         25.0460  -21.5400  -14.0530 C.2     1  UNL1        0.2690
     11  O         24.4760  -22.6090  -14.2630 O.2     1  UNL1       -0.2660
     12  C         25.1630  -22.0650  -11.6590 C.3     1  UNL1        0.2350
     13  C         23.8380  -21.7580  -10.9420 C.2     1  UNL1        0.2400
     14  N         22.7160  -22.2280  -11.5940 N.am    1  UNL1       -0.3260
     15  H         22.8950  -22.7620  -12.4360 H       1  UNL1        0.1690
     16  O         23.8450  -21.1260   -9.8850 O.2     1  UNL1       -0.2710
     17  C         21.3670  -22.0940  -11.2140 C.2     1  UNL1        0.0350
     18  C         20.6500  -21.0380  -11.7980 C.2     1  UNL1        0.0290
     19  C         19.3010  -20.8350  -11.4980 C.2     1  UNL1        0.0030
     20  C         18.6590  -21.6770  -10.5950 C.2     1  UNL1        0.0170
     21  C         19.3690  -22.7280  -10.0010 C.2     1  UNL1        0.0340
     22  C         20.7230  -22.9340  -10.3030 C.2     1  UNL1        0.0460
     23  C         18.7060  -23.6110   -9.0090 C.2     1  UNL1        0.2520
     24  N         17.3600  -23.3980   -8.8410 N.am    1  UNL1       -0.3530
     25  H         16.8720  -22.8200   -9.5060 H       1  UNL1        0.1630
     26  O         19.3500  -24.4580   -8.4050 O.2     1  UNL1       -0.2680
     27  C         16.5740  -24.1970   -7.9300 C.3     1  UNL1        0.1610
     28  C         16.3710  -23.5320   -6.5890 C.2     1  UNL1       -0.0380
     29  C         15.1090  -23.4960   -5.9750 C.2     1  UNL1        0.0090
     30  C         14.9410  -22.8510   -4.7490 C.2     1  UNL1        0.0030
     31  C         16.0330  -22.2300   -4.1360 C.2     1  UNL1        0.0370
     32  C         17.3000  -22.2520   -4.7300 C.2     1  UNL1        0.0690
     33  C         17.4610  -22.9010   -5.9540 C.2     1  UNL1        0.0450
     34  O         18.2710  -21.5920   -4.0260 O.2     1  UNL1       -0.3520
     35  C         18.8370  -20.4000   -4.5770 C.3     1  UNL1        0.1710
     36  C         19.8800  -20.7340   -5.6350 C.3     1  UNL1        0.0340
@<TRIPOS>BOND
     1     9     8    3
     2     8     7    1
     3     6     5    1
     4     7     5    2
     5     7    10    1
     6     5     4    1
     7    11    10    2
     8    10     1   am
     9     4     2    2
    10     1     2    1
    11     1    12    1
    12     2     3    1
    13    15    14    1
    14    18    19    1
    15    18    17    2
    16    12    13    1
    17    14    17    1
    18    14    13   am
    19    19    20    2
    20    17    22    1
    21    13    16    2
    22    20    21    1
    23    22    21    2
    24    21    23    1
    25    25    24    1
    26    23    24   am
    27    23    26    2
    28    24    27    1
    29    27    28    1
    30    28    29    2
    31    28    33    1
    32    29    30    1
    33    33    32    2
    34    36    35    1
    35    30    31    2
    36    32    31    1
    37    32    34    1
    38    35    34    1
