@<TRIPOS>MOLECULE
63546_out_ligand_01.pdbqt
 35 39 0 0 0
SMALL
GASTEIGER

@<TRIPOS>ATOM
      1  C         20.3700  -22.2690  -10.6720 C.2     1  UNL1        0.0320
      2  C         20.1680  -21.3970  -11.7460 C.2     1  UNL1        0.0190
      3  C         21.2000  -21.1670  -12.6640 C.2     1  UNL1        0.0300
      4  C         22.4410  -21.8050  -12.5240 C.2     1  UNL1        0.0360
      5  C         22.6280  -22.6910  -11.4620 C.2     1  UNL1        0.0300
      6  C         21.5970  -22.9260  -10.5440 C.2     1  UNL1        0.0190
      7  N         23.4170  -21.5250  -13.4980 N.am    1  UNL1       -0.3090
      8  C         24.7600  -21.2450  -13.3080 C.2     1  UNL1        0.3270
      9  O         25.2810  -21.0660  -12.2110 O.2     1  UNL1       -0.2460
     10  N         25.4790  -21.1000  -14.5110 N.am    1  UNL1       -0.2990
     11  C         26.8710  -20.6400  -14.4360 C.3     1  UNL1        0.1340
     12  C         25.1060  -21.7070  -15.7450 C.2     1  UNL1        0.0450
     13  C         27.0600  -19.2340  -14.9870 C.3     1  UNL1        0.0210
     14  C         26.9300  -19.1700  -16.5050 C.3     1  UNL1        0.0060
     15  C         25.5320  -19.5200  -17.0040 C.3     1  UNL1        0.0410
     16  C         25.1990  -20.9940  -16.9550 C.2     1  UNL1       -0.0310
     17  C         24.8630  -21.6490  -18.1530 C.2     1  UNL1        0.0090
     18  C         24.4430  -22.9800  -18.1530 C.2     1  UNL1        0.0010
     19  C         24.3460  -23.6760  -16.9550 C.2     1  UNL1        0.0020
     20  C         24.6760  -23.0440  -15.7560 C.2     1  UNL1        0.0300
     21  H         23.0910  -21.4060  -14.4460 H       1  UNL1        0.1700
     22  C         19.3060  -22.5570   -9.6720 C.2     1  UNL1        0.2520
     23  O         18.2350  -21.9630   -9.7270 O.2     1  UNL1       -0.2680
     24  N         19.5970  -23.5170   -8.7280 N.am    1  UNL1       -0.3480
     25  H         20.5040  -23.9560   -8.7080 H       1  UNL1        0.1630
     26  C         18.6890  -23.8070   -7.6270 C.3     1  UNL1        0.1180
     27  C         17.2910  -24.1130   -8.2080 C.3     1  UNL1        0.0300
     28  C         16.1100  -23.9300   -7.2510 C.3     1  UNL1        0.0070
     29  C         16.5120  -23.7330   -5.7960 C.3     1  UNL1        0.0390
     30  C         17.5680  -22.6650   -5.6900 C.2     1  UNL1       -0.0500
     31  C         17.5150  -21.6970   -4.6800 C.2     1  UNL1        0.0070
     32  C         18.6520  -22.6940   -6.5910 C.2     1  UNL1       -0.0290
     33  C         18.5370  -20.7580   -4.5570 C.2     1  UNL1        0.0010
     34  C         19.6260  -20.7960   -5.4230 C.2     1  UNL1        0.0010
     35  C         19.6910  -21.7650   -6.4260 C.2     1  UNL1        0.0100
@<TRIPOS>BOND
     1    18    17    2
     2    18    19    1
     3    17    16    1
     4    15    16    1
     5    15    14    1
     6    19    20    2
     7    16    12    2
     8    14    13    1
     9    20    12    1
    10    12    10    1
    11    13    11    1
    12    10    11    1
    13    10     8   am
    14    21     7    1
    15     7     8   am
    16     7     4    1
    17     8     9    2
    18     3     4    2
    19     3     2    1
    20     4     5    1
    21     2     1    2
    22     5     6    2
    23     1     6    1
    24     1    22    1
    25    23    22    2
    26    22    24   am
    27    24    25    1
    28    24    26    1
    29    27    26    1
    30    27    28    1
    31    26    32    1
    32    28    29    1
    33    32    35    1
    34    32    30    2
    35    35    34    2
    36    29    30    1
    37    30    31    1
    38    34    33    1
    39    31    33    2
