@<TRIPOS>MOLECULE
63806_out_ligand_01.pdbqt
 34 37 0 0 0
SMALL
GASTEIGER

@<TRIPOS>ATOM
      1  C         26.5480  -23.4920  -14.7700 C.3     1  UNL1        0.0100
      2  C         26.6060  -22.0480  -14.2600 C.3     1  UNL1       -0.0140
      3  C         27.1130  -21.9760  -12.8020 C.3     1  UNL1        0.0090
      4  C         26.1500  -22.6160  -11.7900 C.3     1  UNL1        0.0420
      5  C         24.7200  -22.2320  -12.0560 C.ar    1  UNL1       -0.0210
      6  C         24.3300  -21.6800  -13.2610 C.ar    1  UNL1       -0.0070
      7  S         22.6580  -21.3970  -13.3320 S.2     1  UNL1       -0.0750
      8  C         22.4280  -21.9600  -11.7330 C.ar    1  UNL1        0.0980
      9  C         23.5990  -22.4200  -11.1640 C.ar    1  UNL1        0.0850
     10  C         23.7400  -23.0680   -9.8890 C.1     1  UNL1        0.1030
     11  N         23.9690  -23.6410   -8.9060 N.1     1  UNL1       -0.1910
     12  C         25.2390  -21.3430  -14.4040 C.3     1  UNL1        0.0510
     13  N         21.1030  -21.8490  -11.3670 N.am    1  UNL1       -0.3160
     14  C         20.3940  -22.8080  -10.6790 C.2     1  UNL1        0.2560
     15  O         20.8500  -23.8430  -10.2150 O.2     1  UNL1       -0.2670
     16  H         20.7130  -20.9200  -11.4580 H       1  UNL1        0.1690
     17  C         18.9640  -22.4700  -10.4160 C.2     1  UNL1        0.0330
     18  C         18.2650  -21.5480  -11.2100 C.2     1  UNL1        0.0170
     19  C         16.9340  -21.2350  -10.9200 C.2     1  UNL1        0.0030
     20  C         16.2950  -21.8380   -9.8370 C.2     1  UNL1        0.0250
     21  C         16.9900  -22.7620   -9.0510 C.2     1  UNL1        0.0800
     22  C         18.3130  -23.1040   -9.3520 C.2     1  UNL1        0.0420
     23  S         16.1640  -23.5450   -7.6830 S.O2    1  UNL1        0.2630
     24  O         15.5740  -24.7750   -8.1640 O.2     1  UNL1       -0.2000
     25  O         15.3610  -22.5330   -7.0290 O.2     1  UNL1       -0.2000
     26  N         17.4320  -23.8950   -6.6170 N.pl3   1  UNL1       -0.2790
     27  H         17.3140  -24.8220   -6.2040 H       1  UNL1        0.1790
     28  C         17.8840  -22.8690   -5.7260 C.2     1  UNL1        0.0640
     29  C         18.7730  -21.8970   -6.1870 C.2     1  UNL1        0.0320
     30  C         19.1790  -20.8620   -5.3420 C.2     1  UNL1        0.0020
     31  C         18.6980  -20.7940   -4.0350 C.2     1  UNL1        0.0020
     32  C         17.8130  -21.7650   -3.5630 C.2     1  UNL1        0.0260
     33  C         17.4080  -22.8010   -4.4070 C.2     1  UNL1        0.0610
     34 CL         16.2990  -23.9770   -3.7970 Cl      1  UNL1       -0.0820
@<TRIPOS>BOND
     1     1     2    1
     2    12     2    1
     3    12     6    1
     4     2     3    1
     5     7     6   ar
     6     7     8   ar
     7     6     5   ar
     8     3     4    1
     9     5     4    1
    10     5     9   ar
    11     8    13    1
    12     8     9   ar
    13    16    13    1
    14    13    14   am
    15    18    19    1
    16    18    17    2
    17     9    10    1
    18    19    20    2
    19    14    17    1
    20    14    15    2
    21    17    22    1
    22    10    11    3
    23    20    21    1
    24    22    21    2
    25    21    23    1
    26    24    23    2
    27    23    25    2
    28    23    26    1
    29    26    27    1
    30    26    28    1
    31    29    28    2
    32    29    30    1
    33    28    33    1
    34    30    31    2
    35    33    34    1
    36    33    32    2
    37    31    32    1
