@<TRIPOS>MOLECULE
63844_out_ligand_01.pdbqt
 34 38 0 0 0
SMALL
GASTEIGER

@<TRIPOS>ATOM
      1  N         21.8120  -22.1110  -11.2860 N.pl3   1  UNL1       -0.2810
      2  C         23.0150  -22.5330  -11.0270 C.ar    1  UNL1        0.1620
      3  C         23.3740  -23.2950   -9.7830 C.ar    1  UNL1        0.0820
      4  C         22.5250  -23.6150   -8.7870 C.3     1  UNL1        0.0320
      5  C         24.8130  -23.7480   -9.6200 C.ar    1  UNL1        0.2830
      6  O         25.1570  -24.3880   -8.6300 O.2     1  UNL1       -0.2650
      7  N         25.7230  -23.4240  -10.6060 N.ar    1  UNL1       -0.1820
      8  C         25.3160  -22.7610  -11.6280 C.ar    1  UNL1        0.2020
      9  S         26.4030  -22.3160  -12.9150 S.2     1  UNL1       -0.0100
     10  C         25.0280  -21.5430  -13.7180 C.ar    1  UNL1        0.1920
     11  N         23.8890  -21.6120  -13.0880 N.ar    1  UNL1       -0.1380
     12  N         24.0570  -22.3040  -11.9030 N.ar    1  UNL1       -0.1880
     13  H         21.8690  -21.6300  -12.1960 H       1  UNL1        0.1880
     14  C         21.0970  -23.2990   -8.6910 C.2     1  UNL1       -0.0350
     15  C         20.1820  -23.9260   -9.5470 C.2     1  UNL1        0.0140
     16  C         18.8190  -23.6420   -9.4430 C.2     1  UNL1        0.0380
     17  C         18.3810  -22.7460   -8.4720 C.2     1  UNL1        0.0790
     18  C         19.2800  -22.1000   -7.6260 C.2     1  UNL1        0.0380
     19  C         20.6420  -22.3870   -7.7310 C.2     1  UNL1        0.0140
     20  O         17.0150  -22.4420   -8.4320 O.3     1  UNL1       -0.2750
     21  C         16.2180  -23.4390   -7.9100 C.2     1  UNL1        0.3010
     22  O         15.6720  -24.3520   -8.5140 O.2     1  UNL1       -0.2590
     23  C         16.0230  -23.2230   -6.4600 C.2     1  UNL1        0.0780
     24  C         14.9670  -22.3950   -6.0510 C.2     1  UNL1        0.0210
     25  C         14.7390  -22.1620   -4.6920 C.2     1  UNL1        0.0010
     26  C         15.5580  -22.7610   -3.7350 C.2     1  UNL1        0.0030
     27  C         16.6000  -23.5960   -4.1360 C.2     1  UNL1        0.0430
     28  C         16.8270  -23.8270   -5.4920 C.2     1  UNL1        0.1320
     29  F         17.8180  -24.6640   -5.8280 F       1  UNL1       -0.2050
     30  N         25.2140  -20.9210  -14.9250 N.pl3   1  UNL1       -0.3590
     31  C         24.9300  -21.4760  -16.2430 C.3     1  UNL1        0.1250
     32  C         25.0660  -20.2860  -17.1880 C.3     1  UNL1        0.0210
     33  C         26.1160  -19.4270  -16.5060 C.3     1  UNL1        0.0210
     34  C         25.7630  -19.5730  -15.0300 C.3     1  UNL1        0.1250
@<TRIPOS>BOND
     1    32    33    1
     2    32    31    1
     3    33    34    1
     4    31    30    1
     5    34    30    1
     6    30    10    1
     7    10    11   ar
     8    10     9   ar
     9    11    12   ar
    10     9     8   ar
    11    13     1    1
    12    12     8   ar
    13    12     2   ar
    14     8     7   ar
    15     1     2    1
    16     2     3   ar
    17     7     5   ar
    18     3     5   ar
    19     3     4    1
    20     5     6    2
    21    15    16    1
    22    15    14    2
    23    16    17    2
    24     4    14    1
    25    14    19    1
    26    22    21    2
    27    17    20    1
    28    17    18    1
    29    20    21    1
    30    21    23    1
    31    19    18    2
    32    23    24    2
    33    23    28    1
    34    24    25    1
    35    29    28    1
    36    28    27    2
    37    25    26    2
    38    27    26    1
