@<TRIPOS>MOLECULE
63855_out_ligand_01.pdbqt
 37 41 0 0 0
SMALL
GASTEIGER

@<TRIPOS>ATOM
      1  C         24.5360  -22.4030  -10.7810 C.3     1  UNL1        0.0040
      2  C         25.2870  -21.0630  -10.8940 C.3     1  UNL1        0.0120
      3  C         26.4280  -21.0550  -11.9140 C.3     1  UNL1        0.0600
      4  C         25.9520  -20.9100  -13.3390 C.ar    1  UNL1        0.0480
      5  N         26.3260  -19.7370  -13.9500 N.ar    1  UNL1       -0.2340
      6  C         25.9830  -19.5530  -15.1850 C.ar    1  UNL1        0.1410
      7  N         25.2400  -20.4690  -15.8830 N.ar    1  UNL1       -0.3070
      8  C         24.7680  -21.6130  -15.3160 C.ar    1  UNL1        0.2550
      9  O         24.0130  -22.3620  -15.9250 O.2     1  UNL1       -0.2680
     10  C         25.2080  -21.8650  -13.9250 C.ar    1  UNL1        0.0350
     11  C         24.7680  -23.1300  -13.2530 C.3     1  UNL1        0.0470
     12  C         23.8300  -22.8680  -12.0720 C.3     1  UNL1        0.0110
     13  H         24.8970  -20.2790  -16.8120 H       1  UNL1        0.1700
     14  C         23.5380  -22.3570   -9.6030 C.3     1  UNL1        0.1270
     15  N         22.1830  -22.0210  -10.0010 N.am    1  UNL1       -0.3560
     16  C         21.1430  -22.9190   -9.8870 C.2     1  UNL1        0.2550
     17  O         21.3010  -24.0640   -9.4760 O.2     1  UNL1       -0.2680
     18  H         21.9880  -21.0680  -10.2730 H       1  UNL1        0.1620
     19  C         19.8220  -22.4100  -10.2240 C.2     1  UNL1        0.0800
     20  C         19.5310  -21.7820  -11.4220 C.2     1  UNL1        0.1280
     21  N         18.2060  -21.4850  -11.3970 N.pl3   1  UNL1       -0.2880
     22  N         17.6000  -21.8560  -10.2670 N.2     1  UNL1       -0.1740
     23  H         17.6520  -21.0260  -12.1110 H       1  UNL1        0.1880
     24  C         18.5820  -22.3850   -9.5140 C.2     1  UNL1        0.1040
     25  C         18.2820  -22.8170   -8.1520 C.2     1  UNL1       -0.0040
     26  C         17.5460  -23.9870   -7.9210 C.2     1  UNL1        0.0170
     27  C         17.2760  -24.3970   -6.6150 C.2     1  UNL1        0.0430
     28  C         17.7410  -23.6400   -5.5470 C.2     1  UNL1        0.1160
     29  F         17.4770  -24.0300   -4.2950 F       1  UNL1       -0.2060
     30  C         18.4850  -22.4840   -5.7580 C.2     1  UNL1        0.0430
     31  C         18.7600  -22.0740   -7.0620 C.2     1  UNL1        0.0170
     32  C         26.3510  -18.3050  -15.9030 C.2     1  UNL1        0.0100
     33  C         26.2730  -18.2100  -17.3000 C.2     1  UNL1        0.0150
     34  C         26.6060  -17.0110  -17.9380 C.2     1  UNL1        0.0010
     35  C         27.0240  -15.9120  -17.1850 C.2     1  UNL1        0.0000
     36  C         27.1200  -16.0100  -15.7970 C.2     1  UNL1        0.0010
     37  C         26.7910  -17.2040  -15.1560 C.2     1  UNL1        0.0150
@<TRIPOS>BOND
     1    34    33    1
     2    34    35    2
     3    33    32    2
     4    35    36    1
     5    13     7    1
     6     9     8    2
     7    32     6    1
     8    32    37    1
     9     7     8   ar
    10     7     6   ar
    11    36    37    2
    12     8    10   ar
    13     6     5   ar
    14     5     4   ar
    15    10     4   ar
    16    10    11    1
    17     4     3    1
    18    11    12    1
    19    23    21    1
    20    12     1    1
    21     3     2    1
    22    20    21    1
    23    20    19    2
    24    21    22    1
    25     2     1    1
    26     1    14    1
    27    18    15    1
    28    22    24    2
    29    19    16    1
    30    19    24    1
    31    15    16   am
    32    15    14    1
    33    16    17    2
    34    24    25    1
    35    25    26    2
    36    25    31    1
    37    26    27    1
    38    31    30    2
    39    27    28    2
    40    30    28    1
    41    28    29    1
