@<TRIPOS>MOLECULE
64100_out_ligand_01.pdbqt
 40 43 0 0 0
SMALL
GASTEIGER

@<TRIPOS>ATOM
      1  C         21.7610  -21.2080  -12.8340 C.2     1  UNL1        0.0300
      2  C         20.3690  -21.1660  -12.6590 C.2     1  UNL1        0.0460
      3  C         19.7610  -21.5640  -11.4560 C.2     1  UNL1        0.0350
      4  C         20.5440  -22.0790  -10.4230 C.2     1  UNL1        0.0420
      5  C         21.9250  -22.1680  -10.6070 C.2     1  UNL1        0.0830
      6  C         22.5310  -21.7210  -11.7880 C.2     1  UNL1        0.0540
      7  N         22.2840  -20.8790  -14.0830 N.pl3   1  UNL1       -0.3860
      8  H         21.7310  -20.1810  -14.5760 H       1  UNL1        0.1600
      9  C         23.7160  -20.6930  -14.2640 C.3     1  UNL1        0.1580
     10  C         24.3560  -22.0350  -14.5380 C.2     1  UNL1       -0.0380
     11  C         25.1040  -22.6930  -13.5430 C.2     1  UNL1        0.0480
     12  C         25.7080  -23.9270  -13.8060 C.2     1  UNL1        0.1070
     13  C         25.5560  -24.4920  -15.0780 C.2     1  UNL1        0.1490
     14  C         24.8310  -23.8490  -16.0750 C.2     1  UNL1        0.0460
     15  F         26.1240  -25.6750  -15.3610 F       1  UNL1       -0.2030
     16  C         24.2330  -22.6210  -15.8080 C.2     1  UNL1        0.0120
     17  O         26.4540  -24.6540  -12.9180 O.2     1  UNL1       -0.3530
     18  C         26.8350  -24.0120  -11.7080 C.3     1  UNL1        0.2100
     19  C         18.2790  -21.4530  -11.3440 C.2     1  UNL1        0.2520
     20  O         17.6760  -20.6000  -11.9860 O.2     1  UNL1       -0.2680
     21  N         17.6600  -22.3270  -10.4750 N.am    1  UNL1       -0.3530
     22  H         18.2180  -22.8430   -9.8100 H       1  UNL1        0.1630
     23  C         16.2480  -22.2100  -10.1770 C.3     1  UNL1        0.1620
     24  C         15.9400  -22.7940   -8.8310 C.2     1  UNL1       -0.0230
     25  C         16.0120  -24.1720   -8.5920 C.2     1  UNL1        0.0120
     26  C         15.7400  -24.6670   -7.3200 C.2     1  UNL1        0.0200
     27  C         15.4200  -23.7630   -6.3190 C.2     1  UNL1        0.1160
     28  N         15.3490  -22.4270   -6.5070 N.2     1  UNL1       -0.2730
     29  C         15.6110  -21.9730   -7.7550 C.2     1  UNL1        0.1240
     30  S         22.9380  -22.8390   -9.3070 S.O2    1  UNL1        0.2630
     31  O         22.4680  -24.1770   -9.0240 O.2     1  UNL1       -0.2000
     32  O         24.3180  -22.5920   -9.6750 O.2     1  UNL1       -0.2000
     33  N         22.6110  -21.8210   -8.0010 N.pl3   1  UNL1       -0.2810
     34  H         23.0290  -20.8980   -8.1120 H       1  UNL1        0.1790
     35  C         21.3450  -21.9020   -7.3580 C.2     1  UNL1        0.0420
     36  C         20.4500  -22.9210   -7.6840 C.2     1  UNL1        0.0300
     37  C         19.1890  -22.9590   -7.0870 C.2     1  UNL1        0.0020
     38  C         18.8220  -21.9730   -6.1730 C.2     1  UNL1        0.0000
     39  C         19.7160  -20.9530   -5.8470 C.2     1  UNL1        0.0020
     40  C         20.9810  -20.9180   -6.4390 C.2     1  UNL1        0.0300
@<TRIPOS>BOND
     1    14    16    1
     2    14    13    2
     3    16    10    2
     4    15    13    1
     5    13    12    1
     6     8     7    1
     7    10     9    1
     8    10    11    1
     9     9     7    1
    10     7     1    1
    11    12    11    2
    12    12    17    1
    13    17    18    1
    14     1     2    2
    15     1     6    1
    16     2     3    1
    17    20    19    2
    18     6     5    2
    19     3    19    1
    20     3     4    2
    21    19    21   am
    22     5     4    1
    23     5    30    1
    24    21    23    1
    25    21    22    1
    26    23    24    1
    27    32    30    2
    28    30    31    2
    29    30    33    1
    30    24    25    2
    31    24    29    1
    32    25    26    1
    33    34    33    1
    34    33    35    1
    35    29    28    2
    36    36    35    2
    37    36    37    1
    38    35    40    1
    39    26    27    2
    40    37    38    2
    41    28    27    1
    42    40    39    2
    43    38    39    1
