@<TRIPOS>MOLECULE
64220_out_ligand_01.pdbqt
 38 43 0 0 0
SMALL
GASTEIGER

@<TRIPOS>ATOM
      1  C         22.0200  -21.5320  -11.1650 C.2     1  UNL1        0.0760
      2  C         21.0360  -20.9760  -12.0050 C.2     1  UNL1        0.1590
      3  N         19.7970  -21.1640  -11.5610 N.2     1  UNL1       -0.1640
      4  N         19.9490  -21.9030  -10.4130 N.pl3   1  UNL1       -0.0630
      5  C         21.2960  -22.0830  -10.1220 C.2     1  UNL1        0.0760
      6  C         23.4550  -21.5440  -11.3620 C.2     1  UNL1        0.2560
      7  O         24.2600  -21.2340  -10.4910 O.2     1  UNL1       -0.2680
      8  N         23.8460  -21.9550  -12.6140 N.am    1  UNL1       -0.3400
      9  H         23.1470  -21.9740  -13.3470 H       1  UNL1        0.1630
     10  C         25.2590  -21.8580  -13.0240 C.3     1  UNL1        0.2270
     11  C         25.6470  -23.1770  -13.6760 C.2     1  UNL1       -0.0090
     12  C         25.0040  -23.5800  -14.8600 C.2     1  UNL1        0.0120
     13  C         25.3630  -24.7730  -15.4860 C.2     1  UNL1        0.0200
     14  C         26.3640  -25.5350  -14.9100 C.2     1  UNL1        0.1160
     15  N         27.0070  -25.1880  -13.7730 N.2     1  UNL1       -0.2720
     16  C         26.6390  -24.0250  -13.1850 C.2     1  UNL1        0.1250
     17  C         25.5700  -20.5810  -13.8570 C.3     1  UNL1        0.4110
     18  F         25.8580  -19.5310  -13.0470 F       1  UNL1       -0.1680
     19  F         24.5150  -20.2180  -14.6250 F       1  UNL1       -0.1680
     20  F         26.6270  -20.7450  -14.6830 F       1  UNL1       -0.1680
     21  C         21.9040  -22.7960   -8.8750 C.3     1  UNL1        0.0390
     22  C         21.6140  -24.2570   -8.6280 C.3     1  UNL1        0.0110
     23  C         22.9770  -23.8360   -9.0780 C.3     1  UNL1        0.0110
     24  C         18.8000  -22.3700   -9.6790 C.cat   1  UNL1        0.7500
     25  N         17.8150  -23.0000  -10.3340 N.2     1  UNL1       -0.0730
     26  C         16.7900  -23.4290   -9.5780 C.2     1  UNL1        0.1460
     27  C         16.6760  -23.2670   -8.1990 C.2     1  UNL1       -0.0100
     28  C         17.7280  -22.5880   -7.5990 C.2     1  UNL1        0.0940
     29  C         15.4520  -23.8740   -7.5740 C.3     1  UNL1        0.0430
     30  N         18.7750  -22.1520   -8.3480 N.2     1  UNL1       -0.0600
     31  C         17.9030  -22.2510   -6.1550 C.2     1  UNL1        0.0000
     32  C         18.7210  -21.1410   -5.8160 C.2     1  UNL1        0.0140
     33  C         17.3540  -22.9740   -5.0750 C.2     1  UNL1       -0.0460
     34  C         19.0060  -20.7790   -4.4950 C.2     1  UNL1        0.0010
     35  C         18.4750  -21.5230   -3.4550 C.2     1  UNL1        0.0010
     36  C         17.6550  -22.6090   -3.7420 C.2     1  UNL1        0.0080
     37  C         16.4310  -24.1490   -5.2720 C.3     1  UNL1        0.0400
     38  C         15.2170  -23.7220   -6.0830 C.3     1  UNL1        0.0090
@<TRIPOS>BOND
     1    13    14    2
     2    13    12    1
     3    14    15    1
     4    12    11    2
     5    20    17    1
     6    19    17    1
     7    17    18    1
     8    17    10    1
     9    15    16    2
    10    11    16    1
    11    11    10    1
    12     9     8    1
    13    10     8    1
    14     8     6   am
    15     2     3    2
    16     2     1    1
    17     3     4    1
    18     6     1    1
    19     6     7    2
    20     1     5    2
    21     4     5    1
    22     4    24    1
    23    25    24    2
    24    25    26    1
    25     5    21    1
    26    24    30    1
    27    26    27    2
    28    23    21    1
    29    23    22    1
    30    21    22    1
    31    30    28    2
    32    27    28    1
    33    27    29    1
    34    28    31    1
    35    29    38    1
    36    31    32    2
    37    31    33    1
    38    38    37    1
    39    32    34    1
    40    37    33    1
    41    33    36    2
    42    34    35    2
    43    36    35    1
