@<TRIPOS>MOLECULE
6448_out_ligand_01.pdbqt
 33 36 0 0 0
SMALL
GASTEIGER

@<TRIPOS>ATOM
      1  C         23.4420  -22.7890  -10.4280 C.2     1  UNL1        0.1480
      2  C         23.0440  -23.2620   -9.1610 C.2     1  UNL1        0.0910
      3  C         21.7030  -22.9880   -9.0660 C.2     1  UNL1        0.1540
      4  N         20.8060  -23.2300   -8.0680 N.2     1  UNL1       -0.2290
      5  C         19.5750  -22.8500   -8.2680 C.2     1  UNL1        0.0710
      6  C         19.1100  -22.1440   -9.5060 C.2     1  UNL1        0.0690
      7  C         20.0340  -21.9360  -10.4640 C.2     1  UNL1        0.1460
      8  N         21.3420  -22.3600  -10.2610 N.pl3   1  UNL1       -0.2100
      9  N         22.4060  -22.2450  -11.0980 N.2     1  UNL1       -0.1600
     10  C         24.7920  -22.8600  -11.0090 C.2     1  UNL1        0.2720
     11  N         24.8840  -22.2520  -12.2410 N.am    1  UNL1       -0.3510
     12  H         24.0040  -21.9400  -12.6390 H       1  UNL1        0.1630
     13  O         25.7290  -23.4150  -10.4480 O.2     1  UNL1       -0.2660
     14  C         26.0320  -22.4080  -13.0900 C.3     1  UNL1        0.1640
     15  C         25.5860  -23.0210  -14.3650 C.2     1  UNL1       -0.0040
     16  C         25.1360  -22.3960  -15.5110 C.2     1  UNL1        0.1220
     17  N         24.8350  -23.3900  -16.3990 N.pl3   1  UNL1       -0.2810
     18  N         25.0620  -24.6240  -15.9140 N.2     1  UNL1       -0.1850
     19  C         25.5120  -24.3990  -14.6770 C.2     1  UNL1        0.1490
     20  C         24.3070  -23.2240  -17.7400 C.3     1  UNL1        0.1460
     21  C         22.9320  -23.8510  -17.8920 C.3     1  UNL1        0.0280
     22  C         19.7510  -21.2560  -11.7470 C.3     1  UNL1        0.4340
     23  F         18.4290  -21.3360  -12.0720 F       1  UNL1       -0.1650
     24  F         20.4210  -21.8020  -12.7930 F       1  UNL1       -0.1650
     25  F         20.0450  -19.9310  -11.7190 F       1  UNL1       -0.1650
     26  C         18.5560  -23.1020   -7.2070 C.2     1  UNL1       -0.0070
     27  C         17.5480  -24.0370   -7.4630 C.2     1  UNL1        0.0140
     28  C         16.5700  -24.2970   -6.5010 C.2     1  UNL1        0.0080
     29  C         16.5720  -23.6220   -5.2730 C.2     1  UNL1       -0.0560
     30  C         15.5010  -23.9310   -4.2640 C.3     1  UNL1        0.0490
     31  C         17.5840  -22.6750   -5.0060 C.2     1  UNL1       -0.0550
     32  C         17.6190  -21.9110   -3.7090 C.3     1  UNL1        0.0490
     33  C         18.5620  -22.4160   -5.9840 C.2     1  UNL1        0.0210
@<TRIPOS>BOND
     1    21    20    1
     2    20    17    1
     3    17    18    1
     4    17    16    1
     5    18    19    2
     6    16    15    2
     7    19    15    1
     8    15    14    1
     9    14    11    1
    10    24    22    1
    11    12    11    1
    12    11    10   am
    13    23    22    1
    14    22    25    1
    15    22     7    1
    16     9     1    2
    17     9     8    1
    18    10    13    2
    19    10     1    1
    20     7     8    1
    21     7     6    2
    22     1     2    1
    23     8     3    1
    24     6     5    1
    25     2     3    2
    26     3     4    1
    27     5     4    2
    28     5    26    1
    29    27    26    2
    30    27    28    1
    31    26    33    1
    32    28    29    2
    33    33    31    2
    34    29    31    1
    35    29    30    1
    36    31    32    1
