@<TRIPOS>MOLECULE
64727_out_ligand_01.pdbqt
 32 37 0 0 0
SMALL
GASTEIGER

@<TRIPOS>ATOM
      1  C         19.5440  -22.6450   -8.8000 C.ar    1  UNL1        0.0750
      2  N         20.8500  -22.9990   -8.8580 N.ar    1  UNL1       -0.2390
      3  C         21.5100  -22.6310   -9.9770 C.ar    1  UNL1        0.1120
      4  S         23.1600  -22.9970  -10.1530 S.2     1  UNL1       -0.0640
      5  C         23.2360  -22.2500  -11.7000 C.ar    1  UNL1        0.0770
      6  C         24.3290  -22.1200  -12.5690 C.2     1  UNL1        0.1240
      7  N         24.1190  -21.4850  -13.7410 N.2     1  UNL1       -0.2290
      8  C         22.8960  -21.0100  -14.0140 C.2     1  UNL1        0.2350
      9  N         21.8040  -21.0930  -13.2520 N.2     1  UNL1       -0.2400
     10  C         21.9990  -21.7320  -12.0690 C.ar    1  UNL1        0.0920
     11  C         20.9900  -21.9520  -11.0720 C.ar    1  UNL1        0.0370
     12  C         19.6280  -21.6300  -10.9910 C.ar    1  UNL1       -0.0340
     13  C         18.9100  -21.9850   -9.8410 C.ar    1  UNL1       -0.0210
     14  C         17.4830  -21.5390   -9.9610 C.3     1  UNL1        0.0420
     15  C         17.3550  -21.3180  -11.4740 C.3     1  UNL1        0.0090
     16  C         18.7440  -20.9020  -11.9670 C.3     1  UNL1        0.0400
     17  N         25.5930  -22.6070  -12.2430 N.pl3   1  UNL1       -0.2740
     18  H         25.7060  -22.7370  -11.2420 H       1  UNL1        0.1290
     19  C         26.0980  -23.6940  -13.0800 C.3     1  UNL1        0.1240
     20  C         26.9900  -23.1610  -14.2290 C.3     1  UNL1        0.2870
     21  N         26.5050  -23.4330  -15.5960 N.3     1  UNL1        0.0930
     22  C         25.0970  -23.8880  -15.6230 C.3     1  UNL1        0.2980
     23  C         24.4550  -23.6680  -17.0000 C.3     1  UNL1        0.1980
     24  O         24.3750  -22.2800  -17.3610 O.3     1  UNL1       -0.3880
     25  C         25.4090  -21.4860  -16.7660 C.3     1  UNL1        0.1980
     26  C         26.6990  -22.2770  -16.4960 C.3     1  UNL1        0.2980
     27  C         18.8570  -23.0370   -7.5570 C.2     1  UNL1       -0.0070
     28  C         18.2090  -24.2770   -7.4280 C.2     1  UNL1        0.0140
     29  C         17.5650  -24.6350   -6.2410 C.2     1  UNL1        0.0010
     30  C         17.5500  -23.7540   -5.1610 C.2     1  UNL1        0.0000
     31  C         18.1730  -22.5140   -5.2710 C.2     1  UNL1        0.0010
     32  C         18.8170  -22.1580   -6.4600 C.2     1  UNL1        0.0140
@<TRIPOS>BOND
     1    24    23    1
     2    24    25    1
     3    23    22    1
     4    25    26    1
     5    26    21    1
     6    22    21    1
     7    21    20    1
     8    20    19    1
     9     8     7    2
    10     8     9    1
    11     7     6    1
    12     9    10    2
    13    19    17    1
    14     6    17    1
    15     6     5    2
    16    17    18    1
    17    10     5   ar
    18    10    11   ar
    19    16    15    1
    20    16    12    1
    21     5     4   ar
    22    15    14    1
    23    11    12   ar
    24    11     3   ar
    25    12    13   ar
    26     4     3   ar
    27     3     2   ar
    28    14    13    1
    29    13     1   ar
    30     2     1   ar
    31     1    27    1
    32    27    28    2
    33    27    32    1
    34    28    29    1
    35    32    31    2
    36    29    30    2
    37    31    30    1
