@<TRIPOS>MOLECULE
64774_out_ligand_01.pdbqt
 30 33 0 0 0
SMALL
GASTEIGER

@<TRIPOS>ATOM
      1  C         19.2340  -23.6090   -9.2740 C.2     1  UNL1       -0.0340
      2  C         20.3980  -24.3430   -9.0140 C.2     1  UNL1        0.0140
      3  C         21.5850  -24.0390   -9.6820 C.2     1  UNL1        0.0400
      4  C         21.6130  -22.9920  -10.6040 C.2     1  UNL1        0.1070
      5  C         20.4520  -22.2630  -10.8760 C.2     1  UNL1        0.0460
      6 BR         20.4460  -20.8570  -12.1470 Br      1  UNL1       -0.0480
      7  C         19.2660  -22.5630  -10.2040 C.2     1  UNL1        0.0330
      8  C         17.9980  -23.9320   -8.5570 C.3     1  UNL1        0.0320
      9  C         17.6420  -23.5480   -7.3140 C.ar    1  UNL1        0.0820
     10  C         18.4610  -22.6760   -6.4040 C.ar    1  UNL1        0.1620
     11  C         16.2980  -24.0400   -6.8090 C.ar    1  UNL1        0.2830
     12  N         19.6140  -22.1750   -6.7420 N.pl3   1  UNL1       -0.2810
     13  N         17.9050  -22.4280   -5.1640 N.ar    1  UNL1       -0.1900
     14  H         19.9400  -21.6270   -5.9310 H       1  UNL1        0.1880
     15  N         18.5360  -21.6490   -4.2050 N.2     1  UNL1       -0.1690
     16  C         16.6830  -22.9510   -4.8270 C.ar    1  UNL1        0.2000
     17  C         17.7800  -21.5960   -3.1540 C.2     1  UNL1        0.1920
     18  S         16.2550  -22.4650   -3.2040 S.3     1  UNL1       -0.0410
     19  N         15.9070  -23.6910   -5.5320 N.ar    1  UNL1       -0.1820
     20  O         15.5810  -24.7330   -7.5230 O.2     1  UNL1       -0.2650
     21  O         22.7700  -22.7130  -11.2820 O.2     1  UNL1       -0.2280
     22  S         24.0380  -22.1350  -10.4280 S.3     1  UNL1        0.3030
     23  O         24.8230  -23.2590   -9.9500 O.3     1  UNL1       -0.1930
     24  O         23.5840  -21.1050   -9.5120 O.3     1  UNL1       -0.1930
     25  C         25.0000  -21.3140  -11.6830 C.2     1  UNL1        0.0860
     26  C         26.1150  -20.5510  -11.3250 C.2     1  UNL1        0.0260
     27  C         26.8540  -19.9100  -12.3200 C.2     1  UNL1        0.0020
     28  C         26.4740  -20.0270  -13.6590 C.2     1  UNL1        0.0000
     29  C         25.3520  -20.7820  -14.0090 C.2     1  UNL1        0.0020
     30  C         24.6090  -21.4260  -13.0210 C.2     1  UNL1        0.0260
@<TRIPOS>BOND
     1    29    28    2
     2    29    30    1
     3    28    27    1
     4    30    25    2
     5    27    26    2
     6     6     5    1
     7    25    26    1
     8    25    22    1
     9    21     4    1
    10    21    22    1
    11     5     4    2
    12     5     7    1
    13     4     3    1
    14    22    23    1
    15    22    24    1
    16     7     1    2
    17     3     2    2
    18     1     2    1
    19     1     8    1
    20     8     9    1
    21    20    11    2
    22     9    11   ar
    23     9    10   ar
    24    11    19   ar
    25    12    10    1
    26    12    14    1
    27    10    13   ar
    28    19    16   ar
    29    13    16   ar
    30    13    15    1
    31    16    18    1
    32    15    17    2
    33    18    17    1
