@<TRIPOS>MOLECULE
64797_out_ligand_01.pdbqt
 32 35 0 0 0
SMALL
GASTEIGER

@<TRIPOS>ATOM
      1  C         18.7960  -22.9540   -9.5810 C.2     1  UNL1        0.1040
      2  C         20.1230  -23.1550   -9.9670 C.2     1  UNL1        0.0510
      3  C         21.1620  -22.8430   -9.0820 C.2     1  UNL1       -0.0310
      4  C         20.8680  -22.3170   -7.8160 C.2     1  UNL1        0.0330
      5  C         19.5410  -22.0890   -7.4430 C.2     1  UNL1        0.0480
      6 BR         19.1940  -21.3260   -5.7430 Br      1  UNL1       -0.0480
      7  C         18.5070  -22.4150   -8.3240 C.2     1  UNL1        0.1300
      8  C         22.5510  -23.0770   -9.4860 C.3     1  UNL1        0.0320
      9  C         23.1500  -22.6910  -10.6310 C.ar    1  UNL1        0.0820
     10  C         22.4910  -21.9290  -11.7450 C.ar    1  UNL1        0.1620
     11  C         24.6090  -23.0750  -10.7970 C.ar    1  UNL1        0.2830
     12  N         21.2490  -21.5460  -11.7070 N.pl3   1  UNL1       -0.2810
     13  N         23.2980  -21.6530  -12.8310 N.ar    1  UNL1       -0.1900
     14  H         21.0690  -21.0530  -12.5950 H       1  UNL1        0.1880
     15  N         22.8420  -20.9580  -13.9420 N.2     1  UNL1       -0.1690
     16  C         24.6050  -22.0630  -12.8550 C.ar    1  UNL1        0.2000
     17  C         23.8160  -20.8540  -14.7920 C.2     1  UNL1        0.1920
     18  S         25.3570  -21.5700  -14.3530 S.3     1  UNL1       -0.0410
     19  N         25.2570  -22.7140  -11.9600 N.ar    1  UNL1       -0.1820
     20  O         25.1950  -23.6930   -9.9120 O.2     1  UNL1       -0.2650
     21  O         17.7840  -23.2110  -10.4650 O.2     1  UNL1       -0.3490
     22  C         17.8820  -22.3830  -11.6320 C.3     1  UNL1        0.1710
     23  C         17.3310  -21.0110  -11.2890 C.3     1  UNL1        0.0340
     24  O         17.1790  -22.1510   -7.9790 O.3     1  UNL1       -0.2710
     25  C         16.5180  -23.2780   -7.5340 C.2     1  UNL1        0.2980
     26  O         16.1440  -24.2290   -8.2070 O.2     1  UNL1       -0.2590
     27  C         16.3010  -23.1870   -6.0640 C.2     1  UNL1        0.0390
     28  C         17.1010  -23.8710   -5.1360 C.2     1  UNL1        0.0170
     29  C         16.8510  -23.7480   -3.7680 C.2     1  UNL1        0.0010
     30  C         15.8040  -22.9440   -3.3170 C.2     1  UNL1        0.0000
     31  C         15.0050  -22.2610   -4.2320 C.2     1  UNL1        0.0010
     32  C         15.2520  -22.3810   -5.6010 C.2     1  UNL1        0.0170
@<TRIPOS>BOND
     1    17    18    1
     2    17    15    2
     3    18    16    1
     4    15    13    1
     5    16    13   ar
     6    16    19   ar
     7    13    10   ar
     8    14    12    1
     9    19    11   ar
    10    10    12    1
    11    10     9   ar
    12    22    23    1
    13    22    21    1
    14    11     9   ar
    15    11    20    2
    16     9     8    1
    17    21     1    1
    18     2     1    2
    19     2     3    1
    20     1     7    1
    21     8     3    1
    22     3     4    2
    23     7    24    1
    24     7     5    2
    25    26    25    2
    26    24    25    1
    27     4     5    1
    28    25    27    1
    29     5     6    1
    30    27    32    2
    31    27    28    1
    32    32    31    1
    33    28    29    2
    34    31    30    2
    35    29    30    1
