@<TRIPOS>MOLECULE
64850_out_ligand_01.pdbqt
 34 36 0 0 0
SMALL
GASTEIGER

@<TRIPOS>ATOM
      1  C         16.2580  -23.1310   -9.6840 C.3     1  UNL1        0.2780
      2  C         16.5770  -23.3970   -8.2030 C.2     1  UNL1        0.2460
      3  N         16.7150  -22.2250   -7.4610 N.am    1  UNL1       -0.3240
      4  H         16.1660  -21.4500   -7.8040 H       1  UNL1        0.1690
      5  O         16.6780  -24.5370   -7.7620 O.2     1  UNL1       -0.2710
      6  C         17.0010  -22.2010   -6.0720 C.2     1  UNL1        0.0480
      7  C         15.9310  -22.4630   -5.1670 C.2     1  UNL1       -0.0270
      8  C         16.1890  -22.4020   -3.7850 C.2     1  UNL1        0.0100
      9  C         17.4640  -22.1280   -3.3030 C.2     1  UNL1        0.0010
     10  C         18.4990  -21.8590   -4.1880 C.2     1  UNL1        0.0100
     11  C         18.2890  -21.8530   -5.5800 C.2     1  UNL1       -0.0270
     12  C         14.5160  -22.8180   -5.6430 C.3     1  UNL1        0.0130
     13  C         13.9350  -24.1140   -5.0490 C.3     1  UNL1        0.0150
     14  C         13.5620  -21.6460   -5.3780 C.3     1  UNL1        0.0150
     15  C         19.4390  -21.3640   -6.4630 C.3     1  UNL1        0.0130
     16  C         20.4270  -20.4870   -5.6770 C.3     1  UNL1        0.0150
     17  C         20.1840  -22.5200   -7.1390 C.3     1  UNL1        0.0150
     18  O         16.6550  -21.8570  -10.1810 O.2     1  UNL1       -0.3420
     19  C         17.9370  -21.8190  -10.6580 C.2     1  UNL1        0.0690
     20  C         18.8970  -22.7800  -10.3500 C.2     1  UNL1        0.0380
     21  C         20.1810  -22.6840  -10.9030 C.2     1  UNL1        0.0200
     22  C         20.4910  -21.6420  -11.7870 C.2     1  UNL1        0.0320
     23  C         19.5180  -20.6850  -12.0990 C.2     1  UNL1        0.0200
     24  C         18.2400  -20.7810  -11.5410 C.2     1  UNL1        0.0380
     25  C         21.8540  -21.6010  -12.3860 C.2     1  UNL1        0.2520
     26  O         22.0460  -21.0060  -13.4400 O.2     1  UNL1       -0.2680
     27  N         22.8450  -22.2180  -11.6510 N.am    1  UNL1       -0.3520
     28  H         22.6350  -22.4700  -10.6940 H       1  UNL1        0.1630
     29  C         24.2500  -22.0910  -12.0140 C.3     1  UNL1        0.0840
     30  C         25.0640  -21.5160  -10.8440 C.3     1  UNL1        0.0250
     31  C         26.5580  -21.4820  -11.1530 C.3     1  UNL1        0.0020
     32  C         27.0770  -22.8550  -11.5630 C.3     1  UNL1        0.0000
     33  C         26.2890  -23.4200  -12.7440 C.3     1  UNL1        0.0020
     34  C         24.7940  -23.4600  -12.4480 C.3     1  UNL1        0.0250
@<TRIPOS>BOND
     1    26    25    2
     2    33    34    1
     3    33    32    1
     4    34    29    1
     5    25    22    1
     6    25    27   am
     7    23    22    2
     8    23    24    1
     9    29    27    1
    10    29    30    1
    11    22    21    1
    12    27    28    1
    13    32    31    1
    14    24    19    2
    15    31    30    1
    16    21    20    2
    17    19    20    1
    18    19    18    1
    19    18     1    1
    20     1     2    1
    21     2     5    2
    22     2     3   am
    23     4     3    1
    24     3     6    1
    25    17    15    1
    26    15    16    1
    27    15    11    1
    28     6    11    2
    29     6     7    1
    30    12    14    1
    31    12     7    1
    32    12    13    1
    33    11    10    1
    34     7     8    2
    35    10     9    2
    36     8     9    1
