@<TRIPOS>MOLECULE
65271_out_ligand_01.pdbqt
 35 38 0 0 0
SMALL
GASTEIGER

@<TRIPOS>ATOM
      1  S         22.7060  -21.9110   -9.1050 S.3     1  UNL1       -0.0820
      2  C         22.3730  -23.6850   -8.8600 C.3     1  UNL1        0.1850
      3  C         20.9430  -24.0000   -8.4260 C.2     1  UNL1        0.2310
      4  N         20.3150  -22.9680   -7.7510 N.am    1  UNL1       -0.3270
      5  H         20.8310  -22.0950   -7.7270 H       1  UNL1        0.1690
      6  O         20.4760  -25.1240   -8.6150 O.2     1  UNL1       -0.2720
      7  C         19.0210  -22.9480   -7.1990 C.2     1  UNL1        0.0340
      8  C         18.8270  -22.1510   -6.0600 C.2     1  UNL1        0.0310
      9  C         17.5730  -22.0730   -5.4470 C.2     1  UNL1        0.0270
     10  C         16.5020  -22.7920   -5.9790 C.2     1  UNL1        0.0740
     11  C         16.6820  -23.5990   -7.1040 C.2     1  UNL1        0.0270
     12  C         17.9400  -23.6710   -7.7120 C.2     1  UNL1        0.0310
     13  S         14.9200  -22.7310   -5.1930 S.O2    1  UNL1        0.2390
     14  O         14.4930  -24.0750   -4.8780 O.2     1  UNL1       -0.2060
     15  O         14.0760  -21.7950   -5.8980 O.2     1  UNL1       -0.2060
     16  N         15.2880  -22.0110   -3.7230 N.3     1  UNL1       -0.2250
     17  H         15.1890  -20.9980   -3.7980 H       1  UNL1        0.1360
     18  H         14.7220  -22.4270   -2.9820 H       1  UNL1        0.1360
     19  C         23.2390  -21.9140  -10.7880 C.ar    1  UNL1        0.1770
     20  N         24.4970  -22.1350  -10.9730 N.ar    1  UNL1       -0.2230
     21  C         25.0170  -22.0500  -12.2620 C.ar    1  UNL1        0.0750
     22  C         26.3780  -22.3030  -12.4560 C.2     1  UNL1        0.0320
     23  C         24.2330  -21.6880  -13.3510 C.ar    1  UNL1        0.0610
     24  C         26.9440  -22.1980  -13.7290 C.2     1  UNL1        0.0020
     25  C         26.1510  -21.8350  -14.8180 C.2     1  UNL1        0.0010
     26  C         24.7920  -21.5790  -14.6320 C.2     1  UNL1        0.0190
     27  C         22.7940  -21.4480  -13.1200 C.ar    1  UNL1        0.2670
     28  O         22.1050  -21.1450  -14.0940 O.2     1  UNL1       -0.2670
     29  N         22.3290  -21.6260  -11.8090 N.ar    1  UNL1       -0.2560
     30  C         20.9100  -21.5470  -11.5990 C.2     1  UNL1        0.0440
     31  C         20.2420  -20.3140  -11.6930 C.2     1  UNL1        0.0300
     32  C         18.8590  -20.2340  -11.5070 C.2     1  UNL1        0.0020
     33  C         18.1230  -21.3870  -11.2370 C.2     1  UNL1        0.0000
     34  C         18.7670  -22.6210  -11.1650 C.2     1  UNL1        0.0020
     35  C         20.1510  -22.7010  -11.3520 C.2     1  UNL1        0.0300
@<TRIPOS>BOND
     1    25    26    2
     2    25    24    1
     3    26    23    1
     4    28    27    2
     5    24    22    2
     6    23    27   ar
     7    23    21   ar
     8    27    29   ar
     9    22    21    1
    10    21    20   ar
    11    29    30    1
    12    29    19   ar
    13    31    30    2
    14    31    32    1
    15    30    35    1
    16    32    33    2
    17    35    34    2
    18    33    34    1
    19    20    19   ar
    20    19     1    1
    21     1     2    1
    22     2     3    1
    23     6     3    2
    24     3     4   am
    25     4     5    1
    26     4     7    1
    27    12     7    2
    28    12    11    1
    29     7     8    1
    30    11    10    2
    31     8     9    2
    32    10     9    1
    33    10    13    1
    34    15    13    2
    35    13    14    2
    36    13    16    1
    37    17    16    1
    38    16    18    1
