@<TRIPOS>MOLECULE
65329_out_ligand_01.pdbqt
 32 35 0 0 0
SMALL
GASTEIGER

@<TRIPOS>ATOM
      1  N         20.8290  -23.2950   -9.6090 N.ar    1  UNL1       -0.2740
      2  C         22.1640  -23.3440   -9.9650 C.ar    1  UNL1        0.3330
      3  O         22.9690  -24.0500   -9.3550 O.2     1  UNL1       -0.2460
      4  N         22.5550  -22.5580  -11.0420 N.ar    1  UNL1       -0.2650
      5  C         21.6880  -21.8270  -11.8390 C.ar    1  UNL1        0.2650
      6  O         22.0240  -21.2150  -12.8490 O.2     1  UNL1       -0.2670
      7  C         20.2810  -21.8160  -11.4380 C.ar    1  UNL1        0.0780
      8  C         19.3310  -21.0850  -12.1580 C.2     1  UNL1        0.0220
      9  C         18.0010  -21.1130  -11.7530 C.2     1  UNL1        0.0200
     10  C         17.6770  -21.8830  -10.6520 C.2     1  UNL1        0.1190
     11  N         18.5790  -22.6130   -9.9530 N.2     1  UNL1       -0.2420
     12  C         19.8820  -22.5520  -10.3390 C.ar    1  UNL1        0.1490
     13  C         20.3870  -24.0610   -8.4400 C.3     1  UNL1        0.2380
     14  C         19.5790  -23.2240   -7.4400 C.2     1  UNL1        0.2400
     15  O         20.0250  -22.1690   -6.9930 O.2     1  UNL1       -0.2710
     16  N         18.3160  -23.7350   -7.1950 N.am    1  UNL1       -0.3260
     17  H         18.0610  -24.5490   -7.7520 H       1  UNL1        0.1690
     18  C         17.3320  -23.2390   -6.3200 C.2     1  UNL1        0.0350
     19  C         17.5560  -22.9620   -4.9690 C.2     1  UNL1        0.0320
     20  C         16.5190  -22.4770   -4.1650 C.2     1  UNL1        0.0440
     21  C         15.2600  -22.2720   -4.7140 C.2     1  UNL1        0.1160
     22  F         14.2690  -21.8070   -3.9430 F       1  UNL1       -0.2060
     23  C         15.0170  -22.5440   -6.0540 C.2     1  UNL1        0.0440
     24  C         16.0520  -23.0290   -6.8560 C.2     1  UNL1        0.0320
     25  C         23.9640  -22.5940  -11.4340 C.3     1  UNL1        0.1420
     26  C         24.7760  -21.5040  -10.7260 C.3     1  UNL1        0.0590
     27  C         25.5680  -20.6760  -11.7050 C.2     1  UNL1       -0.0570
     28  C         26.4040  -19.6490  -11.2500 C.2     1  UNL1        0.0070
     29  C         27.1210  -18.8670  -12.1580 C.2     1  UNL1        0.0010
     30  C         27.0020  -19.1030  -13.5270 C.2     1  UNL1        0.0000
     31  C         26.1670  -20.1180  -13.9890 C.2     1  UNL1        0.0010
     32  C         25.4500  -20.9010  -13.0840 C.2     1  UNL1        0.0070
@<TRIPOS>BOND
     1    31    30    2
     2    31    32    1
     3    30    29    1
     4    32    27    2
     5     6     5    2
     6     8     9    1
     7     8     7    2
     8    29    28    2
     9     5     7   ar
    10     5     4   ar
    11     9    10    2
    12    27    28    1
    13    27    26    1
    14     7    12   ar
    15    25     4    1
    16    25    26    1
    17     4     2   ar
    18    10    11    1
    19    12    11    2
    20    12     1   ar
    21     2     1   ar
    22     2     3    2
    23     1    13    1
    24    13    14    1
    25    17    16    1
    26    14    16   am
    27    14    15    2
    28    16    18    1
    29    24    18    2
    30    24    23    1
    31    18    19    1
    32    23    21    2
    33    19    20    2
    34    21    20    1
    35    21    22    1
