@<TRIPOS>MOLECULE
65856_out_ligand_01.pdbqt
 33 36 0 0 0
SMALL
GASTEIGER

@<TRIPOS>ATOM
      1  C         23.4050  -22.2640  -11.9870 C.2     1  UNL1        0.0820
      2  C         22.4080  -21.6820  -12.7690 C.2     1  UNL1        0.0270
      3  C         21.0930  -21.6340  -12.2890 C.2     1  UNL1        0.0330
      4  C         20.7350  -22.1740  -11.0390 C.2     1  UNL1        0.0630
      5  C         21.7730  -22.7520  -10.2870 C.2     1  UNL1        0.1300
      6  C         23.0990  -22.8140  -10.7430 C.2     1  UNL1        0.0630
      7  N         19.3890  -22.0790  -10.6880 N.pl3   1  UNL1       -0.3780
      8  C         18.5170  -21.1720  -11.4310 C.3     1  UNL1        0.1230
      9  C         17.3290  -20.8090  -10.5440 C.3     1  UNL1        0.0210
     10  C         16.5780  -22.0630  -10.0950 C.3     1  UNL1        0.0150
     11  C         17.4930  -23.1000   -9.4170 C.3     1  UNL1        0.0750
     12  C         18.7780  -23.3430  -10.2410 C.3     1  UNL1        0.1350
     13  C         17.7950  -22.7260   -7.9900 C.ar    1  UNL1        0.1360
     14  N         18.7960  -21.9820   -7.5680 N.ar    1  UNL1       -0.1340
     15  N         18.7290  -21.8950   -6.2050 N.ar    1  UNL1       -0.1350
     16  C         17.6830  -22.5820   -5.8010 C.ar    1  UNL1        0.1300
     17  N         17.0570  -23.1260   -6.8940 N.ar    1  UNL1       -0.3200
     18  C         17.2650  -22.7650   -4.3900 C.3     1  UNL1        0.0800
     19  C         15.8580  -23.9330   -6.9350 C.3     1  UNL1        0.1320
     20  C         15.0180  -24.0620   -5.6610 C.3     1  UNL1        0.0200
     21  C         14.7380  -22.7220   -4.9860 C.3     1  UNL1        0.0020
     22  C         15.8760  -22.2040   -4.0990 C.3     1  UNL1        0.0080
     23  N         21.5280  -23.2610   -8.9580 N.pl3   1  UNL1       -0.1130
     24  O         21.2690  -24.4670   -8.8560 O.2     1  UNL1       -0.5320
     25  O         21.6290  -22.4610   -8.0170 O.2     1  UNL1       -0.5320
     26  S         25.0740  -22.3360  -12.5830 S.O2    1  UNL1        0.2590
     27  O         25.9200  -22.6610  -11.4570 O.2     1  UNL1       -0.2010
     28  O         25.1030  -23.0980  -13.8090 O.2     1  UNL1       -0.2010
     29  N         25.3700  -20.7280  -12.9420 N.3     1  UNL1       -0.3110
     30  H         24.5600  -20.1190  -12.8360 H       1  UNL1        0.1720
     31  C         26.7180  -20.1700  -12.7960 C.3     1  UNL1        0.0850
     32  C         26.7700  -19.2930  -11.5510 C.3     1  UNL1        0.0320
     33  C         27.0350  -19.3590  -14.0480 C.3     1  UNL1        0.0320
@<TRIPOS>BOND
     1    33    31    1
     2    28    26    2
     3    29    30    1
     4    29    31    1
     5    29    26    1
     6    31    32    1
     7     2     3    1
     8     2     1    2
     9    26     1    1
    10    26    27    2
    11     3     4    2
    12     1     6    1
    13     8     7    1
    14     8     9    1
    15     4     7    1
    16     4     5    1
    17     6     5    2
    18     7    12    1
    19     9    10    1
    20     5    23    1
    21    12    11    1
    22    10    11    1
    23    11    13    1
    24    23    24    2
    25    23    25    2
    26    13    14   ar
    27    13    17   ar
    28    14    15   ar
    29    19    17    1
    30    19    20    1
    31    17    16   ar
    32    15    16   ar
    33    16    18    1
    34    20    21    1
    35    21    22    1
    36    18    22    1
