@<TRIPOS>MOLECULE
65916_out_ligand_01.pdbqt
 29 33 0 0 0
SMALL
GASTEIGER

@<TRIPOS>ATOM
      1  C         19.2840  -22.7970   -8.9450 C.2     1  UNL1        0.0510
      2  C         18.2080  -23.6500   -8.7490 C.2     1  UNL1        0.1360
      3  N         17.5070  -23.7200   -7.5880 N.2     1  UNL1       -0.2410
      4  C         17.8550  -22.8800   -6.5770 C.ar    1  UNL1        0.1490
      5  C         18.9080  -21.9860   -6.7170 C.ar    1  UNL1        0.0790
      6  C         19.6300  -21.9280   -7.9140 C.2     1  UNL1        0.0390
      7  C         19.2640  -21.1210   -5.5910 C.ar    1  UNL1        0.2630
      8  O         20.2120  -20.3480   -5.6570 O.2     1  UNL1       -0.2670
      9  N         18.4990  -21.2540   -4.4690 N.ar    1  UNL1       -0.2740
     10  C         17.4900  -22.1560   -4.2700 C.ar    1  UNL1        0.3310
     11  O         16.9770  -22.2300   -3.1530 O.2     1  UNL1       -0.2460
     12  N         17.1260  -22.9330   -5.3590 N.ar    1  UNL1       -0.2780
     13  H         18.7580  -20.6970   -3.6660 H       1  UNL1        0.1730
     14  C         19.9610  -22.7720  -10.2590 C.2     1  UNL1        0.2590
     15  N         21.3680  -22.7780  -10.2810 N.am    1  UNL1       -0.3130
     16  C         22.0920  -23.6410   -9.3340 C.3     1  UNL1        0.1330
     17  C         22.1090  -22.3150  -11.4320 C.2     1  UNL1        0.0430
     18  C         23.5450  -23.2460   -9.1570 C.3     1  UNL1        0.0250
     19  C         24.2450  -23.3470  -10.4970 C.3     1  UNL1        0.0420
     20  C         23.4920  -22.5710  -11.5450 C.2     1  UNL1       -0.0310
     21  C         24.2100  -22.1270  -12.6720 C.2     1  UNL1        0.0160
     22  C         23.5910  -21.3780  -13.6740 C.2     1  UNL1       -0.0610
     23  C         24.3580  -20.9330  -14.8820 C.3     1  UNL1        0.0480
     24  C         22.2320  -21.0940  -13.5490 C.2     1  UNL1        0.0090
     25  C         21.5080  -21.5450  -12.4390 C.2     1  UNL1        0.0310
     26  O         19.2150  -22.7350  -11.2330 O.2     1  UNL1       -0.2670
     27  C         16.0620  -23.9070   -5.2330 C.3     1  UNL1        0.0960
     28  C         14.6100  -23.5320   -5.4220 C.3     1  UNL1        0.0280
     29  C         15.1040  -23.9090   -4.0630 C.3     1  UNL1        0.0280
@<TRIPOS>BOND
     1    23    22    1
     2    22    24    2
     3    22    21    1
     4    24    25    1
     5    21    20    2
     6    25    17    2
     7    20    17    1
     8    20    19    1
     9    17    15    1
    10    26    14    2
    11    19    18    1
    12    15    14   am
    13    15    16    1
    14    14     1    1
    15    16    18    1
    16     1     2    2
    17     1     6    1
    18     2     3    1
    19     6     5    2
    20     3     4    2
    21     5     4   ar
    22     5     7   ar
    23     4    12   ar
    24     8     7    2
    25     7     9   ar
    26    28    27    1
    27    28    29    1
    28    12    27    1
    29    12    10   ar
    30    27    29    1
    31     9    10   ar
    32     9    13    1
    33    10    11    2
