@<TRIPOS>MOLECULE
66059_out_ligand_01.pdbqt
 36 39 0 0 0
SMALL
GASTEIGER

@<TRIPOS>ATOM
      1  C         17.2640  -23.1810   -8.8150 C.2     1  UNL1        0.0820
      2  C         16.4710  -22.4530   -9.7000 C.2     1  UNL1        0.0260
      3  C         17.0780  -21.6810  -10.6860 C.2     1  UNL1        0.0100
      4  C         18.4780  -21.6090  -10.7780 C.2     1  UNL1       -0.0350
      5  C         19.0730  -20.7680  -11.8830 C.3     1  UNL1        0.0500
      6  C         19.2780  -22.3060   -9.8390 C.2     1  UNL1        0.0420
      7  C         18.6590  -23.1010   -8.8680 C.2     1  UNL1        0.0550
      8  N         20.6800  -22.1820   -9.9330 N.am    1  UNL1       -0.3270
      9  C         21.6150  -22.2080   -8.9100 C.2     1  UNL1        0.2230
     10  O         21.3950  -22.2650   -7.7020 O.2     1  UNL1       -0.2730
     11  H         21.0580  -22.0540  -10.8650 H       1  UNL1        0.1690
     12  C         23.0370  -22.1340   -9.4320 C.3     1  UNL1        0.1250
     13  C         23.3180  -23.2370  -10.4470 C.3     1  UNL1        0.1600
     14  N         23.5070  -22.7170  -11.8160 N.pl3   1  UNL1       -0.2690
     15  N         22.4710  -21.9360  -12.2540 N.2     1  UNL1       -0.1800
     16  C         22.5570  -21.3330  -13.3910 C.2     1  UNL1        0.1940
     17  C         23.7470  -21.4400  -14.2780 C.2     1  UNL1        0.2030
     18  O         23.7350  -20.8740  -15.3610 O.2     1  UNL1       -0.2860
     19  C         24.8710  -22.2290  -13.7730 C.2     1  UNL1        0.0440
     20  C         26.0470  -22.3310  -14.5280 C.2     1  UNL1        0.0180
     21  C         24.7090  -22.8510  -12.5250 C.2     1  UNL1        0.0670
     22  C         27.1110  -23.0760  -14.0350 C.2     1  UNL1        0.0010
     23  C         26.9870  -23.7130  -12.8000 C.2     1  UNL1        0.0020
     24  C         25.8010  -23.6030  -12.0610 C.2     1  UNL1        0.0320
     25  S         16.4670  -24.2050   -7.6030 S.O2    1  UNL1        0.2630
     26  O         17.5130  -24.9360   -6.9200 O.2     1  UNL1       -0.2000
     27  O         15.3500  -24.8860   -8.2230 O.2     1  UNL1       -0.2000
     28  N         15.8710  -23.0860   -6.4830 N.pl3   1  UNL1       -0.2810
     29  H         14.9010  -23.2720   -6.2340 H       1  UNL1        0.1790
     30  C         16.7340  -22.5850   -5.4730 C.2     1  UNL1        0.0430
     31  C         16.5170  -22.8950   -4.1320 C.2     1  UNL1        0.0300
     32  C         17.3570  -22.3660   -3.1540 C.2     1  UNL1        0.0030
     33  C         18.4070  -21.5200   -3.5160 C.2     1  UNL1        0.0070
     34  C         18.6280  -21.1960   -4.8580 C.2     1  UNL1       -0.0600
     35  C         19.7060  -20.2220   -5.2360 C.3     1  UNL1        0.0480
     36  C         17.7830  -21.7350   -5.8370 C.2     1  UNL1        0.0370
@<TRIPOS>BOND
     1    18    17    2
     2    20    22    1
     3    20    19    2
     4    17    19    1
     5    17    16    1
     6    22    23    2
     7    19    21    1
     8    16    15    2
     9    23    24    1
    10    21    24    2
    11    21    14    1
    12    15    14    1
    13     5     4    1
    14    14    13    1
    15    11     8    1
    16     4     3    2
    17     4     6    1
    18     3     2    1
    19    13    12    1
    20     8     6    1
    21     8     9   am
    22     6     7    2
    23     2     1    2
    24    12     9    1
    25     9    10    2
    26     7     1    1
    27     1    25    1
    28    27    25    2
    29    25    26    2
    30    25    28    1
    31    28    29    1
    32    28    30    1
    33    36    30    2
    34    36    34    1
    35    30    31    1
    36    35    34    1
    37    34    33    2
    38    31    32    2
    39    33    32    1
