@<TRIPOS>MOLECULE
66078_out_ligand_01.pdbqt
 37 41 0 0 0
SMALL
GASTEIGER

@<TRIPOS>ATOM
      1  C         15.1130  -22.8970   -9.3550 C.2     1  UNL1        0.0750
      2  C         15.6110  -22.3180  -10.4600 C.2     1  UNL1        0.0170
      3  C         15.7600  -23.3780   -8.0920 C.2     1  UNL1        0.2450
      4  N         15.7930  -22.4800   -7.0600 N.am    1  UNL1       -0.3210
      5  H         15.3760  -21.5700   -7.2060 H       1  UNL1        0.1690
      6  O         16.2640  -24.4970   -8.1110 O.2     1  UNL1       -0.2680
      7  C         16.4040  -22.6230   -5.7940 C.2     1  UNL1        0.0690
      8  C         15.7660  -23.1520   -4.6760 C.2     1  UNL1        0.0320
      9  C         16.4530  -23.2830   -3.4640 C.2     1  UNL1        0.0020
     10  C         17.7820  -22.8800   -3.3580 C.2     1  UNL1        0.0030
     11  C         18.4310  -22.3380   -4.4620 C.2     1  UNL1        0.0390
     12  C         17.7480  -22.2250   -5.6760 C.2     1  UNL1        0.1020
     13  O         18.3500  -21.6480   -6.7750 O.2     1  UNL1       -0.3080
     14  C         19.3780  -22.3440   -7.3700 C.2     1  UNL1        0.0760
     15  C         19.1470  -23.6970   -7.6180 C.2     1  UNL1        0.0370
     16  C         20.1450  -24.4760   -8.2000 C.2     1  UNL1        0.0030
     17  C         21.3820  -23.9020   -8.5160 C.2     1  UNL1        0.0070
     18  C         21.6380  -22.5530   -8.2320 C.2     1  UNL1       -0.0590
     19  C         22.9590  -21.9410   -8.5900 C.3     1  UNL1        0.0480
     20  C         20.6240  -21.7740   -7.6580 C.2     1  UNL1        0.0440
     21  C         16.9950  -21.9420  -10.7320 C.2     1  UNL1       -0.0360
     22  C         17.3520  -20.6060  -10.9340 C.2     1  UNL1        0.0140
     23  C         18.6810  -20.2580  -11.2010 C.2     1  UNL1        0.0370
     24  C         19.6660  -21.2430  -11.2680 C.2     1  UNL1        0.0690
     25  C         19.3090  -22.5770  -11.0540 C.2     1  UNL1        0.0370
     26  C         17.9810  -22.9290  -10.7950 C.2     1  UNL1        0.0140
     27  O         20.9950  -21.0480  -11.5270 O.2     1  UNL1       -0.3450
     28  C         21.7630  -22.1730  -11.9950 C.3     1  UNL1        0.2360
     29  C         22.9900  -21.7910  -12.7610 C.2     1  UNL1        0.0770
     30  C         24.3100  -21.8020  -12.3490 C.2     1  UNL1        0.1270
     31  N         25.0440  -21.4010  -13.4350 N.pl3   1  UNL1       -0.3160
     32  C         26.4240  -21.2650  -13.5700 C.2     1  UNL1        0.0980
     33  C         24.1390  -21.1380  -14.4580 C.2     1  UNL1        0.1340
     34  C         26.9270  -20.8560  -14.7480 C.2     1  UNL1        0.0180
     35  C         26.0110  -20.5610  -15.8400 C.2     1  UNL1        0.0050
     36  C         24.6770  -20.6940  -15.7000 C.2     1  UNL1        0.0510
     37  N         22.8990  -21.3650  -14.0720 N.2     1  UNL1       -0.2320
@<TRIPOS>BOND
     1    35    36    2
     2    35    34    1
     3    36    33    1
     4    34    32    2
     5    33    37    2
     6    33    31    1
     7    37    29    1
     8    32    31    1
     9    31    30    1
    10    29    30    2
    11    29    28    1
    12    28    27    1
    13    27    24    1
    14    24    23    2
    15    24    25    1
    16    23    22    1
    17    25    26    2
    18    22    21    2
    19    26    21    1
    20    21     2    1
    21     2     1    2
    22     1     3    1
    23    19    18    1
    24    17    18    2
    25    17    16    1
    26    18    20    1
    27    16    15    2
    28     6     3    2
    29     3     4   am
    30    20    14    2
    31    15    14    1
    32    14    13    1
    33     5     4    1
    34     4     7    1
    35    13    12    1
    36     7    12    2
    37     7     8    1
    38    12    11    1
    39     8     9    2
    40    11    10    2
    41     9    10    1
