@<TRIPOS>MOLECULE
66133_out_ligand_01.pdbqt
 37 40 0 0 0
SMALL
GASTEIGER

@<TRIPOS>ATOM
      1  C         15.5620  -22.0900   -9.2950 C.3     1  UNL1        0.0500
      2  C         16.8960  -22.1310   -9.9830 C.2     1  UNL1       -0.0390
      3  C         17.0290  -21.4610  -11.2090 C.2     1  UNL1        0.0100
      4  C         18.2500  -21.4230  -11.8950 C.2     1  UNL1        0.0300
      5  C         19.3810  -22.0350  -11.3610 C.2     1  UNL1        0.0360
      6  C         19.2670  -22.7020  -10.1390 C.2     1  UNL1        0.0550
      7  C         18.0370  -22.7600   -9.4570 C.2     1  UNL1        0.0870
      8  N         20.6510  -22.0360  -11.9780 N.am    1  UNL1       -0.3220
      9  C         21.8620  -21.6540  -11.4230 C.2     1  UNL1        0.2730
     10  O         22.0230  -21.3000  -10.2620 O.2     1  UNL1       -0.2660
     11  H         20.6920  -22.4660  -12.8910 H       1  UNL1        0.1690
     12  C         22.9710  -21.7260  -12.3670 C.ar    1  UNL1        0.1080
     13  N         22.9550  -21.1850  -13.6380 N.ar    1  UNL1       -0.3540
     14  C         24.1540  -21.3990  -14.2530 C.ar    1  UNL1        0.0250
     15  H         22.1840  -20.6600  -14.0310 H       1  UNL1        0.1660
     16  C         24.9870  -22.0520  -13.3700 C.ar    1  UNL1        0.0410
     17  C         24.4920  -20.9590  -15.6340 C.3     1  UNL1        0.0670
     18  C         24.2420  -22.2750  -12.1730 C.ar    1  UNL1       -0.0140
     19  C         26.3580  -22.3880  -13.7440 C.2     1  UNL1        0.1620
     20  C         24.7360  -22.9550  -10.9400 C.3     1  UNL1        0.0520
     21  O         27.1210  -22.9970  -12.9990 O.2     1  UNL1       -0.2920
     22  C         26.8300  -21.8640  -15.1000 C.3     1  UNL1        0.0930
     23  C         25.7090  -21.7660  -16.1720 C.3     1  UNL1       -0.0360
     24  C         26.2710  -21.0430  -17.4110 C.3     1  UNL1        0.0150
     25  C         25.2690  -23.1800  -16.6060 C.3     1  UNL1        0.0150
     26  S         18.0080  -23.6510   -7.9050 S.O2    1  UNL1        0.2630
     27  O         16.8480  -24.5210   -7.9170 O.2     1  UNL1       -0.2000
     28  O         19.3280  -24.1910   -7.6660 O.2     1  UNL1       -0.2000
     29  N         17.7500  -22.4410   -6.7510 N.pl3   1  UNL1       -0.2780
     30  H         17.3950  -21.5870   -7.1840 H       1  UNL1        0.1790
     31  C         17.1360  -22.8070   -5.5130 C.2     1  UNL1        0.0810
     32  C         17.8390  -23.5260   -4.5470 C.2     1  UNL1        0.0330
     33  C         17.1970  -23.9090   -3.3660 C.2     1  UNL1        0.0020
     34  C         15.8560  -23.5820   -3.1530 C.2     1  UNL1        0.0030
     35  C         15.1500  -22.8630   -4.1180 C.2     1  UNL1        0.0440
     36  C         15.7950  -22.4800   -5.2890 C.2     1  UNL1        0.1430
     37  F         15.1160  -21.7900   -6.2180 F       1  UNL1       -0.2040
@<TRIPOS>BOND
     1    24    23    1
     2    25    23    1
     3    23    17    1
     4    23    22    1
     5    17    14    1
     6    22    19    1
     7    14    13   ar
     8    14    16   ar
     9    15    13    1
    10    19    16    1
    11    19    21    2
    12    13    12   ar
    13    16    18   ar
    14    11     8    1
    15    12    18   ar
    16    12     9    1
    17    18    20    1
    18     8     9   am
    19     8     5    1
    20     4     5    2
    21     4     3    1
    22     9    10    2
    23     5     6    1
    24     3     2    2
    25     6     7    2
    26     2     7    1
    27     2     1    1
    28     7    26    1
    29    27    26    2
    30    26    28    2
    31    26    29    1
    32    30    29    1
    33    29    31    1
    34    37    36    1
    35    31    36    2
    36    31    32    1
    37    36    35    1
    38    32    33    2
    39    35    34    2
    40    33    34    1
