@<TRIPOS>MOLECULE
6622_out_ligand_01.pdbqt
 39 44 0 0 0
SMALL
GASTEIGER

@<TRIPOS>ATOM
      1  C         23.0790  -22.9280  -10.6670 C.2     1  UNL1       -0.0120
      2  C         23.3110  -23.6070   -9.4560 C.2     1  UNL1        0.0140
      3  C         22.2530  -23.9290   -8.6100 C.2     1  UNL1        0.0410
      4  C         20.9550  -23.6000   -8.9920 C.2     1  UNL1        0.1120
      5  C         20.6840  -22.9360  -10.1950 C.2     1  UNL1        0.1020
      6  C         21.7550  -22.6080  -11.0300 C.2     1  UNL1        0.0500
      7  C         24.2320  -22.5850  -11.6010 C.3     1  UNL1        0.2430
      8  N         24.9910  -21.4540  -11.0420 N.2     1  UNL1       -0.2350
      9  C         25.4520  -20.6110  -11.8900 C.2     1  UNL1        0.1730
     10  C         25.2490  -20.6670  -13.3130 C.ar    1  UNL1        0.0570
     11  C         24.3760  -21.6210  -13.7800 C.ar    1  UNL1        0.0870
     12  C         25.7930  -19.8900  -14.3840 C.ar    1  UNL1       -0.0240
     13  S         24.2120  -21.6080  -15.4690 S.2     1  UNL1       -0.0740
     14  N         23.7180  -22.4570  -12.9560 N.pl3   1  UNL1       -0.3570
     15  C         25.3120  -20.3150  -15.6100 C.ar    1  UNL1        0.0200
     16  C         25.6690  -19.7010  -16.9350 C.3     1  UNL1        0.3190
     17  N         26.8960  -18.8700  -16.8310 N.3     1  UNL1        0.0930
     18  C         26.8270  -17.9810  -15.6460 C.3     1  UNL1        0.2770
     19  C         26.7810  -18.7690  -14.3160 C.3     1  UNL1        0.0710
     20  H         23.2530  -23.2760  -13.3300 H       1  UNL1        0.1620
     21  O         26.1840  -19.5850  -11.4180 O.2     1  UNL1       -0.3440
     22  H         25.5550  -18.9570  -11.0260 H       1  UNL1        0.2190
     23  C         27.1180  -18.0740  -18.0480 C.3     1  UNL1        0.2680
     24  C         26.1970  -16.8640  -18.1520 C.3     1  UNL1        0.0370
     25  O         19.3680  -22.6530  -10.4420 O.2     1  UNL1       -0.3530
     26  C         19.0890  -21.5180  -11.2490 C.3     1  UNL1        0.2100
     27  O         19.8960  -23.8800   -8.1210 O.3     1  UNL1       -0.2720
     28  C         19.5420  -22.7990   -7.3360 C.2     1  UNL1        0.2990
     29  O         20.2650  -21.9150   -6.9090 O.2     1  UNL1       -0.2590
     30  C         18.0790  -22.8890   -7.0780 C.2     1  UNL1        0.0510
     31  C         17.2380  -23.1810   -8.1680 C.2     1  UNL1        0.0180
     32  C         15.8620  -23.2630   -7.9870 C.2     1  UNL1        0.0020
     33  C         15.3190  -23.0500   -6.7210 C.2     1  UNL1        0.0120
     34  C         16.1370  -22.7520   -5.6190 C.2     1  UNL1       -0.0250
     35  C         15.5590  -22.5400   -4.3550 C.2     1  UNL1        0.0120
     36  C         17.5440  -22.6660   -5.7800 C.2     1  UNL1       -0.0100
     37  C         16.3460  -22.2440   -3.2440 C.2     1  UNL1        0.0010
     38  C         17.7240  -22.1620   -3.3790 C.2     1  UNL1        0.0010
     39  C         18.3150  -22.3740   -4.6260 C.2     1  UNL1        0.0130
@<TRIPOS>BOND
     1    24    23    1
     2    23    17    1
     3    16    17    1
     4    16    15    1
     5    17    18    1
     6    18    19    1
     7    15    13   ar
     8    15    12   ar
     9    13    11   ar
    10    12    19    1
    11    12    10   ar
    12    11    10   ar
    13    11    14    1
    14    20    14    1
    15    10     9    1
    16    14     7    1
    17     9    21    1
    18     9     8    2
    19     7     8    1
    20     7     1    1
    21    21    22    1
    22    26    25    1
    23     6     1    2
    24     6     5    1
    25     1     2    1
    26    25     5    1
    27     5     4    2
    28     2     3    2
    29     4     3    1
    30     4    27    1
    31    31    32    1
    32    31    30    2
    33    27    28    1
    34    32    33    2
    35    28    30    1
    36    28    29    2
    37    30    36    1
    38    33    34    1
    39    36    34    2
    40    36    39    1
    41    34    35    1
    42    39    38    2
    43    35    37    2
    44    38    37    1
