@<TRIPOS>MOLECULE
66726_out_ligand_01.pdbqt
 44 49 0 0 0
SMALL
GASTEIGER

@<TRIPOS>ATOM
      1  C         22.5070  -23.2650  -10.0930 C.2     1  UNL1        0.0450
      2  C         22.1960  -24.1940   -9.0950 C.2     1  UNL1        0.0300
      3  C         20.8770  -24.4630   -8.7680 C.2     1  UNL1        0.0030
      4  C         19.8450  -23.8030   -9.4340 C.2     1  UNL1        0.0140
      5  C         20.0870  -22.8340  -10.4390 C.2     1  UNL1        0.0030
      6  C         19.0350  -22.1510  -11.1400 C.2     1  UNL1        0.0450
      7  C         19.3470  -21.2320  -12.1440 C.2     1  UNL1        0.0300
      8  C         20.6670  -20.9730  -12.4780 C.2     1  UNL1        0.0030
      9  C         21.6970  -21.6250  -11.8050 C.2     1  UNL1        0.0140
     10  C         21.4530  -22.5640  -10.7740 C.2     1  UNL1        0.0030
     11  N         23.8640  -23.0010  -10.4210 N.am    1  UNL1       -0.3260
     12  C         25.0050  -23.5460   -9.8450 C.2     1  UNL1        0.2310
     13  O         25.0310  -24.3980   -8.9570 O.2     1  UNL1       -0.2720
     14  H         24.0190  -22.3540  -11.1800 H       1  UNL1        0.1690
     15  C         26.2890  -23.0360  -10.4940 C.3     1  UNL1        0.1850
     16  S         26.1150  -21.3220  -11.0680 S.3     1  UNL1       -0.0830
     17  C         25.8230  -21.6010  -12.7430 C.ar    1  UNL1        0.1680
     18  N         26.2640  -20.7040  -13.6680 N.ar    1  UNL1       -0.3330
     19  C         25.8550  -21.1410  -14.8990 C.ar    1  UNL1        0.0630
     20  H         26.7750  -19.8590  -13.4530 H       1  UNL1        0.1680
     21  C         26.0100  -20.6220  -16.1850 C.2     1  UNL1        0.0320
     22  C         25.1710  -22.3260  -14.6310 C.ar    1  UNL1        0.0860
     23  C         25.4330  -21.3520  -17.2330 C.2     1  UNL1        0.0090
     24  C         24.7240  -22.5420  -17.0030 C.2     1  UNL1       -0.0600
     25  C         24.1480  -23.3180  -18.1530 C.3     1  UNL1        0.0480
     26  C         24.6010  -23.0430  -15.6950 C.2     1  UNL1        0.0400
     27  N         25.1750  -22.6060  -13.2830 N.ar    1  UNL1       -0.2230
     28  N         17.6780  -22.3930  -10.7890 N.am    1  UNL1       -0.3260
     29  C         16.6330  -21.4830  -10.7230 C.2     1  UNL1        0.2310
     30  O         16.6620  -20.2970  -11.0440 O.2     1  UNL1       -0.2720
     31  H         17.4180  -23.3600  -10.6600 H       1  UNL1        0.1690
     32  C         15.3290  -22.1160  -10.2630 C.3     1  UNL1        0.1850
     33  S         15.6770  -23.7460   -9.5590 S.3     1  UNL1       -0.0830
     34  C         16.1930  -23.3480   -7.9590 C.ar    1  UNL1        0.1680
     35  N         17.0950  -22.4410   -7.6660 N.ar    1  UNL1       -0.2230
     36  C         17.2080  -22.4850   -6.2990 C.ar    1  UNL1        0.0860
     37  C         18.0410  -21.7420   -5.4470 C.2     1  UNL1        0.0400
     38  C         16.3490  -23.4340   -5.7550 C.ar    1  UNL1        0.0630
     39  C         17.9850  -21.9770   -4.0610 C.2     1  UNL1       -0.0600
     40  C         18.9200  -21.2320   -3.1540 C.3     1  UNL1        0.0480
     41  C         17.1070  -22.9470   -3.5500 C.2     1  UNL1        0.0090
     42  C         16.2640  -23.6930   -4.3860 C.2     1  UNL1        0.0320
     43  N         15.7120  -23.9760   -6.8460 N.ar    1  UNL1       -0.3330
     44  H         15.0080  -24.7050   -6.8310 H       1  UNL1        0.1680
@<TRIPOS>BOND
     1    25    24    1
     2    23    24    2
     3    23    21    1
     4    24    26    1
     5    21    19    2
     6    26    22    2
     7    19    22   ar
     8    19    18   ar
     9    22    27   ar
    10    18    20    1
    11    18    17   ar
    12    27    17   ar
    13    17    16    1
    14     8     7    1
    15     8     9    2
    16     7     6    2
    17     9    10    1
    18    14    11    1
    19     6    28    1
    20     6     5    1
    21    16    15    1
    22    30    29    2
    23    28    29   am
    24    28    31    1
    25    10     5    1
    26    10     1    2
    27    29    32    1
    28    15    12    1
    29     5     4    2
    30    11     1    1
    31    11    12   am
    32    32    33    1
    33     1     2    1
    34    12    13    2
    35    33    34    1
    36     4     3    1
    37     2     3    2
    38    34    35   ar
    39    34    43   ar
    40    35    36   ar
    41    43    44    1
    42    43    38   ar
    43    36    38   ar
    44    36    37    1
    45    38    42    1
    46    37    39    2
    47    42    41    2
    48    39    41    1
    49    39    40    1
