@<TRIPOS>MOLECULE
66758_out_ligand_01.pdbqt
 35 38 0 0 0
SMALL
GASTEIGER

@<TRIPOS>ATOM
      1  C         23.0440  -22.8290   -9.0350 C.2     1  UNL1        0.0810
      2  C         23.0140  -21.7510   -8.1780 C.2     1  UNL1        0.0370
      3  C         21.6890  -21.6590   -7.6900 C.2     1  UNL1        0.0390
      4  C         20.9670  -22.6700   -8.2990 C.2     1  UNL1        0.0970
      5  O         21.8000  -23.3810   -9.1250 O.2     1  UNL1       -0.3140
      6  C         19.5130  -23.0940   -8.2410 C.3     1  UNL1        0.1610
      7  O         19.5350  -24.5150   -8.4980 O.3     1  UNL1       -0.3730
      8  H         19.0110  -24.6580   -9.3010 H       1  UNL1        0.2120
      9  C         18.6950  -22.4120   -9.3530 C.2     1  UNL1       -0.0100
     10  C         17.2880  -22.4310   -9.3530 C.2     1  UNL1        0.0110
     11  C         16.5530  -21.8080  -10.3660 C.2     1  UNL1        0.0040
     12  C         17.2130  -21.1590  -11.4060 C.2     1  UNL1        0.0420
     13  C         18.6000  -21.1500  -11.4300 C.2     1  UNL1        0.1170
     14  F         19.2370  -20.5400  -12.4400 F       1  UNL1       -0.2060
     15  C         19.3410  -21.7670  -10.4260 C.2     1  UNL1        0.0530
     16  C         18.8590  -22.9500   -6.8490 C.2     1  UNL1       -0.0100
     17  C         18.0950  -23.9660   -6.2430 C.2     1  UNL1        0.0110
     18  C         17.5060  -23.7770   -4.9870 C.2     1  UNL1        0.0040
     19  C         17.6650  -22.5670   -4.3150 C.2     1  UNL1        0.0420
     20  C         18.4140  -21.5570   -4.9010 C.2     1  UNL1        0.1170
     21  F         18.5700  -20.3910   -4.2560 F       1  UNL1       -0.2060
     22  C         19.0030  -21.7330   -6.1490 C.2     1  UNL1        0.0530
     23  C         24.1030  -23.4740   -9.8730 C.3     1  UNL1        0.3370
     24  N         24.5010  -22.6720  -11.0420 N.3     1  UNL1        0.0980
     25  C         25.8800  -22.1700  -10.9210 C.3     1  UNL1        0.2730
     26  C         25.9970  -20.6410  -10.9750 C.3     1  UNL1        0.0260
     27  C         26.8810  -20.1440  -12.1120 C.3     1  UNL1        0.0070
     28  C         24.2330  -23.3720  -12.3160 C.3     1  UNL1        0.3140
     29  C         24.6400  -22.6690  -13.5940 C.2     1  UNL1        0.0090
     30  C         25.7270  -23.1200  -14.3600 C.2     1  UNL1        0.0120
     31  C         26.1050  -22.4510  -15.5290 C.2     1  UNL1        0.0010
     32  C         25.3960  -21.3290  -15.9550 C.2     1  UNL1        0.0030
     33  C         24.3040  -20.8810  -15.2180 C.2     1  UNL1        0.0430
     34  C         23.9360  -21.5500  -14.0530 C.2     1  UNL1        0.1240
     35  F         22.8740  -21.1030  -13.3720 F       1  UNL1       -0.2050
@<TRIPOS>BOND
     1    32    31    2
     2    32    33    1
     3    31    30    1
     4    33    34    2
     5    30    29    2
     6    34    29    1
     7    34    35    1
     8    29    28    1
     9    14    13    1
    10    28    24    1
    11    27    26    1
    12    13    12    2
    13    13    15    1
    14    12    11    1
    15    24    25    1
    16    24    23    1
    17    26    25    1
    18    15     9    2
    19    11    10    2
    20    23     1    1
    21    10     9    1
    22     9     6    1
    23     8     7    1
    24     5     1    1
    25     5     4    1
    26     1     2    2
    27     7     6    1
    28     4     6    1
    29     4     3    2
    30     6    16    1
    31     2     3    1
    32    16    17    2
    33    16    22    1
    34    17    18    1
    35    22    20    2
    36    18    19    2
    37    20    19    1
    38    20    21    1
