@<TRIPOS>MOLECULE
66773_out_ligand_01.pdbqt
 36 39 0 0 0
SMALL
GASTEIGER

@<TRIPOS>ATOM
      1  C         21.8190  -22.2280   -7.7290 C.3     1  UNL1        0.0500
      2  C         22.2050  -22.1050   -9.1770 C.2     1  UNL1       -0.0390
      3  C         23.4930  -21.6260   -9.4860 C.2     1  UNL1        0.0090
      4  C         23.9020  -21.4610  -10.8100 C.2     1  UNL1        0.0140
      5  C         23.0200  -21.7710  -11.8440 C.2     1  UNL1       -0.0040
      6  C         21.7310  -22.2240  -11.5730 C.2     1  UNL1        0.0390
      7  C         21.3260  -22.4010  -10.2410 C.2     1  UNL1        0.0860
      8  S         19.6700  -23.0090   -9.9670 S.O2    1  UNL1        0.2630
      9  O         18.9310  -22.8840  -11.2050 O.2     1  UNL1       -0.2000
     10  O         19.7450  -24.2820   -9.2800 O.2     1  UNL1       -0.2000
     11  N         19.0200  -21.8650   -8.8940 N.pl3   1  UNL1       -0.2810
     12  H         18.7200  -21.0380   -9.4120 H       1  UNL1        0.1790
     13  C         18.1570  -22.3410   -7.8700 C.2     1  UNL1        0.0420
     14  C         18.5850  -22.3900   -6.5410 C.2     1  UNL1        0.0310
     15  C         17.7020  -22.8050   -5.5420 C.2     1  UNL1        0.0270
     16  C         16.3990  -23.1800   -5.8870 C.2     1  UNL1        0.0740
     17  C         15.9700  -23.1360   -7.2170 C.2     1  UNL1        0.0270
     18  C         16.8540  -22.7110   -8.2090 C.2     1  UNL1        0.0310
     19  S         15.2600  -23.6630   -4.6140 S.O2    1  UNL1        0.2390
     20  O         14.0720  -24.1900   -5.2420 O.2     1  UNL1       -0.2060
     21  O         15.9960  -24.3900   -3.6060 O.2     1  UNL1       -0.2060
     22  N         14.8760  -22.1800   -3.9230 N.3     1  UNL1       -0.2250
     23  H         14.7960  -21.4170   -4.5940 H       1  UNL1        0.1360
     24  H         15.5380  -21.9740   -3.1720 H       1  UNL1        0.1360
     25  C         23.4380  -21.5770  -13.2450 C.ar    1  UNL1        0.0940
     26  N         22.9340  -20.5700  -13.8860 N.ar    1  UNL1       -0.1710
     27  N         23.3450  -20.3980  -15.1720 N.ar    1  UNL1       -0.2420
     28  C         24.2610  -21.1740  -15.8340 C.ar    1  UNL1        0.2680
     29  H         22.9540  -19.6090  -15.6730 H       1  UNL1        0.1920
     30  O         24.6030  -20.9380  -16.9880 O.2     1  UNL1       -0.2660
     31  C         24.8090  -22.3280  -15.0750 C.ar    1  UNL1        0.0200
     32  C         24.4100  -22.5560  -13.8120 C.ar    1  UNL1       -0.0150
     33  C         25.8060  -23.1930  -15.7960 C.3     1  UNL1        0.0450
     34  C         24.8900  -23.7370  -13.0140 C.3     1  UNL1        0.0420
     35  C         25.6030  -24.7940  -13.8640 C.3     1  UNL1        0.0050
     36  C         26.5550  -24.1470  -14.8630 C.3     1  UNL1        0.0050
@<TRIPOS>BOND
     1    30    28    2
     2    28    27   ar
     3    28    31   ar
     4    33    31    1
     5    33    36    1
     6    29    27    1
     7    27    26   ar
     8    31    32   ar
     9    36    35    1
    10    26    25   ar
    11    35    34    1
    12    32    25   ar
    13    32    34    1
    14    25     5    1
    15     5     6    2
    16     5     4    1
    17     6     7    1
    18     9     8    2
    19     4     3    2
    20     7     8    1
    21     7     2    2
    22     8    10    2
    23     8    11    1
    24     3     2    1
    25    12    11    1
    26     2     1    1
    27    11    13    1
    28    18    13    2
    29    18    17    1
    30    13    14    1
    31    17    16    2
    32    14    15    2
    33    16    15    1
    34    16    19    1
    35    20    19    2
    36    19    22    1
    37    19    21    2
    38    23    22    1
    39    22    24    1
