@<TRIPOS>MOLECULE
66900_out_ligand_01.pdbqt
 30 33 0 0 0
SMALL
GASTEIGER

@<TRIPOS>ATOM
      1  C         21.7400  -24.3970   -8.7580 C.3     1  UNL1        0.0710
      2  C         20.8730  -23.4330   -9.5440 C.2     1  UNL1        0.0410
      3  N         21.4450  -22.8780  -10.5700 N.2     1  UNL1       -0.2330
      4  C         20.7060  -22.0120  -11.3190 C.2     1  UNL1        0.1680
      5  C         21.0100  -21.2740  -12.4520 C.2     1  UNL1        0.0980
      6  C         19.8080  -20.5930  -12.7370 C.2     1  UNL1        0.1600
      7  N         18.8310  -20.8460  -11.8720 N.2     1  UNL1       -0.1770
      8  N         19.3770  -21.7280  -10.9920 N.pl3   1  UNL1       -0.2190
      9  C         18.7470  -22.3210   -9.8820 C.2     1  UNL1        0.0430
     10  C         17.3120  -21.9140   -9.6730 C.3     1  UNL1        0.0710
     11  C         19.4420  -23.1820   -9.0960 C.2     1  UNL1       -0.0050
     12  C         22.2850  -21.2460  -13.1550 C.2     1  UNL1        0.2570
     13  O         22.4490  -20.7010  -14.2420 O.2     1  UNL1       -0.2670
     14  N         23.3210  -21.8920  -12.4980 N.am    1  UNL1       -0.3520
     15  H         23.1040  -22.4740  -11.7020 H       1  UNL1        0.1630
     16  C         24.6260  -22.0940  -13.1270 C.3     1  UNL1        0.0880
     17  C         25.3250  -23.3190  -12.5170 C.3     1  UNL1        0.0250
     18  C         25.6830  -23.1260  -11.0390 C.3     1  UNL1        0.0020
     19  C         26.0720  -21.6900  -10.6830 C.3     1  UNL1        0.0010
     20  C         26.5690  -20.9180  -11.8980 C.3     1  UNL1        0.0060
     21  C         25.4860  -20.8090  -12.9890 C.3     1  UNL1        0.0040
     22  C         26.1360  -20.4340  -14.3240 C.3     1  UNL1        0.0120
     23  C         18.8990  -23.9170   -7.8920 C.3     1  UNL1        0.0840
     24  C         18.6680  -23.0610   -6.6670 C.2     1  UNL1       -0.0150
     25  C         19.3790  -21.8630   -6.4880 C.2     1  UNL1        0.0100
     26  C         19.1810  -21.0790   -5.3450 C.2     1  UNL1        0.0010
     27  C         18.2770  -21.4860   -4.3640 C.2     1  UNL1        0.0030
     28  C         17.5760  -22.6800   -4.5210 C.2     1  UNL1        0.0430
     29  C         17.7800  -23.4580   -5.6600 C.2     1  UNL1        0.1220
     30  F         17.1110  -24.6150   -5.7670 F       1  UNL1       -0.2060
@<TRIPOS>BOND
     1    22    21    1
     2    13    12    2
     3    12    14   am
     4    12     5    1
     5    16    21    1
     6    16    17    1
     7    16    14    1
     8    21    20    1
     9     6     5    1
    10     6     7    2
    11    17    18    1
    12    14    15    1
    13     5     4    2
    14    20    19    1
    15     7     8    1
    16     4     8    1
    17     4     3    1
    18    18    19    1
    19     8     9    1
    20     3     2    2
    21     9    10    1
    22     9    11    2
    23     2    11    1
    24     2     1    1
    25    11    23    1
    26    23    24    1
    27    24    25    2
    28    24    29    1
    29    25    26    1
    30    30    29    1
    31    29    28    2
    32    26    27    2
    33    28    27    1
