@<TRIPOS>MOLECULE
6727_out_ligand_01.pdbqt
 35 38 0 0 0
SMALL
GASTEIGER

@<TRIPOS>ATOM
      1  C         21.8610  -22.2040  -11.1830 C.2     1  UNL1        0.0360
      2  C         20.6320  -21.6740  -11.5990 C.2     1  UNL1        0.0300
      3  C         19.4390  -22.0520  -10.9720 C.2     1  UNL1        0.0190
      4  C         19.4630  -22.9790   -9.9250 C.2     1  UNL1        0.0320
      5  C         20.6890  -23.5020   -9.5020 C.2     1  UNL1        0.0190
      6  C         21.8790  -23.1220  -10.1320 C.2     1  UNL1        0.0300
      7  N         23.0100  -21.7820  -11.8800 N.am    1  UNL1       -0.3090
      8  C         24.2240  -21.3870  -11.3550 C.2     1  UNL1        0.3270
      9  N         25.2000  -21.0780  -12.3210 N.am    1  UNL1       -0.2960
     10  O         24.4440  -21.2130  -10.1580 O.2     1  UNL1       -0.2460
     11  C         26.1310  -20.0210  -11.9140 C.3     1  UNL1        0.1440
     12  C         25.2130  -21.5650  -13.6750 C.2     1  UNL1        0.0800
     13  C         27.1200  -19.5220  -12.9570 C.3     1  UNL1        0.1010
     14  S         26.2290  -19.0890  -14.4650 S.3     1  UNL1       -0.1060
     15  C         25.5770  -20.7230  -14.7430 C.2     1  UNL1        0.1210
     16  N         25.5030  -21.0750  -16.0480 N.2     1  UNL1       -0.2440
     17  C         25.0990  -22.3260  -16.3440 C.2     1  UNL1        0.0320
     18  C         25.0200  -22.7000  -17.7930 C.3     1  UNL1        0.0700
     19  C         24.8040  -23.2590  -15.3600 C.2     1  UNL1        0.0350
     20  C         24.8920  -22.8990  -14.0050 C.2     1  UNL1       -0.0300
     21  C         24.7080  -24.0050  -12.9980 C.3     1  UNL1        0.0500
     22  H         22.8940  -21.6080  -12.8680 H       1  UNL1        0.1700
     23  C         18.2250  -23.4150   -9.2240 C.2     1  UNL1        0.2510
     24  O         17.1280  -23.2330   -9.7410 O.2     1  UNL1       -0.2680
     25  N         18.3950  -23.9830   -7.9780 N.am    1  UNL1       -0.3560
     26  H         19.3050  -23.9620   -7.5400 H       1  UNL1        0.1620
     27  C         17.2670  -24.4100   -7.1670 C.3     1  UNL1        0.1310
     28  C         16.4590  -23.2280   -6.5880 C.3     1  UNL1        0.0320
     29  C         15.1460  -23.6740   -5.9350 C.3     1  UNL1        0.0170
     30  C         17.3050  -22.4300   -5.6070 C.2     1  UNL1       -0.0530
     31  C         18.3120  -21.5770   -6.0840 C.2     1  UNL1        0.0070
     32  C         19.1010  -20.8420   -5.1980 C.2     1  UNL1        0.0010
     33  C         18.8950  -20.9490   -3.8240 C.2     1  UNL1        0.0000
     34  C         17.8970  -21.7900   -3.3360 C.2     1  UNL1        0.0010
     35  C         17.1070  -22.5260   -4.2200 C.2     1  UNL1        0.0070
@<TRIPOS>BOND
     1    18    17    1
     2    17    16    2
     3    17    19    1
     4    16    15    1
     5    19    20    2
     6    15    14    1
     7    15    12    2
     8    14    13    1
     9    20    12    1
    10    20    21    1
    11    12     9    1
    12    13    11    1
    13    22     7    1
    14     9    11    1
    15     9     8   am
    16     7     8   am
    17     7     1    1
    18     2     1    2
    19     2     3    1
    20     8    10    2
    21     1     6    1
    22     3     4    2
    23     6     5    2
    24     4     5    1
    25     4    23    1
    26    24    23    2
    27    23    25   am
    28    25    26    1
    29    25    27    1
    30    27    28    1
    31    28    29    1
    32    28    30    1
    33    31    30    2
    34    31    32    1
    35    30    35    1
    36    32    33    2
    37    35    34    2
    38    33    34    1
