@<TRIPOS>MOLECULE
67403_out_ligand_01.pdbqt
 36 39 0 0 0
SMALL
GASTEIGER

@<TRIPOS>ATOM
      1  N         22.3970  -22.1740  -11.8380 N.pl3   1  UNL1       -0.2810
      2  H         22.5440  -22.6600  -12.7210 H       1  UNL1        0.1790
      3  S         23.6640  -22.4490  -10.7450 S.O2    1  UNL1        0.2660
      4  O         23.2640  -23.4320   -9.7610 O.2     1  UNL1       -0.2000
      5  O         24.0810  -21.1260  -10.3190 O.2     1  UNL1       -0.2000
      6  C         24.9750  -23.0880  -11.7800 C.2     1  UNL1        0.1140
      7  C         26.1620  -23.6180  -11.2490 C.2     1  UNL1        0.0910
      8  C         27.1210  -24.1200  -12.1370 C.2     1  UNL1        0.0390
      9  C         26.9080  -24.0850  -13.5210 C.2     1  UNL1        0.0200
     10  C         25.7390  -23.5260  -14.0430 C.2     1  UNL1        0.0330
     11  C         24.7670  -23.0310  -13.1710 C.2     1  UNL1        0.0450
     12  O         26.3080  -23.6350   -9.8930 O.2     1  UNL1       -0.3540
     13  C         26.9470  -24.7510   -9.2900 C.3     1  UNL1        0.2100
     14  C         25.5480  -23.5180  -15.5160 C.2     1  UNL1        0.2510
     15  N         24.4250  -22.8710  -15.9850 N.am    1  UNL1       -0.3570
     16  H         23.8160  -22.3760  -15.3470 H       1  UNL1        0.1620
     17  O         26.3790  -24.0600  -16.2360 O.2     1  UNL1       -0.2680
     18  C         24.1140  -22.8160  -17.3970 C.3     1  UNL1        0.1180
     19  C         23.0360  -23.8190  -17.7630 C.3     1  UNL1        0.0260
     20  C         21.0690  -22.0740  -11.3430 C.2     1  UNL1        0.0430
     21  C         20.1830  -21.1970  -11.9590 C.2     1  UNL1        0.0310
     22  C         18.8480  -21.1370  -11.5540 C.2     1  UNL1        0.0220
     23  C         18.4160  -21.9770  -10.5090 C.2     1  UNL1        0.0160
     24  S         16.8200  -22.1040   -9.8730 S.3     1  UNL1       -0.0840
     25  C         19.2950  -22.8500   -9.8600 C.2     1  UNL1       -0.0150
     26  C         17.2910  -23.2670   -8.7230 C.2     1  UNL1        0.0740
     27  C         18.6230  -23.5940   -8.8320 C.2     1  UNL1        0.0370
     28  C         20.6430  -22.8900  -10.2920 C.2     1  UNL1        0.0430
     29  C         16.3050  -23.8190   -7.8170 C.2     1  UNL1        0.2600
     30  O         15.5110  -24.6820   -8.1940 O.2     1  UNL1       -0.2670
     31  N         16.3170  -23.3480   -6.4880 N.am    1  UNL1       -0.3470
     32  C         15.2010  -23.7590   -5.6390 C.3     1  UNL1        0.1260
     33  C         17.0140  -22.1220   -6.0900 C.3     1  UNL1        0.1260
     34  C         15.5650  -23.7670   -4.1570 C.3     1  UNL1        0.0200
     35  C         16.1800  -22.4390   -3.7330 C.3     1  UNL1        0.0030
     36  C         17.3840  -22.1170   -4.6090 C.3     1  UNL1        0.0200
@<TRIPOS>BOND
     1    19    18    1
     2    18    15    1
     3    17    14    2
     4    15    14   am
     5    15    16    1
     6    14    10    1
     7    10     9    2
     8    10    11    1
     9     9     8    1
    10    11     6    2
    11     2     1    1
    12     8     7    2
    13    21    22    1
    14    21    20    2
    15     1    20    1
    16     1     3    1
    17     6     7    1
    18     6     3    1
    19    22    23    2
    20    20    28    1
    21     7    12    1
    22     3     5    2
    23     3     4    2
    24    23    24    1
    25    23    25    1
    26    28    25    2
    27    12    13    1
    28    24    26    1
    29    25    27    1
    30    27    26    2
    31    26    29    1
    32    30    29    2
    33    29    31   am
    34    31    33    1
    35    31    32    1
    36    33    36    1
    37    32    34    1
    38    36    35    1
    39    34    35    1
