@<TRIPOS>MOLECULE
674_out_ligand_01.pdbqt
 40 42 0 0 0
SMALL
GASTEIGER

@<TRIPOS>ATOM
      1  C         20.9050  -22.6270   -8.7110 C.2     1  UNL1        0.2960
      2  O         20.9110  -22.3300   -7.5280 O.2     1  UNL1       -0.2590
      3  O         21.8990  -23.2640   -9.3690 O.3     1  UNL1       -0.3030
      4  C         23.2410  -22.8240   -9.0860 C.3     1  UNL1        0.2200
      5  C         24.0670  -24.0650   -8.7780 C.3     1  UNL1        0.0500
      6  C         23.7800  -22.0800  -10.3240 C.2     1  UNL1        0.2510
      7  O         24.4090  -21.0290  -10.2250 O.2     1  UNL1       -0.2700
      8  N         23.5340  -22.7680  -11.5030 N.am    1  UNL1       -0.3250
      9  H         23.0880  -23.6820  -11.4060 H       1  UNL1        0.1690
     10  C         23.8990  -22.3980  -12.8120 C.2     1  UNL1        0.0340
     11  C         24.9540  -23.1100  -13.4020 C.2     1  UNL1        0.0310
     12  C         25.3820  -22.8100  -14.6970 C.2     1  UNL1        0.0270
     13  C         24.7450  -21.7930  -15.4120 C.2     1  UNL1        0.0740
     14  C         23.7060  -21.0640  -14.8350 C.2     1  UNL1        0.0270
     15  C         23.2800  -21.3750  -13.5370 C.2     1  UNL1        0.0310
     16  S         25.3060  -21.4050  -17.0490 S.O2    1  UNL1        0.2390
     17  O         26.6220  -20.8130  -16.9570 O.2     1  UNL1       -0.2060
     18  O         25.0150  -22.5300  -17.9070 O.2     1  UNL1       -0.2060
     19  N         24.2680  -20.1440  -17.4730 N.3     1  UNL1       -0.2250
     20  H         23.3260  -20.4530  -17.6930 H       1  UNL1        0.1360
     21  H         24.2710  -19.4470  -16.7260 H       1  UNL1        0.1360
     22  C         19.8080  -22.3240   -9.6500 C.2     1  UNL1        0.0610
     23  C         20.1550  -21.6310  -10.8200 C.2     1  UNL1        0.0190
     24  C         19.1820  -21.3370  -11.7740 C.2     1  UNL1        0.0010
     25  C         17.8680  -21.7530  -11.5710 C.2     1  UNL1        0.0020
     26  C         17.5220  -22.4600  -10.4160 C.2     1  UNL1        0.0250
     27  C         18.4790  -22.7390   -9.4320 C.2     1  UNL1        0.0390
     28  N         18.1010  -23.5430   -8.2910 N.pl3   1  UNL1       -0.1800
     29  H         18.6500  -23.3200   -7.4560 H       1  UNL1        0.1460
     30  S         16.4580  -23.4620   -7.8260 S.O2    1  UNL1        0.2490
     31  O         15.8390  -24.7680   -7.8920 O.2     1  UNL1       -0.2050
     32  O         15.8880  -22.3260   -8.5230 O.2     1  UNL1       -0.2050
     33  C         16.6110  -23.0210   -6.1270 C.2     1  UNL1        0.1160
     34  C         17.7710  -22.4010   -5.6580 C.2     1  UNL1        0.0700
     35  C         17.8560  -22.0690   -4.3100 C.2     1  UNL1        0.1180
     36  F         18.9610  -21.4710   -3.8460 F       1  UNL1       -0.2060
     37  C         16.8100  -22.3430   -3.4310 C.2     1  UNL1        0.0450
     38  C         15.6530  -22.9620   -3.9090 C.2     1  UNL1        0.0470
     39  C         15.5580  -23.2980   -5.2580 C.2     1  UNL1        0.1390
     40  F         14.4440  -23.9050   -5.6850 F       1  UNL1       -0.2040
@<TRIPOS>BOND
     1    18    16    2
     2    20    19    1
     3    19    16    1
     4    19    21    1
     5    16    17    2
     6    16    13    1
     7    13    14    2
     8    13    12    1
     9    14    15    1
    10    12    11    2
    11    15    10    2
    12    11    10    1
    13    10     8    1
    14    24    25    2
    15    24    23    1
    16    25    26    1
    17     8     9    1
    18     8     6   am
    19    23    22    2
    20    26    27    2
    21     6     7    2
    22     6     4    1
    23    22    27    1
    24    22     1    1
    25    27    28    1
    26     3     4    1
    27     3     1    1
    28     4     5    1
    29     1     2    2
    30    32    30    2
    31    28    30    1
    32    28    29    1
    33    31    30    2
    34    30    33    1
    35    33    34    2
    36    33    39    1
    37    40    39    1
    38    34    35    1
    39    39    38    2
    40    35    36    1
    41    35    37    2
    42    38    37    1
