@<TRIPOS>MOLECULE
67527_out_ligand_01.pdbqt
 34 36 0 0 0
SMALL
GASTEIGER

@<TRIPOS>ATOM
      1  C         19.7720  -23.0410   -9.4750 C.2     1  UNL1        0.0330
      2  C         19.1860  -22.3490  -10.5390 C.2     1  UNL1        0.0190
      3  C         17.7940  -22.2390  -10.6180 C.2     1  UNL1        0.0260
      4  C         16.9710  -22.8210   -9.6430 C.2     1  UNL1        0.0570
      5 CL         15.2740  -22.5960   -9.8430 Cl      1  UNL1       -0.0830
      6  C         17.5560  -23.5230   -8.5870 C.2     1  UNL1        0.0970
      7  C         18.9550  -23.6400   -8.5090 C.2     1  UNL1        0.0430
      8  C         21.2480  -23.1920   -9.3490 C.2     1  UNL1        0.2510
      9  N         21.9950  -22.0350   -9.4260 N.am    1  UNL1       -0.3570
     10  H         21.5320  -21.1370   -9.4080 H       1  UNL1        0.1620
     11  O         21.7320  -24.2990   -9.1500 O.2     1  UNL1       -0.2680
     12  C         23.4340  -22.0520   -9.2450 C.3     1  UNL1        0.1230
     13  C         24.2020  -21.6980  -10.5170 C.3     1  UNL1        0.0240
     14  C         24.9290  -22.9060  -11.1130 C.3     1  UNL1        0.0400
     15  C         24.8570  -22.9220  -12.6200 C.2     1  UNL1       -0.0580
     16  C         25.4010  -23.9870  -13.3480 C.2     1  UNL1        0.0070
     17  C         25.3410  -23.9950  -14.7440 C.2     1  UNL1        0.0070
     18  C         24.7500  -22.9320  -15.4360 C.2     1  UNL1       -0.0620
     19  C         24.6590  -22.9540  -16.9320 C.3     1  UNL1        0.0480
     20  C         24.1980  -21.8720  -14.7090 C.2     1  UNL1        0.0070
     21  C         24.2570  -21.8630  -13.3130 C.2     1  UNL1        0.0070
     22  S         16.5760  -24.3100   -7.3340 S.O2    1  UNL1        0.2470
     23  O         15.5230  -25.0410   -7.9990 O.2     1  UNL1       -0.2050
     24  O         17.4890  -24.9660   -6.4200 O.2     1  UNL1       -0.2050
     25  N         15.9670  -22.9610   -6.4810 N.pl3   1  UNL1       -0.1810
     26  H         15.7590  -22.2380   -7.1690 H       1  UNL1        0.1460
     27  C         16.8470  -22.4560   -5.4580 C.2     1  UNL1        0.0290
     28  C         17.9070  -21.6290   -5.8500 C.2     1  UNL1        0.0310
     29  C         18.7770  -21.0780   -4.9030 C.2     1  UNL1       -0.0600
     30  C         19.9240  -20.2180   -5.3390 C.3     1  UNL1        0.0480
     31  C         18.5850  -21.3800   -3.5530 C.2     1  UNL1        0.0070
     32  C         17.5250  -22.1980   -3.1560 C.2     1  UNL1        0.0090
     33  C         16.6400  -22.7440   -4.0990 C.2     1  UNL1       -0.0400
     34  C         15.5080  -23.6060   -3.6150 C.3     1  UNL1        0.0500
@<TRIPOS>BOND
     1    19    18    1
     2    18    17    2
     3    18    20    1
     4    17    16    1
     5    20    21    2
     6    16    15    2
     7    21    15    1
     8    15    14    1
     9    14    13    1
    10     3     2    1
    11     3     4    2
    12     2     1    2
    13    13    12    1
    14     5     4    1
    15     4     6    1
    16     1     8    1
    17     1     7    1
    18     9    10    1
    19     9     8   am
    20     9    12    1
    21     8    11    2
    22     6     7    2
    23     6    22    1
    24    23    22    2
    25    22    25    1
    26    22    24    2
    27    26    25    1
    28    25    27    1
    29    28    27    2
    30    28    29    1
    31    27    33    1
    32    30    29    1
    33    29    31    2
    34    33    34    1
    35    33    32    2
    36    31    32    1
