@<TRIPOS>MOLECULE
67528_out_ligand_01.pdbqt
 37 40 0 0 0
SMALL
GASTEIGER

@<TRIPOS>ATOM
      1  C         22.2780  -22.9010   -9.0390 C.2     1  UNL1        0.0320
      2  C         21.8110  -24.1890   -9.3250 C.2     1  UNL1        0.0170
      3  C         20.6150  -24.6400   -8.7580 C.2     1  UNL1        0.0090
      4  C         19.8760  -23.8160   -7.8960 C.2     1  UNL1       -0.0440
      5  C         20.3290  -22.5130   -7.6480 C.2     1  UNL1        0.0090
      6  C         21.5230  -22.0600   -8.2140 C.2     1  UNL1        0.0170
      7  C         18.5880  -24.3090   -7.2720 C.3     1  UNL1        0.1520
      8  N         17.5590  -23.2380   -7.1240 N.pl3   1  UNL1       -0.1680
      9  C         17.0630  -23.0810   -5.7790 C.2     1  UNL1        0.0250
     10  C         17.7220  -22.1810   -4.9410 C.2     1  UNL1        0.0240
     11  C         17.2840  -22.0020   -3.6280 C.2     1  UNL1        0.0020
     12  C         16.1900  -22.7270   -3.1530 C.2     1  UNL1        0.0000
     13  C         15.5290  -23.6250   -3.9900 C.2     1  UNL1        0.0020
     14  C         15.9630  -23.8030   -5.3050 C.2     1  UNL1        0.0240
     15  S         16.2940  -23.2640   -8.2900 S.O2    1  UNL1        0.2480
     16  O         16.0420  -24.6470   -8.6470 O.2     1  UNL1       -0.2050
     17  O         15.2160  -22.4050   -7.8390 O.2     1  UNL1       -0.2050
     18  C         17.0180  -22.4560   -9.6970 C.2     1  UNL1        0.0750
     19  C         16.5970  -21.1760  -10.0680 C.2     1  UNL1        0.0250
     20  C         17.1800  -20.5600  -11.1770 C.2     1  UNL1        0.0020
     21  C         18.1810  -21.2150  -11.8960 C.2     1  UNL1        0.0000
     22  C         18.6130  -22.4840  -11.5080 C.2     1  UNL1        0.0020
     23  C         18.0350  -23.1080  -10.4020 C.2     1  UNL1        0.0250
     24  C         23.5500  -22.3770   -9.6070 C.2     1  UNL1        0.2510
     25  N         24.4980  -23.3180   -9.9540 N.am    1  UNL1       -0.3570
     26  H         24.3750  -24.2760   -9.6570 H       1  UNL1        0.1620
     27  O         23.7250  -21.1680   -9.7140 O.2     1  UNL1       -0.2680
     28  C         25.8060  -22.9270  -10.4440 C.3     1  UNL1        0.1230
     29  C         26.0920  -23.5260  -11.8210 C.3     1  UNL1        0.0240
     30  C         24.8290  -23.6910  -12.6690 C.3     1  UNL1        0.0400
     31  C         24.8390  -22.8670  -13.9320 C.2     1  UNL1       -0.0580
     32  C         25.2640  -23.4280  -15.1420 C.2     1  UNL1        0.0070
     33  C         25.2850  -22.6620  -16.3110 C.2     1  UNL1        0.0070
     34  C         24.8700  -21.3260  -16.2920 C.2     1  UNL1       -0.0620
     35  C         24.9200  -20.4940  -17.5390 C.3     1  UNL1        0.0480
     36  C         24.4590  -20.7610  -15.0800 C.2     1  UNL1        0.0070
     37  C         24.4370  -21.5250  -13.9110 C.2     1  UNL1        0.0070
@<TRIPOS>BOND
     1    35    34    1
     2    33    34    2
     3    33    32    1
     4    34    36    1
     5    32    31    2
     6    36    37    2
     7    31    37    1
     8    31    30    1
     9    30    29    1
    10    21    22    2
    11    21    20    1
    12    29    28    1
    13    22    23    1
    14    20    19    2
    15    28    25    1
    16    23    18    2
    17    19    18    1
    18    25    26    1
    19    25    24   am
    20    27    24    2
    21    18    15    1
    22    24     1    1
    23     2     1    2
    24     2     3    1
    25     1     6    1
    26     3     4    2
    27    16    15    2
    28    15    17    2
    29    15     8    1
    30     6     5    2
    31     4     5    1
    32     4     7    1
    33     7     8    1
    34     8     9    1
    35     9    14    2
    36     9    10    1
    37    14    13    1
    38    10    11    2
    39    13    12    2
    40    11    12    1
