@<TRIPOS>MOLECULE
67548_out_ligand_01.pdbqt
 34 36 0 0 0
SMALL
GASTEIGER

@<TRIPOS>ATOM
      1  C         19.8140  -23.0610   -9.5280 C.2     1  UNL1        0.0330
      2  C         19.2630  -22.2800  -10.5450 C.2     1  UNL1        0.0170
      3  C         17.8760  -22.1290  -10.6450 C.2     1  UNL1        0.0090
      4  C         17.0080  -22.7320   -9.7140 C.2     1  UNL1       -0.0390
      5  C         15.5280  -22.5310   -9.8920 C.3     1  UNL1        0.0500
      6  C         17.5760  -23.4980   -8.6780 C.2     1  UNL1        0.0860
      7  C         18.9710  -23.6690   -8.5960 C.2     1  UNL1        0.0420
      8  C         21.2950  -23.1970   -9.4480 C.2     1  UNL1        0.2510
      9  N         22.0190  -22.0510   -9.6970 N.am    1  UNL1       -0.3530
     10  H         21.5400  -21.1610   -9.7250 H       1  UNL1        0.1630
     11  O         21.7960  -24.2780   -9.1560 O.2     1  UNL1       -0.2680
     12  C         23.4560  -22.0170   -9.5370 C.3     1  UNL1        0.1610
     13  C         24.1630  -21.7900  -10.8480 C.2     1  UNL1       -0.0400
     14  C         25.4480  -21.2270  -10.8920 C.2     1  UNL1        0.0110
     15  C         26.0920  -21.0090  -12.1170 C.2     1  UNL1        0.0370
     16  C         25.4560  -21.3390  -13.3150 C.2     1  UNL1        0.0680
     17  C         24.1750  -21.8960  -13.2760 C.2     1  UNL1        0.0370
     18  C         23.5350  -22.1260  -12.0560 C.2     1  UNL1        0.0110
     19  O         25.9610  -21.1590  -14.5730 O.2     1  UNL1       -0.3520
     20  C         25.5330  -19.9950  -15.2810 C.3     1  UNL1        0.1710
     21  C         26.3270  -18.8120  -14.7510 C.3     1  UNL1        0.0340
     22  S         16.5960  -24.3150   -7.4180 S.O2    1  UNL1        0.2630
     23  O         17.4900  -25.1560   -6.6480 O.2     1  UNL1       -0.2000
     24  O         15.4190  -24.8830   -8.0370 O.2     1  UNL1       -0.2000
     25  N         16.0600  -23.0370   -6.4510 N.pl3   1  UNL1       -0.2800
     26  H         15.4350  -22.4100   -6.9540 H       1  UNL1        0.1790
     27  C         16.9280  -22.4820   -5.4610 C.2     1  UNL1        0.0490
     28  C         18.0310  -21.7190   -5.8620 C.2     1  UNL1        0.0370
     29  C         18.8400  -21.0700   -4.9200 C.2     1  UNL1       -0.0600
     30  C         20.0010  -20.2370   -5.3740 C.3     1  UNL1        0.0480
     31  C         18.5570  -21.2290   -3.5630 C.2     1  UNL1        0.0070
     32  C         17.4790  -22.0200   -3.1540 C.2     1  UNL1        0.0090
     33  C         16.6580  -22.6630   -4.0940 C.2     1  UNL1       -0.0350
     34  C         15.5000  -23.4820   -3.6010 C.3     1  UNL1        0.0500
@<TRIPOS>BOND
     1    20    21    1
     2    20    19    1
     3    19    16    1
     4    16    17    2
     5    16    15    1
     6    17    18    1
     7    15    14    2
     8    18    13    2
     9    14    13    1
    10    13    12    1
    11     3     2    1
    12     3     4    2
    13     2     1    2
    14     5     4    1
    15    10     9    1
    16     4     6    1
    17     9    12    1
    18     9     8   am
    19     1     8    1
    20     1     7    1
    21     8    11    2
    22     6     7    2
    23     6    22    1
    24    24    22    2
    25    22    23    2
    26    22    25    1
    27    26    25    1
    28    25    27    1
    29    28    27    2
    30    28    29    1
    31    27    33    1
    32    30    29    1
    33    29    31    2
    34    33    34    1
    35    33    32    2
    36    31    32    1
