@<TRIPOS>MOLECULE
67624_out_ligand_01.pdbqt
 37 40 0 0 0
SMALL
GASTEIGER

@<TRIPOS>ATOM
      1  C         17.5660  -23.4730   -8.6790 C.2     1  UNL1        0.0860
      2  C         18.9630  -23.6500   -8.6440 C.2     1  UNL1        0.0420
      3  C         19.7760  -23.0490   -9.6070 C.2     1  UNL1        0.0330
      4  C         19.1900  -22.2510  -10.5940 C.2     1  UNL1        0.0170
      5  C         17.8030  -22.0830  -10.6380 C.2     1  UNL1        0.0090
      6  C         16.9670  -22.6940   -9.6880 C.2     1  UNL1       -0.0390
      7  C         15.4840  -22.4840   -9.8160 C.3     1  UNL1        0.0500
      8  C         21.2580  -23.1980   -9.6030 C.2     1  UNL1        0.2510
      9  O         21.7610  -24.2450   -9.2130 O.2     1  UNL1       -0.2680
     10  N         21.9860  -22.1090  -10.0300 N.am    1  UNL1       -0.3530
     11  H         21.5300  -21.2140  -10.1460 H       1  UNL1        0.1630
     12  C         23.4330  -22.0970   -9.9990 C.3     1  UNL1        0.1610
     13  C         24.0010  -22.0670  -11.3920 C.2     1  UNL1       -0.0400
     14  C         23.1840  -21.8210  -12.5010 C.2     1  UNL1        0.0110
     15  C         23.7240  -21.8190  -13.7920 C.2     1  UNL1        0.0300
     16  C         25.0920  -22.0440  -14.0190 C.2     1  UNL1        0.0300
     17  C         25.9000  -22.2730  -12.8980 C.2     1  UNL1        0.0300
     18  C         25.3640  -22.2940  -11.6050 C.2     1  UNL1        0.0110
     19  N         25.5740  -22.0490  -15.3370 N.pl3   1  UNL1       -0.3810
     20  C         25.6240  -23.3210  -16.0730 C.3     1  UNL1        0.1230
     21  C         24.5120  -23.3930  -17.1180 C.3     1  UNL1        0.0200
     22  C         24.6470  -22.2660  -18.1440 C.3     1  UNL1        0.0030
     23  C         25.3810  -21.0410  -17.5920 C.3     1  UNL1        0.0200
     24  C         25.1370  -20.8590  -16.0950 C.3     1  UNL1        0.1230
     25  S         16.6400  -24.3050   -7.3920 S.O2    1  UNL1        0.2630
     26  O         17.6100  -24.9930   -6.5630 O.2     1  UNL1       -0.2000
     27  O         15.5230  -25.0290   -7.9520 O.2     1  UNL1       -0.2000
     28  N         16.0800  -23.0180   -6.4540 N.pl3   1  UNL1       -0.2800
     29  H         15.5240  -22.3630   -7.0050 H       1  UNL1        0.1790
     30  C         16.9320  -22.4790   -5.4520 C.2     1  UNL1        0.0490
     31  C         16.7210  -22.7350   -4.0880 C.2     1  UNL1       -0.0350
     32  C         17.5630  -22.1130   -3.1540 C.2     1  UNL1        0.0090
     33  C         15.5920  -23.5900   -3.5840 C.3     1  UNL1        0.0500
     34  C         18.6060  -21.2810   -3.5690 C.2     1  UNL1        0.0070
     35  C         18.8350  -21.0540   -4.9300 C.2     1  UNL1       -0.0600
     36  C         19.9350  -20.1390   -5.3830 C.3     1  UNL1        0.0480
     37  C         17.9810  -21.6480   -5.8660 C.2     1  UNL1        0.0370
@<TRIPOS>BOND
     1    22    23    1
     2    22    21    1
     3    23    24    1
     4    21    20    1
     5    24    19    1
     6    20    19    1
     7    19    16    1
     8    16    15    2
     9    16    17    1
    10    15    14    1
    11    17    18    2
    12    14    13    2
    13    18    13    1
    14    13    12    1
    15     5     4    2
    16     5     6    1
    17     4     3    1
    18    11    10    1
    19    10    12    1
    20    10     8   am
    21     7     6    1
    22     6     1    2
    23     3     8    1
    24     3     2    2
    25     8     9    2
    26     1     2    1
    27     1    25    1
    28    27    25    2
    29    25    26    2
    30    25    28    1
    31    29    28    1
    32    28    30    1
    33    37    30    2
    34    37    35    1
    35    30    31    1
    36    36    35    1
    37    35    34    2
    38    31    33    1
    39    31    32    2
    40    34    32    1
