@<TRIPOS>MOLECULE
67634_out_ligand_01.pdbqt
 34 36 0 0 0
SMALL
GASTEIGER

@<TRIPOS>ATOM
      1  C         19.5640  -22.9100   -9.8490 C.2     1  UNL1        0.0330
      2  C         18.8920  -22.1020  -10.7700 C.2     1  UNL1        0.0170
      3  C         17.5020  -21.9630  -10.6920 C.2     1  UNL1        0.0090
      4  C         16.7600  -22.6080   -9.6860 C.2     1  UNL1       -0.0390
      5  C         15.2680  -22.4230   -9.6840 C.3     1  UNL1        0.0500
      6  C         17.4520  -23.4070   -8.7540 C.2     1  UNL1        0.0860
      7  C         18.8460  -23.5570   -8.8410 C.2     1  UNL1        0.0420
      8  C         21.0430  -23.0760   -9.8920 C.2     1  UNL1        0.2560
      9  N         21.6770  -22.3540  -10.8870 N.am    1  UNL1       -0.3230
     10  H         21.0850  -21.8720  -11.5520 H       1  UNL1        0.1690
     11  O         21.5630  -23.8390   -9.0880 O.2     1  UNL1       -0.2670
     12  C         23.0630  -22.2860  -11.1410 C.2     1  UNL1        0.0350
     13  C         23.9620  -21.5390  -10.3790 C.2     1  UNL1        0.0290
     14  C         25.3230  -21.5180  -10.7000 C.2     1  UNL1        0.0030
     15  C         25.8000  -22.2460  -11.7910 C.2     1  UNL1        0.0180
     16  C         24.9110  -22.9980  -12.5660 C.2     1  UNL1        0.0410
     17  C         23.5470  -23.0130  -12.2370 C.2     1  UNL1        0.0470
     18  C         25.3550  -23.7960  -13.7410 C.2     1  UNL1        0.2930
     19  O         25.3020  -25.0160  -13.7800 O.2     1  UNL1       -0.2590
     20  O         25.8100  -22.9880  -14.7290 O.3     1  UNL1       -0.3230
     21  C         24.8310  -22.6780  -15.7230 C.3     1  UNL1        0.2130
     22  S         16.6200  -24.3040   -7.4440 S.O2    1  UNL1        0.2630
     23  O         15.4490  -24.9470   -8.0040 O.2     1  UNL1       -0.2000
     24  O         17.6100  -25.0920   -6.7410 O.2     1  UNL1       -0.2000
     25  N         16.0520  -23.0780   -6.4350 N.pl3   1  UNL1       -0.2800
     26  H         15.3430  -22.5020   -6.8790 H       1  UNL1        0.1790
     27  C         16.9080  -22.4860   -5.4590 C.2     1  UNL1        0.0490
     28  C         17.9940  -21.7040   -5.8650 C.2     1  UNL1        0.0370
     29  C         18.8170  -21.0690   -4.9270 C.2     1  UNL1       -0.0600
     30  C         19.9710  -20.2270   -5.3880 C.3     1  UNL1        0.0480
     31  C         18.5680  -21.2610   -3.5680 C.2     1  UNL1        0.0070
     32  C         17.5040  -22.0650   -3.1530 C.2     1  UNL1        0.0090
     33  C         16.6650  -22.6900   -4.0890 C.2     1  UNL1       -0.0350
     34  C         15.5260  -23.5330   -3.5890 C.3     1  UNL1        0.0500
@<TRIPOS>BOND
     1    21    20    1
     2    20    18    1
     3    19    18    2
     4    18    16    1
     5    16    17    1
     6    16    15    2
     7    17    12    2
     8    15    14    1
     9    10     9    1
    10    12     9    1
    11    12    13    1
    12     9     8   am
    13     2     3    1
    14     2     1    2
    15    14    13    2
    16     3     4    2
    17     8     1    1
    18     8    11    2
    19     1     7    1
    20     4     5    1
    21     4     6    1
    22     7     6    2
    23     6    22    1
    24    23    22    2
    25    22    24    2
    26    22    25    1
    27    26    25    1
    28    25    27    1
    29    28    27    2
    30    28    29    1
    31    27    33    1
    32    30    29    1
    33    29    31    2
    34    33    34    1
    35    33    32    2
    36    31    32    1
