@<TRIPOS>MOLECULE
67879_out_ligand_01.pdbqt
 30 32 0 0 0
SMALL
GASTEIGER

@<TRIPOS>ATOM
      1  N         26.0780  -20.2850  -11.1240 N.1     1  UNL1       -0.1970
      2  C         25.5850  -21.3200  -10.9380 C.1     1  UNL1        0.0630
      3  C         24.9770  -22.6410  -10.7180 C.3     1  UNL1        0.1620
      4  C         23.4710  -22.5780  -10.6160 C.2     1  UNL1       -0.0450
      5  C         22.8240  -22.8790   -9.4120 C.2     1  UNL1        0.0100
      6  C         21.4300  -22.7990   -9.3100 C.2     1  UNL1        0.0300
      7  C         20.6600  -22.4090  -10.4050 C.2     1  UNL1        0.0340
      8  C         21.3040  -22.1060  -11.6100 C.2     1  UNL1        0.0300
      9  C         22.6960  -22.1880  -11.7170 C.2     1  UNL1        0.0100
     10  N         19.2560  -22.3040  -10.3810 N.am    1  UNL1       -0.3250
     11  C         18.4560  -21.4240  -11.0950 C.2     1  UNL1        0.2460
     12  O         18.8280  -20.6270  -11.9500 O.2     1  UNL1       -0.2710
     13  H         18.7610  -22.9640   -9.7930 H       1  UNL1        0.1690
     14  C         16.9710  -21.5850  -10.7510 C.3     1  UNL1        0.2810
     15  O         16.7610  -22.0480   -9.4100 O.3     1  UNL1       -0.3120
     16  C         16.1340  -23.2600   -9.3260 C.2     1  UNL1        0.2650
     17  O         15.1830  -23.6010  -10.0110 O.2     1  UNL1       -0.2650
     18  C         16.7480  -24.0650   -8.2170 C.3     1  UNL1        0.1720
     19  C         16.4870  -23.5040   -6.8360 C.ar    1  UNL1        0.0750
     20  N         15.3800  -23.8650   -6.2560 N.ar    1  UNL1       -0.1750
     21  N         15.1200  -23.3860   -5.0100 N.ar    1  UNL1       -0.2430
     22  C         15.9260  -22.5490   -4.2770 C.ar    1  UNL1        0.2720
     23  H         14.2440  -23.6730   -4.5850 H       1  UNL1        0.1920
     24  O         15.6250  -22.1660   -3.1530 O.2     1  UNL1       -0.2660
     25  C         17.1860  -22.1390   -4.9170 C.ar    1  UNL1        0.0460
     26  C         18.0740  -21.2920   -4.2440 C.2     1  UNL1        0.0180
     27  C         17.4830  -22.6060   -6.1970 C.ar    1  UNL1        0.0060
     28  C         19.2670  -20.9100   -4.8560 C.2     1  UNL1        0.0010
     29  C         19.5700  -21.3730   -6.1350 C.2     1  UNL1        0.0010
     30  C         18.6840  -22.2210   -6.8070 C.2     1  UNL1        0.0140
@<TRIPOS>BOND
     1    12    11    2
     2     9     8    1
     3     9     4    2
     4     8     7    2
     5     1     2    3
     6    11    14    1
     7    11    10   am
     8     2     3    1
     9    14    15    1
    10     3     4    1
    11     4     5    1
    12     7    10    1
    13     7     6    1
    14    10    13    1
    15    17    16    2
    16     5     6    2
    17    15    16    1
    18    16    18    1
    19    18    19    1
    20    19    20   ar
    21    19    27   ar
    22    30    27    1
    23    30    29    2
    24    20    21   ar
    25    27    25   ar
    26    29    28    1
    27    21    23    1
    28    21    22   ar
    29    25    22   ar
    30    25    26    1
    31    28    26    2
    32    22    24    2
