@<TRIPOS>MOLECULE
68010_out_ligand_01.pdbqt
 34 37 0 0 0
SMALL
GASTEIGER

@<TRIPOS>ATOM
      1  N         23.5390  -23.2470  -10.9830 N.am    1  UNL1       -0.3050
      2  C         23.5620  -22.2550  -10.0190 C.2     1  UNL1        0.2470
      3  O         24.1330  -21.1700  -10.1110 O.2     1  UNL1       -0.2710
      4  H         23.5420  -24.2080  -10.6390 H       1  UNL1        0.1710
      5  C         22.8730  -22.6790   -8.7180 C.3     1  UNL1        0.2820
      6  O         21.4690  -22.4050   -8.7210 O.3     1  UNL1       -0.3080
      7  C         20.7030  -23.3930   -9.2410 C.2     1  UNL1        0.2960
      8  O         21.0250  -24.5630   -9.3700 O.2     1  UNL1       -0.2590
      9  C         19.3980  -22.8360   -9.6040 C.2     1  UNL1        0.0750
     10  C         19.3070  -21.9830  -10.7100 C.2     1  UNL1        0.0220
     11  C         18.0670  -21.4660  -11.0670 C.2     1  UNL1        0.0200
     12  C         16.9680  -21.8220  -10.3040 C.2     1  UNL1        0.1180
     13  N         17.0300  -22.6380   -9.2300 N.2     1  UNL1       -0.2530
     14  C         18.2450  -23.1470   -8.8870 C.2     1  UNL1        0.1140
     15  S         18.2540  -24.1540   -7.4120 S.3     1  UNL1       -0.0700
     16  C         18.3620  -22.8880   -6.1610 C.2     1  UNL1        0.0070
     17  C         17.6870  -23.0500   -4.9480 C.2     1  UNL1        0.0190
     18  C         17.7750  -22.0710   -3.9550 C.2     1  UNL1        0.0010
     19  C         18.5460  -20.9290   -4.1680 C.2     1  UNL1        0.0000
     20  C         19.2290  -20.7660   -5.3720 C.2     1  UNL1        0.0010
     21  C         19.1400  -21.7430   -6.3650 C.2     1  UNL1        0.0190
     22  C         24.1560  -23.0550  -12.1890 C.ar    1  UNL1        0.1670
     23  C         23.9760  -22.2310  -13.2710 C.ar    1  UNL1        0.0990
     24  C         22.9290  -21.3130  -13.6350 C.ar    1  UNL1        0.2770
     25  C         25.0810  -22.4440  -14.1310 C.ar    1  UNL1        0.0390
     26  N         23.2180  -20.6070  -14.7980 N.ar    1  UNL1       -0.2420
     27  O         21.8520  -21.2010  -13.0600 O.2     1  UNL1       -0.2660
     28  N         24.3170  -20.7790  -15.6360 N.ar    1  UNL1       -0.1760
     29  H         22.5120  -19.9560  -15.1180 H       1  UNL1        0.1920
     30  C         25.2300  -21.6620  -15.3350 C.ar    1  UNL1        0.0640
     31  C         26.4050  -21.8440  -16.2530 C.3     1  UNL1        0.0730
     32  C         25.8240  -23.4620  -13.5750 C.ar    1  UNL1        0.0650
     33  O         25.2340  -23.8620  -12.4080 O.2     1  UNL1       -0.2960
     34  C         27.0600  -24.1790  -13.9480 C.3     1  UNL1        0.0770
@<TRIPOS>BOND
     1    31    30    1
     2    28    30   ar
     3    28    26   ar
     4    30    25   ar
     5    29    26    1
     6    26    24   ar
     7    25    32   ar
     8    25    23   ar
     9    34    32    1
    10    24    23   ar
    11    24    27    2
    12    32    33   ar
    13    23    22   ar
    14    33    22   ar
    15    22     1    1
    16    11    10    1
    17    11    12    2
    18     1     4    1
    19     1     2   am
    20    10     9    2
    21    12    13    1
    22     3     2    2
    23     2     5    1
    24     9     7    1
    25     9    14    1
    26     8     7    2
    27     7     6    1
    28    13    14    2
    29    14    15    1
    30     6     5    1
    31    15    16    1
    32    21    16    2
    33    21    20    1
    34    16    17    1
    35    20    19    2
    36    17    18    2
    37    19    18    1
