@<TRIPOS>MOLECULE
6810_out_ligand_01.pdbqt
 35 39 0 0 0
SMALL
GASTEIGER

@<TRIPOS>ATOM
      1  C         23.1560  -23.6850   -9.2370 C.3     1  UNL1        0.0520
      2  C         22.3710  -22.9410  -10.2570 C.ar    1  UNL1       -0.0090
      3  C         22.8800  -22.3340  -11.4000 C.ar    1  UNL1        0.1500
      4  O         21.8640  -21.7420  -12.1000 O.2     1  UNL1       -0.3040
      5  C         20.7160  -21.9470  -11.4090 C.ar    1  UNL1        0.0880
      6  C         19.4760  -21.4580  -11.8010 C.2     1  UNL1        0.0410
      7  C         18.4080  -21.7330  -10.9510 C.2     1  UNL1        0.0400
      8  C         18.5860  -22.4920   -9.7910 C.2     1  UNL1        0.0790
      9  C         19.8360  -23.0560   -9.4450 C.2     1  UNL1        0.0180
     10  C         20.9480  -22.7110  -10.2700 C.ar    1  UNL1        0.0180
     11  C         19.9260  -23.9310   -8.2250 C.3     1  UNL1        0.1570
     12  C         18.5540  -24.3120   -7.6900 C.3     1  UNL1        0.0750
     13  C         17.6030  -23.1120   -7.6860 C.3     1  UNL1        0.0700
     14  C         18.0660  -21.9470   -6.7870 C.3     1  UNL1        0.0380
     15  C         18.1370  -22.3200   -5.3060 C.3     1  UNL1        0.0030
     16  C         16.9890  -23.2270   -4.8590 C.3     1  UNL1        0.0000
     17  C         15.8050  -23.1660   -5.8120 C.3     1  UNL1        0.0030
     18  C         16.1860  -23.5750   -7.2380 C.3     1  UNL1        0.0380
     19  O         17.4470  -22.6330   -9.0380 O.2     1  UNL1       -0.3390
     20  C         24.2240  -22.2330  -11.9430 C.2     1  UNL1        0.2760
     21  O         24.8040  -21.1740  -12.1640 O.2     1  UNL1       -0.2650
     22  N         24.8170  -23.4630  -12.1710 N.am    1  UNL1       -0.3510
     23  H         24.3180  -24.2430  -11.7630 H       1  UNL1        0.1630
     24  C         26.2400  -23.6030  -12.4240 C.3     1  UNL1        0.0810
     25  C         26.9420  -24.2800  -11.2450 C.3     1  UNL1        0.0320
     26  C         26.5360  -24.2730  -13.7810 C.3     1  UNL1        0.0290
     27  C         25.3700  -24.4550  -14.7660 C.3     1  UNL1        0.0400
     28  C         25.2290  -23.3910  -15.8180 C.2     1  UNL1       -0.0580
     29  C         24.5290  -23.6550  -17.0040 C.2     1  UNL1        0.0070
     30  C         24.3960  -22.6690  -17.9840 C.2     1  UNL1        0.0010
     31  C         24.9630  -21.4120  -17.7910 C.2     1  UNL1        0.0000
     32  C         25.6510  -21.1350  -16.6110 C.2     1  UNL1        0.0010
     33  C         25.7810  -22.1180  -15.6290 C.2     1  UNL1        0.0070
     34  O         20.5910  -25.1510   -8.5500 O.3     1  UNL1       -0.3910
     35  H         19.9050  -25.7830   -8.8200 H       1  UNL1        0.2100
@<TRIPOS>BOND
     1    30    31    2
     2    30    29    1
     3    31    32    1
     4    29    28    2
     5    32    33    2
     6    28    33    1
     7    28    27    1
     8    27    26    1
     9    26    24    1
    10    24    22    1
    11    24    25    1
    12    22    20   am
    13    22    23    1
    14    21    20    2
    15     4     5   ar
    16     4     3   ar
    17    20     3    1
    18     6     5    2
    19     6     7    1
    20     5    10   ar
    21     3     2   ar
    22     7     8    2
    23    10     2   ar
    24    10     9    2
    25     2     1    1
    26     8     9    1
    27     8    19    1
    28     9    11    1
    29    19    13    1
    30    35    34    1
    31    34    11    1
    32    11    12    1
    33    12    13    1
    34    13    18    1
    35    13    14    1
    36    18    17    1
    37    14    15    1
    38    17    16    1
    39    15    16    1
