@<TRIPOS>MOLECULE
6833_out_ligand_01.pdbqt
 36 39 0 0 0
SMALL
GASTEIGER

@<TRIPOS>ATOM
      1  C         17.3400  -22.6060   -9.8420 C.2     1  UNL1        0.0810
      2  C         17.0270  -21.5830  -10.7420 C.2     1  UNL1        0.0270
      3  C         18.0350  -21.0200  -11.5300 C.2     1  UNL1        0.0320
      4  C         19.3510  -21.4780  -11.4240 C.2     1  UNL1        0.0460
      5  N         20.3770  -20.9040  -12.1840 N.pl3   1  UNL1       -0.3640
      6  C         21.6580  -21.3950  -12.1120 C.2     1  UNL1        0.1090
      7  C         22.0790  -22.3530  -11.2700 C.2     1  UNL1        0.0980
      8  C         21.0620  -22.9390  -10.3500 C.2     1  UNL1        0.2010
      9  O         21.3580  -23.7890   -9.5150 O.2     1  UNL1       -0.2860
     10  C         19.6540  -22.4770  -10.4820 C.2     1  UNL1        0.0430
     11  C         18.6560  -23.0460   -9.6920 C.2     1  UNL1        0.0430
     12  H         20.1320  -20.3240  -12.9820 H       1  UNL1        0.1650
     13  S         16.0560  -23.3330   -8.8480 S.O2    1  UNL1        0.2630
     14  O         15.3430  -22.2520   -8.2050 O.2     1  UNL1       -0.2000
     15  O         15.3660  -24.3110   -9.6570 O.2     1  UNL1       -0.2000
     16  N         16.9230  -24.1160   -7.6290 N.pl3   1  UNL1       -0.2810
     17  H         16.8760  -25.1300   -7.7200 H       1  UNL1        0.1790
     18  C         16.9360  -23.5630   -6.3170 C.2     1  UNL1        0.0450
     19  C         15.9560  -23.9660   -5.4100 C.2     1  UNL1        0.0300
     20  C         15.9080  -23.3920   -4.1410 C.2     1  UNL1        0.0050
     21  C         16.8420  -22.4180   -3.7850 C.2     1  UNL1        0.0370
     22  C         17.8390  -22.0280   -4.6810 C.2     1  UNL1        0.0700
     23  C         17.8810  -22.6000   -5.9540 C.2     1  UNL1        0.0660
     24  O         18.6870  -21.0630   -4.2120 O.2     1  UNL1       -0.3560
     25  C         19.4030  -20.3210   -5.1920 C.3     1  UNL1        0.2100
     26  C         23.5110  -22.7610  -11.3170 C.2     1  UNL1        0.2570
     27  O         24.1270  -23.0610  -10.2950 O.2     1  UNL1       -0.2670
     28  N         24.0680  -22.7780  -12.5740 N.am    1  UNL1       -0.3520
     29  H         23.4690  -22.5240  -13.3570 H       1  UNL1        0.1630
     30  C         25.4460  -23.1690  -12.8390 C.3     1  UNL1        0.0880
     31  C         25.5110  -24.3070  -13.8680 C.3     1  UNL1        0.0250
     32  C         25.1160  -23.8460  -15.2690 C.3     1  UNL1        0.0020
     33  C         25.9520  -22.6560  -15.7270 C.3     1  UNL1        0.0010
     34  C         25.9070  -21.5080  -14.7250 C.3     1  UNL1        0.0060
     35  C         26.3030  -21.9720  -13.3140 C.3     1  UNL1        0.0040
     36  C         26.2710  -20.7990  -12.3270 C.3     1  UNL1        0.0120
@<TRIPOS>BOND
     1    33    32    1
     2    33    34    1
     3    32    31    1
     4    34    35    1
     5    31    30    1
     6    29    28    1
     7    35    30    1
     8    35    36    1
     9    12     5    1
    10    30    28    1
    11    28    26   am
    12     5     6    1
    13     5     4    1
    14     6     7    2
    15     3     4    2
    16     3     2    1
    17     4    10    1
    18    26     7    1
    19    26    27    2
    20     7     8    1
    21     2     1    2
    22    10     8    1
    23    10    11    2
    24     8     9    2
    25     1    11    1
    26     1    13    1
    27    15    13    2
    28    13    14    2
    29    13    16    1
    30    17    16    1
    31    16    18    1
    32    18    23    2
    33    18    19    1
    34    23    22    1
    35    19    20    2
    36    25    24    1
    37    22    24    1
    38    22    21    2
    39    20    21    1
