@<TRIPOS>MOLECULE
68355_out_ligand_01.pdbqt
 39 43 0 0 0
SMALL
GASTEIGER

@<TRIPOS>ATOM
      1  C         22.8220  -23.3150   -9.1970 C.3     1  UNL1        0.0320
      2  C         23.5580  -23.0040  -10.2840 C.ar    1  UNL1        0.0820
      3  C         23.0600  -22.2520  -11.4850 C.ar    1  UNL1        0.1620
      4  N         21.8190  -21.8930  -11.6320 N.pl3   1  UNL1       -0.2810
      5  N         24.0130  -21.9710  -12.4440 N.ar    1  UNL1       -0.1890
      6  N         23.7190  -21.2660  -13.6010 N.ar    1  UNL1       -0.1590
      7  C         24.8110  -21.1470  -14.2980 C.ar    1  UNL1        0.1230
      8  S         26.2750  -21.8740  -13.6480 S.2     1  UNL1       -0.0310
      9  C         25.3100  -22.3860  -12.2850 C.ar    1  UNL1        0.2010
     10  N         25.8220  -23.0590  -11.3180 N.ar    1  UNL1       -0.1820
     11  C         25.0090  -23.4430  -10.2700 C.ar    1  UNL1        0.2830
     12  O         25.4450  -24.1230   -9.3470 O.2     1  UNL1       -0.2650
     13  H         21.7620  -21.3950  -12.5320 H       1  UNL1        0.1880
     14  C         21.4150  -22.9820   -8.9520 C.2     1  UNL1       -0.0310
     15  C         20.4490  -23.2600   -9.9290 C.2     1  UNL1        0.0510
     16  C         19.1040  -22.9490   -9.7070 C.2     1  UNL1        0.1030
     17  C         18.7270  -22.3850   -8.4760 C.2     1  UNL1        0.1190
     18  C         19.6960  -22.0860   -7.5100 C.2     1  UNL1        0.0480
     19  C         21.0370  -22.3910   -7.7430 C.2     1  UNL1        0.0330
     20 BR         19.2340  -21.2760   -5.8550 Br      1  UNL1       -0.0480
     21  O         18.0960  -23.1680  -10.6120 O.2     1  UNL1       -0.3530
     22  C         17.8880  -22.1690  -11.6030 C.3     1  UNL1        0.2100
     23  O         17.4150  -22.0530   -8.2330 O.2     1  UNL1       -0.3420
     24  C         16.6560  -23.2130   -7.8630 C.3     1  UNL1        0.2170
     25  C         16.1780  -23.0870   -6.4380 C.2     1  UNL1        0.0040
     26  C         15.0900  -22.2750   -6.0840 C.2     1  UNL1        0.0120
     27  C         14.6550  -22.2090   -4.7580 C.2     1  UNL1        0.0010
     28  C         15.2910  -22.9620   -3.7720 C.2     1  UNL1        0.0030
     29  C         16.3610  -23.7850   -4.1120 C.2     1  UNL1        0.0430
     30  C         16.7900  -23.8440   -5.4360 C.2     1  UNL1        0.1240
     31  F         17.8110  -24.6560   -5.7440 F       1  UNL1       -0.2050
     32  C         24.8900  -20.4190  -15.6120 C.3     1  UNL1        0.2440
     33  O         26.2500  -20.0400  -15.7880 O.2     1  UNL1       -0.3450
     34  C         26.5030  -18.7070  -15.9630 C.2     1  UNL1        0.0690
     35  C         26.3450  -18.2530  -17.2760 C.2     1  UNL1        0.0370
     36  C         26.5710  -16.9140  -17.5970 C.2     1  UNL1        0.0030
     37  C         26.9600  -16.0170  -16.6040 C.2     1  UNL1        0.0000
     38  C         27.1210  -16.4640  -15.2930 C.2     1  UNL1        0.0030
     39  C         26.8940  -17.8060  -14.9710 C.2     1  UNL1        0.0370
@<TRIPOS>BOND
     1    36    35    1
     2    36    37    2
     3    35    34    2
     4    37    38    1
     5    34    33    1
     6    34    39    1
     7    33    32    1
     8    32     7    1
     9    38    39    2
    10     7     8   ar
    11     7     6   ar
    12     8     9   ar
    13     6     5   ar
    14    13     4    1
    15     5     9   ar
    16     5     3   ar
    17     9    10   ar
    18     4     3    1
    19    22    21    1
    20     3     2   ar
    21    10    11   ar
    22    21    16    1
    23     2    11   ar
    24     2     1    1
    25    11    12    2
    26    15    16    1
    27    15    14    2
    28    16    17    2
    29     1    14    1
    30    14    19    1
    31    17    23    1
    32    17    18    1
    33    23    24    1
    34    24    25    1
    35    19    18    2
    36    18    20    1
    37    25    26    2
    38    25    30    1
    39    26    27    1
    40    31    30    1
    41    30    29    2
    42    27    28    2
    43    29    28    1
