@<TRIPOS>MOLECULE
68399_out_ligand_01.pdbqt
 32 35 0 0 0
SMALL
GASTEIGER

@<TRIPOS>ATOM
      1  C         20.2950  -23.0780   -8.7060 C.ar    1  UNL1        0.1000
      2  N         21.4020  -23.8000   -8.4230 N.ar    1  UNL1       -0.1470
      3  N         22.4280  -23.8690   -9.3240 N.ar    1  UNL1       -0.1310
      4  C         22.3610  -23.2210  -10.5060 C.ar    1  UNL1        0.1610
      5  C         21.2180  -22.4620  -10.8520 C.ar    1  UNL1        0.0240
      6  C         21.0800  -21.7880  -12.0930 C.2     1  UNL1        0.0160
      7  C         19.9510  -21.0270  -12.3950 C.2     1  UNL1        0.0010
      8  C         18.9290  -20.9170  -11.4670 C.2     1  UNL1        0.0010
      9  C         19.0300  -21.5820  -10.2450 C.2     1  UNL1        0.0150
     10  C         20.1590  -22.3750   -9.9180 C.ar    1  UNL1        0.0090
     11  N         23.4660  -23.2680  -11.4040 N.pl3   1  UNL1       -0.3390
     12  H         23.1890  -23.8110  -12.2160 H       1  UNL1        0.1670
     13  C         24.3080  -22.1900  -11.7600 C.2     1  UNL1        0.0330
     14  C         25.0830  -21.5060  -10.8130 C.2     1  UNL1        0.0320
     15  C         25.9310  -20.4630  -11.1960 C.2     1  UNL1        0.0390
     16  C         26.0080  -20.0950  -12.5340 C.2     1  UNL1        0.0690
     17  C         25.3010  -20.8040  -13.4980 C.2     1  UNL1        0.0390
     18  C         24.4590  -21.8510  -13.1120 C.2     1  UNL1        0.0320
     19  O         26.8000  -19.0650  -12.9590 O.2     1  UNL1       -0.3420
     20  C         27.1170  -19.1570  -14.3460 C.3     1  UNL1        0.2780
     21  C         26.7490  -17.9130  -15.1590 C.2     1  UNL1        0.2390
     22  N         25.9660  -18.1350  -16.2620 N.am    1  UNL1       -0.3680
     23  H         25.8500  -17.3290  -16.8650 H       1  UNL1        0.1590
     24  H         26.0200  -19.0280  -16.7380 H       1  UNL1        0.1590
     25  O         27.1210  -16.7780  -14.8800 O.2     1  UNL1       -0.2710
     26  C         19.2810  -23.1080   -7.6440 C.2     1  UNL1       -0.0050
     27  C         18.3620  -24.1660   -7.5650 C.2     1  UNL1        0.0140
     28  C         17.3920  -24.2050   -6.5570 C.2     1  UNL1        0.0070
     29  C         17.3080  -23.1740   -5.6160 C.2     1  UNL1       -0.0620
     30  C         16.2830  -23.2160   -4.5220 C.3     1  UNL1        0.0480
     31  C         18.2190  -22.1140   -5.6870 C.2     1  UNL1        0.0070
     32  C         19.1880  -22.0780   -6.6940 C.2     1  UNL1        0.0140
@<TRIPOS>BOND
     1    23    22    1
     2    24    22    1
     3    22    21   am
     4    21    25    2
     5    21    20    1
     6    20    19    1
     7    17    18    1
     8    17    16    2
     9    18    13    2
    10    19    16    1
    11    16    15    1
    12     7     6    2
    13     7     8    1
    14    12    11    1
    15     6     5    1
    16    13    11    1
    17    13    14    1
    18     8     9    2
    19    11     4    1
    20    15    14    2
    21     5     4   ar
    22     5    10   ar
    23     4     3   ar
    24     9    10    1
    25    10     1   ar
    26     3     2   ar
    27     1     2   ar
    28     1    26    1
    29    26    27    2
    30    26    32    1
    31    27    28    1
    32    32    31    2
    33    28    29    2
    34    31    29    1
    35    29    30    1
