@<TRIPOS>MOLECULE
68775_out_ligand_01.pdbqt
 37 40 0 0 0
SMALL
GASTEIGER

@<TRIPOS>ATOM
      1  C         19.3230  -22.6390   -9.7130 C.2     1  UNL1       -0.0180
      2  C         20.7240  -22.7310   -9.7980 C.2     1  UNL1        0.0180
      3  C         21.5310  -22.5470   -8.6690 C.2     1  UNL1       -0.0420
      4  C         20.9250  -22.2710   -7.4350 C.2     1  UNL1        0.0480
      5  C         19.5350  -22.1730   -7.3190 C.2     1  UNL1        0.1030
      6  C         18.7370  -22.3230   -8.4710 C.2     1  UNL1        0.1090
      7  C         23.0360  -22.6770   -8.7620 C.3     1  UNL1        0.1310
      8  N         23.5620  -21.5320   -9.4930 N.pl3   1  UNL1       -0.2890
      9  H         24.0350  -20.8720   -8.8790 H       1  UNL1        0.1280
     10  C         24.2630  -21.7260  -10.6860 C.2     1  UNL1        0.0080
     11  C         23.8330  -22.7440  -11.5480 C.2     1  UNL1        0.0260
     12  C         24.5220  -23.0430  -12.7280 C.2     1  UNL1        0.0390
     13  C         25.6710  -22.3260  -13.0550 C.2     1  UNL1        0.0760
     14  C         26.1530  -21.3540  -12.1830 C.2     1  UNL1        0.0390
     15  C         25.4560  -21.0630  -11.0040 C.2     1  UNL1        0.0260
     16  O         26.4150  -22.5870  -14.1810 O.2     1  UNL1       -0.3110
     17  C         25.8580  -22.2470  -15.3930 C.2     1  UNL1        0.0760
     18  C         25.8390  -20.9340  -15.8670 C.2     1  UNL1        0.0370
     19  C         25.2880  -20.6580  -17.1200 C.2     1  UNL1        0.0030
     20  C         24.7760  -21.6950  -17.9000 C.2     1  UNL1        0.0000
     21  C         24.8190  -23.0090  -17.4340 C.2     1  UNL1        0.0030
     22  C         25.3670  -23.2870  -16.1830 C.2     1  UNL1        0.0370
     23  C         18.4920  -22.8410  -10.9650 C.3     1  UNL1        0.0680
     24  C         18.2840  -21.5720  -11.7490 C.2     1  UNL1       -0.0320
     25  C         19.1320  -20.5340  -11.7480 C.2     1  UNL1        0.0070
     26  O         18.8890  -21.9370   -6.1330 O.2     1  UNL1       -0.3490
     27  C         19.2750  -20.7820   -5.3930 C.3     1  UNL1        0.1710
     28  C         18.6320  -20.8730   -4.0190 C.3     1  UNL1        0.0340
     29  O         17.3630  -22.2530   -8.4480 O.2     1  UNL1       -0.3430
     30  C         16.7130  -23.4630   -8.0470 C.3     1  UNL1        0.2170
     31  C         16.1390  -23.2480   -6.6700 C.2     1  UNL1        0.0040
     32  C         15.0800  -22.3490   -6.4710 C.2     1  UNL1        0.0120
     33  C         14.5450  -22.1540   -5.1950 C.2     1  UNL1        0.0010
     34  C         15.0610  -22.8550   -4.1050 C.2     1  UNL1        0.0030
     35  C         16.1130  -23.7500   -4.2920 C.2     1  UNL1        0.0430
     36  C         16.6410  -23.9400   -5.5670 C.2     1  UNL1        0.1240
     37  F         17.6550  -24.8040   -5.7170 F       1  UNL1       -0.2050
@<TRIPOS>BOND
     1    20    21    2
     2    20    19    1
     3    21    22    1
     4    19    18    2
     5    22    17    2
     6    18    17    1
     7    17    16    1
     8    16    13    1
     9    13    12    2
    10    13    14    1
    11    12    11    1
    12    14    15    2
    13    24    25    2
    14    24    23    1
    15    11    10    2
    16    15    10    1
    17    23     1    1
    18    10     8    1
    19     2     1    2
    20     2     3    1
    21     1     6    1
    22     8     9    1
    23     8     7    1
    24     7     3    1
    25     3     4    2
    26     6    29    1
    27     6     5    2
    28    29    30    1
    29    30    31    1
    30     4     5    1
    31     5    26    1
    32    31    32    2
    33    31    36    1
    34    32    33    1
    35    26    27    1
    36    37    36    1
    37    36    35    2
    38    27    28    1
    39    33    34    2
    40    35    34    1
