@<TRIPOS>MOLECULE
6905_out_ligand_01.pdbqt
 37 40 0 0 0
SMALL
GASTEIGER

@<TRIPOS>ATOM
      1  C         23.5520  -22.5000   -9.9970 C.2     1  UNL1        0.0320
      2  C         22.5300  -23.3180  -10.4870 C.2     1  UNL1        0.0190
      3  C         21.3030  -23.4020   -9.8170 C.2     1  UNL1        0.0300
      4  C         21.0890  -22.6810   -8.6400 C.2     1  UNL1        0.0360
      5  C         22.1220  -21.8730   -8.1430 C.2     1  UNL1        0.0300
      6  C         23.3470  -21.7820   -8.8130 C.2     1  UNL1        0.0190
      7  C         24.8380  -22.4370  -10.7430 C.2     1  UNL1        0.2510
      8  N         25.2560  -23.6130  -11.3350 N.am    1  UNL1       -0.3570
      9  H         24.8460  -24.4720  -10.9920 H       1  UNL1        0.1620
     10  O         25.4810  -21.3950  -10.7780 O.2     1  UNL1       -0.2680
     11  C         26.5730  -23.6960  -11.9430 C.3     1  UNL1        0.1270
     12  C         26.5200  -24.3790  -13.3080 C.3     1  UNL1        0.0580
     13  C         25.9840  -23.4670  -14.3830 C.2     1  UNL1       -0.0540
     14  C         26.6260  -23.3740  -15.6200 C.2     1  UNL1        0.0100
     15  C         26.1320  -22.5250  -16.6140 C.2     1  UNL1        0.0400
     16  C         24.9890  -21.7510  -16.3820 C.2     1  UNL1        0.1010
     17  C         24.3410  -21.8280  -15.1330 C.2     1  UNL1        0.1020
     18  C         24.8440  -22.6830  -14.1440 C.2     1  UNL1        0.0460
     19  O         24.4310  -20.8980  -17.3010 O.2     1  UNL1       -0.3530
     20  C         25.3010  -20.0190  -17.9970 C.3     1  UNL1        0.2100
     21  O         23.2280  -21.0360  -14.9820 O.2     1  UNL1       -0.3530
     22  C         22.5650  -21.0630  -13.7260 C.3     1  UNL1        0.2100
     23  N         19.8870  -22.7040   -7.9100 N.am    1  UNL1       -0.3090
     24  C         18.6120  -22.3760   -8.3390 C.2     1  UNL1        0.3270
     25  O         18.3140  -22.0900   -9.4970 O.2     1  UNL1       -0.2460
     26  N         17.6400  -22.4780   -7.3150 N.am    1  UNL1       -0.2990
     27  C         16.2470  -22.3470   -7.7570 C.3     1  UNL1        0.1340
     28  C         17.9220  -22.1200   -5.9600 C.2     1  UNL1        0.0450
     29  C         15.1910  -23.0030   -6.8740 C.3     1  UNL1        0.0210
     30  C         15.7120  -24.2970   -6.2680 C.3     1  UNL1        0.0060
     31  C         16.4860  -24.0500   -4.9750 C.3     1  UNL1        0.0410
     32  C         17.3750  -22.8290   -4.8740 C.2     1  UNL1       -0.0310
     33  C         17.7270  -22.4280   -3.5660 C.2     1  UNL1        0.0090
     34  C         18.5760  -21.3460   -3.3350 C.2     1  UNL1        0.0010
     35  C         19.0990  -20.6420   -4.4090 C.2     1  UNL1        0.0020
     36  C         18.7750  -21.0270   -5.7090 C.2     1  UNL1        0.0300
     37  H         19.9300  -23.0730   -6.9700 H       1  UNL1        0.1700
@<TRIPOS>BOND
     1    20    19    1
     2    19    16    1
     3    15    16    2
     4    15    14    1
     5    16    17    1
     6    14    13    2
     7    17    21    1
     8    17    18    2
     9    21    22    1
    10    13    18    1
    11    13    12    1
    12    12    11    1
    13    11     8    1
    14     8     9    1
    15     8     7   am
    16    10     7    2
    17     7     1    1
    18     2     1    2
    19     2     3    1
    20     1     6    1
    21     3     4    2
    22    25    24    2
    23     6     5    2
    24     4     5    1
    25     4    23    1
    26    24    23   am
    27    24    26   am
    28    23    37    1
    29    27    26    1
    30    27    29    1
    31    26    28    1
    32    29    30    1
    33    30    31    1
    34    28    36    2
    35    28    32    1
    36    36    35    1
    37    31    32    1
    38    32    33    2
    39    35    34    2
    40    33    34    1
