@<TRIPOS>MOLECULE
691_out_ligand_01.pdbqt
 34 36 0 0 0
SMALL
GASTEIGER

@<TRIPOS>ATOM
      1  C         22.2990  -23.2930   -8.6930 C.2     1  UNL1        0.0320
      2  C         21.5360  -24.4440   -8.9360 C.2     1  UNL1        0.0180
      3  C         20.2040  -24.5080   -8.5250 C.2     1  UNL1        0.0260
      4  C         19.6360  -23.4150   -7.8640 C.2     1  UNL1        0.0740
      5  C         20.3930  -22.2730   -7.5880 C.2     1  UNL1        0.0260
      6  C         21.7270  -22.2130   -8.0030 C.2     1  UNL1        0.0180
      7  S         17.9410  -23.5120   -7.3330 S.O2    1  UNL1        0.2450
      8  O         17.8010  -24.7130   -6.5420 O.2     1  UNL1       -0.2060
      9  O         17.5520  -22.2090   -6.8360 O.2     1  UNL1       -0.2060
     10  N         17.1600  -23.6810   -8.8410 N.pl3   1  UNL1       -0.1810
     11  H         17.3910  -24.6210   -9.1720 H       1  UNL1        0.1460
     12  C         17.5170  -22.6910   -9.8100 C.2     1  UNL1        0.0230
     13  C         16.5630  -21.7570  -10.2080 C.2     1  UNL1        0.0240
     14  C         16.9030  -20.7630  -11.1230 C.2     1  UNL1        0.0030
     15  C         18.2030  -20.6940  -11.6280 C.2     1  UNL1        0.0160
     16  C         19.1800  -21.6100  -11.2080 C.2     1  UNL1        0.0490
     17  C         18.8250  -22.6140  -10.2910 C.2     1  UNL1        0.0400
     18  C         20.5870  -21.5420  -11.7470 C.3     1  UNL1        0.4170
     19  F         21.3810  -20.7230  -11.0030 F       1  UNL1       -0.1660
     20  F         20.6420  -21.0580  -13.0190 F       1  UNL1       -0.1660
     21  F         21.2170  -22.7490  -11.7790 F       1  UNL1       -0.1660
     22  C         23.7150  -23.2760   -9.1520 C.2     1  UNL1        0.2510
     23  O         24.4780  -24.1730   -8.8170 O.2     1  UNL1       -0.2680
     24  N         24.0780  -22.2380   -9.9860 N.am    1  UNL1       -0.3570
     25  H         23.3630  -21.6420  -10.3780 H       1  UNL1        0.1620
     26  C         25.4120  -22.1570  -10.5480 C.3     1  UNL1        0.1240
     27  C         25.4360  -21.3700  -11.8550 C.3     1  UNL1        0.0390
     28  C         24.3690  -21.8850  -12.8160 C.3     1  UNL1        0.1270
     29  N         24.8970  -22.7020  -13.8970 N.am    1  UNL1       -0.3520
     30  C         25.2380  -24.0940  -13.7330 C.3     1  UNL1        0.1260
     31  C         25.7470  -24.4890  -15.1050 C.3     1  UNL1        0.0290
     32  C         24.9060  -23.6470  -16.0550 C.3     1  UNL1        0.1040
     33  C         24.5480  -22.4370  -15.2230 C.2     1  UNL1        0.2190
     34  O         23.9930  -21.4360  -15.6450 O.2     1  UNL1       -0.2730
@<TRIPOS>BOND
     1    32    33    1
     2    32    31    1
     3    34    33    2
     4    33    29   am
     5    31    30    1
     6    29    30    1
     7    29    28    1
     8    20    18    1
     9    28    27    1
    10    27    26    1
    11    21    18    1
    12    18    16    1
    13    18    19    1
    14    15    16    2
    15    15    14    1
    16    16    17    1
    17    14    13    2
    18    26    24    1
    19    25    24    1
    20    17    12    2
    21    13    12    1
    22    24    22   am
    23    12    10    1
    24    11    10    1
    25    22    23    2
    26    22     1    1
    27     2     1    2
    28     2     3    1
    29    10     7    1
    30     1     6    1
    31     3     4    2
    32     6     5    2
    33     4     5    1
    34     4     7    1
    35     7     9    2
    36     7     8    2
