@<TRIPOS>MOLECULE
69210_out_ligand_01.pdbqt
 35 38 0 0 0
SMALL
GASTEIGER

@<TRIPOS>ATOM
      1  C         20.2640  -22.4830   -8.9150 C.2     1  UNL1       -0.0070
      2  C         20.5850  -22.6930  -10.2670 C.2     1  UNL1        0.0150
      3  C         21.9050  -22.5880  -10.7200 C.2     1  UNL1        0.0180
      4  C         22.9300  -22.2680   -9.8230 C.2     1  UNL1        0.0320
      5  C         22.6170  -22.0240   -8.4800 C.2     1  UNL1        0.0180
      6  C         21.2970  -22.1300   -8.0330 C.2     1  UNL1        0.0150
      7  C         24.3500  -22.1480  -10.2520 C.2     1  UNL1        0.2510
      8  O         24.8370  -21.0470  -10.4810 O.2     1  UNL1       -0.2680
      9  N         25.0700  -23.3210  -10.3200 N.am    1  UNL1       -0.3560
     10  H         24.6960  -24.1670   -9.9150 H       1  UNL1        0.1620
     11  C         26.4980  -23.3130  -10.6090 C.3     1  UNL1        0.1370
     12  C         26.8450  -23.9230  -11.9770 C.3     1  UNL1        0.1130
     13  N         25.6190  -24.4130  -12.6250 N.pl3   1  UNL1       -0.2750
     14  H         25.7440  -25.3870  -12.8890 H       1  UNL1        0.1290
     15  C         25.2550  -23.7010  -13.7860 C.2     1  UNL1        0.1080
     16  N         24.8720  -22.4120  -13.6810 N.2     1  UNL1       -0.2480
     17  C         24.5180  -21.7530  -14.8050 C.2     1  UNL1        0.1180
     18  C         24.5170  -22.3220  -16.0630 C.2     1  UNL1        0.0200
     19  C         24.8970  -23.6520  -16.1700 C.2     1  UNL1        0.0110
     20  C         25.2640  -24.3680  -15.0220 C.2     1  UNL1       -0.0220
     21  C         25.6600  -25.8100  -15.1420 C.3     1  UNL1        0.0520
     22  C         18.8710  -22.5920   -8.4580 C.2     1  UNL1        0.0760
     23  C         17.7600  -22.4260   -9.2870 C.2     1  UNL1       -0.0040
     24  C         16.4940  -22.5710   -8.7040 C.2     1  UNL1        0.0250
     25  C         16.3640  -22.8740   -7.3440 C.2     1  UNL1       -0.0070
     26  C         15.1070  -23.0350   -6.7360 C.2     1  UNL1        0.0140
     27  C         17.5400  -23.0160   -6.5900 C.2     1  UNL1        0.0680
     28  C         15.0150  -23.3360   -5.3780 C.2     1  UNL1        0.0070
     29  C         16.1740  -23.4670   -4.6120 C.2     1  UNL1       -0.0600
     30  C         16.0950  -23.8270   -3.1580 C.3     1  UNL1        0.0480
     31  C         17.4220  -23.3160   -5.2380 C.2     1  UNL1        0.0390
     32  N         18.7610  -22.8740   -7.1330 N.2     1  UNL1       -0.2470
     33  C         17.8490  -22.0520  -10.7410 C.3     1  UNL1        0.2050
     34  O         16.9190  -21.0210  -11.0550 O.3     1  UNL1       -0.3960
     35  H         17.3800  -20.1690  -10.9640 H       1  UNL1        0.2090
@<TRIPOS>BOND
     1    19    18    2
     2    19    20    1
     3    18    17    1
     4    21    20    1
     5    20    15    2
     6    17    16    2
     7    15    16    1
     8    15    13    1
     9    14    13    1
    10    13    12    1
    11    12    11    1
    12    34    35    1
    13    34    33    1
    14    33    23    1
    15     3     2    1
    16     3     4    2
    17    11     9    1
    18     8     7    2
    19     9     7   am
    20     9    10    1
    21     2     1    2
    22     7     4    1
    23     4     5    1
    24    23    24    1
    25    23    22    2
    26     1    22    1
    27     1     6    1
    28    24    25    2
    29     5     6    2
    30    22    32    1
    31    25    26    1
    32    25    27    1
    33    32    27    2
    34    26    28    2
    35    27    31    1
    36    28    29    1
    37    31    29    2
    38    29    30    1
