@<TRIPOS>MOLECULE
69676_out_ligand_01.pdbqt
 45 48 0 0 0
SMALL
GASTEIGER

@<TRIPOS>ATOM
      1  C         23.2380  -22.0600  -10.0770 C.2     1  UNL1        0.2560
      2  O         23.3990  -21.1210   -9.3060 O.2     1  UNL1       -0.2670
      3  N         22.3080  -23.0790   -9.9530 N.am    1  UNL1       -0.3230
      4  H         22.4110  -23.8710  -10.5750 H       1  UNL1        0.1690
      5  C         21.2630  -23.1750   -9.0120 C.2     1  UNL1        0.0350
      6  C         20.3960  -24.2690   -8.9200 C.2     1  UNL1        0.0310
      7  C         19.3980  -24.3090   -7.9380 C.2     1  UNL1        0.0270
      8  C         19.2660  -23.2440   -7.0470 C.2     1  UNL1        0.0800
      9  C         20.1320  -22.1500   -7.1160 C.2     1  UNL1        0.0270
     10  C         21.1210  -22.1160   -8.1030 C.2     1  UNL1        0.0310
     11  S         18.0430  -23.3150   -5.7650 S.O2    1  UNL1        0.2630
     12  O         18.5190  -22.5610   -4.6220 O.2     1  UNL1       -0.2000
     13  O         17.6330  -24.6980   -5.6220 O.2     1  UNL1       -0.2000
     14  N         16.7210  -22.5140   -6.4570 N.pl3   1  UNL1       -0.2810
     15  H         16.6610  -21.5640   -6.0940 H       1  UNL1        0.1790
     16  C         16.4900  -22.6940   -7.8480 C.2     1  UNL1        0.0430
     17  C         15.7580  -23.7970   -8.2800 C.2     1  UNL1        0.0300
     18  C         15.5520  -24.0010   -9.6440 C.2     1  UNL1        0.0030
     19  C         16.0780  -23.1000  -10.5730 C.2     1  UNL1        0.0160
     20  C         16.8130  -21.9820  -10.1440 C.2     1  UNL1        0.0500
     21  C         17.0220  -21.7920   -8.7700 C.2     1  UNL1        0.0460
     22  C         17.4000  -21.0250  -11.1520 C.3     1  UNL1        0.4170
     23  F         18.7440  -20.8630  -10.9990 F       1  UNL1       -0.1660
     24  F         16.8610  -19.7790  -11.0600 F       1  UNL1       -0.1660
     25  F         17.2190  -21.4220  -12.4420 F       1  UNL1       -0.1660
     26  C         24.1410  -22.1670  -11.2590 C.2     1  UNL1        0.0320
     27  C         24.6870  -21.0360  -11.8800 C.2     1  UNL1        0.0170
     28  C         25.5330  -21.1810  -12.9830 C.2     1  UNL1        0.0090
     29  C         25.8580  -22.4550  -13.4720 C.2     1  UNL1       -0.0440
     30  C         25.3320  -23.5840  -12.8280 C.2     1  UNL1        0.0090
     31  C         24.4790  -23.4410  -11.7310 C.2     1  UNL1        0.0170
     32  C         26.7910  -22.6050  -14.6550 C.3     1  UNL1        0.1510
     33  N         26.1420  -22.2610  -15.9520 N.pl3   1  UNL1       -0.1720
     34  C         26.2030  -20.8620  -16.2930 C.2     1  UNL1        0.0260
     35  C         25.8130  -20.3820  -17.5400 C.2     1  UNL1        0.0250
     36  C         25.8490  -19.0110  -17.8000 C.2     1  UNL1        0.0090
     37  C         26.2660  -18.1020  -16.8150 C.2     1  UNL1       -0.0560
     38  C         26.2870  -16.6310  -17.1350 C.3     1  UNL1        0.0490
     39  C         26.6600  -18.5860  -15.5510 C.2     1  UNL1       -0.0540
     40  C         26.6170  -19.9680  -15.3020 C.2     1  UNL1        0.0320
     41  C         27.1200  -17.6540  -14.4630 C.3     1  UNL1        0.0490
     42  S         24.6290  -23.0230  -16.1850 S.O2    1  UNL1        0.2120
     43  C         24.4780  -22.9960  -17.9610 C.3     1  UNL1        0.1800
     44  O         23.5820  -22.2010  -15.6100 O.2     1  UNL1       -0.2110
     45  O         24.7560  -24.4110  -15.7880 O.2     1  UNL1       -0.2110
@<TRIPOS>BOND
     1    43    42    1
     2    36    35    1
     3    36    37    2
     4    35    34    2
     5    38    37    1
     6    37    39    1
     7    34    33    1
     8    34    40    1
     9    42    33    1
    10    42    45    2
    11    42    44    2
    12    33    32    1
    13    39    40    2
    14    39    41    1
    15    32    29    1
    16    29    28    2
    17    29    30    1
    18    28    27    1
    19    30    31    2
    20    25    22    1
    21    27    26    2
    22    31    26    1
    23    26     1    1
    24    22    24    1
    25    22    23    1
    26    22    20    1
    27     4     3    1
    28    19    20    2
    29    19    18    1
    30    20    21    1
    31     1     3   am
    32     1     2    2
    33     3     5    1
    34    18    17    2
    35     5     6    2
    36     5    10    1
    37     6     7    1
    38    21    16    2
    39    17    16    1
    40    10     9    2
    41     7     8    2
    42    16    14    1
    43     9     8    1
    44     8    11    1
    45    14    15    1
    46    14    11    1
    47    11    13    2
    48    11    12    2
