@<TRIPOS>MOLECULE
69906_out_ligand_01.pdbqt
 38 41 0 0 0
SMALL
GASTEIGER

@<TRIPOS>ATOM
      1  C         17.2410  -21.8660  -10.6570 C.2     1  UNL1        0.0700
      2  C         17.6630  -21.0710  -11.7170 C.2     1  UNL1        0.0380
      3  C         19.0270  -20.9270  -11.9770 C.2     1  UNL1        0.0160
      4  C         19.9760  -21.5750  -11.1770 C.2     1  UNL1       -0.0080
      5  C         21.3960  -21.4120  -11.4640 C.2     1  UNL1        0.0270
      6  C         22.3330  -22.0410  -10.7370 C.2     1  UNL1        0.0240
      7  C         21.9220  -22.9120   -9.5930 C.2     1  UNL1        0.2560
      8  O         22.7850  -23.5150   -8.9580 O.2     1  UNL1       -0.2670
      9  N         20.5640  -23.0240   -9.3080 N.am    1  UNL1       -0.3040
     10  C         19.5660  -22.3750  -10.1020 C.2     1  UNL1        0.0510
     11  C         18.1920  -22.5130   -9.8570 C.2     1  UNL1        0.0670
     12  C         23.8260  -21.9480  -10.9350 C.3     1  UNL1        0.1360
     13  N         24.3580  -23.1810  -11.5240 N.pl3   1  UNL1       -0.2880
     14  H         25.1840  -23.5070  -11.0270 H       1  UNL1        0.1280
     15  C         24.5790  -23.2480  -12.9090 C.2     1  UNL1        0.0110
     16  C         24.2880  -22.1100  -13.6730 C.2     1  UNL1        0.0260
     17  C         24.5380  -22.0680  -15.0480 C.2     1  UNL1        0.0410
     18  C         25.1120  -23.1640  -15.6920 C.2     1  UNL1        0.1010
     19  C         25.4520  -24.3010  -14.9370 C.2     1  UNL1        0.1030
     20  C         25.1980  -24.3240  -13.5560 C.2     1  UNL1        0.0630
     21  O         25.3940  -23.2190  -17.0340 O.2     1  UNL1       -0.3530
     22  C         24.3000  -23.3470  -17.9310 C.3     1  UNL1        0.2100
     23  O         26.0320  -25.3330  -15.6380 O.2     1  UNL1       -0.3530
     24  C         27.1200  -26.0160  -15.0330 C.3     1  UNL1        0.2100
     25  C         20.1770  -23.8230   -8.1370 C.3     1  UNL1        0.2350
     26  C         19.3420  -23.0820   -7.0810 C.2     1  UNL1        0.2400
     27  O         19.7070  -21.9800   -6.6760 O.2     1  UNL1       -0.2710
     28  N         18.2470  -23.7920   -6.6250 N.am    1  UNL1       -0.3260
     29  H         18.1140  -24.7020   -7.0470 H       1  UNL1        0.1690
     30  C         17.2960  -23.4030   -5.6630 C.2     1  UNL1        0.0370
     31  C         17.4470  -23.6000   -4.2870 C.2     1  UNL1        0.0290
     32  C         16.4560  -23.1790   -3.3920 C.2     1  UNL1        0.0050
     33  C         15.3050  -22.5560   -3.8670 C.2     1  UNL1        0.0420
     34  C         15.1560  -22.3620   -5.2330 C.2     1  UNL1        0.1180
     35  F         14.0510  -21.7630   -5.6970 F       1  UNL1       -0.2060
     36  C         16.1350  -22.7760   -6.1310 C.2     1  UNL1        0.0710
     37  O         15.9430  -22.0970  -10.2920 O.2     1  UNL1       -0.3560
     38  C         15.6660  -23.3180   -9.6190 C.3     1  UNL1        0.2100
@<TRIPOS>BOND
     1    22    21    1
     2    21    18    1
     3    18    17    2
     4    18    19    1
     5    23    24    1
     6    23    19    1
     7    17    16    1
     8    19    20    2
     9    16    15    2
    10    20    15    1
    11    15    13    1
    12     3     2    1
    13     3     4    2
    14     2     1    2
    15    13    14    1
    16    13    12    1
    17     5     4    1
    18     5     6    2
    19     4    10    1
    20    12     6    1
    21     6     7    1
    22     1    37    1
    23     1    11    1
    24    37    38    1
    25    10    11    2
    26    10     9    1
    27     7     9   am
    28     7     8    2
    29     9    25    1
    30    25    26    1
    31    26    27    2
    32    26    28   am
    33    29    28    1
    34    28    30    1
    35    36    30    2
    36    36    34    1
    37    35    34    1
    38    30    31    1
    39    34    33    2
    40    31    32    2
    41    33    32    1
