@<TRIPOS>MOLECULE
7019_out_ligand_01.pdbqt
 33 36 0 0 0
SMALL
GASTEIGER

@<TRIPOS>ATOM
      1  C         18.7990  -22.5690  -10.1570 C.2     1  UNL1        0.0320
      2  C         18.9350  -21.6180  -11.1730 C.2     1  UNL1        0.0190
      3  C         20.1950  -21.3450  -11.7210 C.2     1  UNL1        0.0300
      4  C         21.3300  -22.0240  -11.2710 C.2     1  UNL1        0.0360
      5  C         21.1860  -22.9850  -10.2610 C.2     1  UNL1        0.0300
      6  C         19.9310  -23.2600   -9.7110 C.2     1  UNL1        0.0190
      7  N         22.6280  -21.8020  -11.7620 N.am    1  UNL1       -0.3090
      8  C         23.7650  -21.4400  -11.0590 C.2     1  UNL1        0.3270
      9  O         23.7890  -21.1540   -9.8630 O.2     1  UNL1       -0.2460
     10  N         24.9160  -21.3470  -11.8780 N.am    1  UNL1       -0.2990
     11  C         26.0990  -20.7600  -11.2400 C.3     1  UNL1        0.1340
     12  C         25.1470  -22.2450  -12.9670 C.2     1  UNL1        0.0450
     13  C         27.1210  -20.1150  -12.1700 C.3     1  UNL1        0.0210
     14  C         26.4360  -19.4300  -13.3420 C.3     1  UNL1        0.0060
     15  C         26.1630  -20.4010  -14.4900 C.3     1  UNL1        0.0410
     16  C         25.7410  -21.8190  -14.1680 C.2     1  UNL1       -0.0310
     17  C         25.9040  -22.7610  -15.2070 C.2     1  UNL1        0.0090
     18  C         25.5130  -24.0910  -15.0570 C.2     1  UNL1        0.0010
     19  C         24.9430  -24.5090  -13.8640 C.2     1  UNL1        0.0020
     20  C         24.7610  -23.5930  -12.8290 C.2     1  UNL1        0.0300
     21  H         22.7470  -21.8340  -12.7650 H       1  UNL1        0.1700
     22  C         17.4820  -22.8920   -9.5400 C.2     1  UNL1        0.2510
     23  O         16.4460  -22.5220  -10.0790 O.2     1  UNL1       -0.2680
     24  N         17.5160  -23.6440   -8.3850 N.am    1  UNL1       -0.3530
     25  H         18.3760  -24.1090   -8.1300 H       1  UNL1        0.1630
     26  C         16.3030  -24.1440   -7.7770 C.3     1  UNL1        0.1610
     27  C         16.1230  -23.5670   -6.3960 C.2     1  UNL1       -0.0390
     28  C         14.9080  -23.7110   -5.7110 C.2     1  UNL1        0.0090
     29  C         14.7410  -23.1550   -4.4400 C.2     1  UNL1        0.0020
     30  C         15.7830  -22.4430   -3.8470 C.2     1  UNL1        0.0190
     31  C         16.9900  -22.2890   -4.5260 C.2     1  UNL1        0.0110
     32 BR         18.4000  -21.3170   -3.7250 Br      1  UNL1       -0.0510
     33  C         17.1630  -22.8450   -5.7940 C.2     1  UNL1        0.0270
@<TRIPOS>BOND
     1    17    18    2
     2    17    16    1
     3    18    19    1
     4    15    16    1
     5    15    14    1
     6    16    12    2
     7    19    20    2
     8    14    13    1
     9    12    20    1
    10    12    10    1
    11    21     7    1
    12    13    11    1
    13    10    11    1
    14    10     8   am
    15     7     4    1
    16     7     8   am
    17     3     4    2
    18     3     2    1
    19     4     5    1
    20     2     1    2
    21     8     9    2
    22     5     6    2
    23     1     6    1
    24     1    22    1
    25    23    22    2
    26    22    24   am
    27    24    25    1
    28    24    26    1
    29    26    27    1
    30    27    33    2
    31    27    28    1
    32    33    31    1
    33    28    29    2
    34    31    30    2
    35    31    32    1
    36    29    30    1
