@<TRIPOS>MOLECULE
7030_out_ligand_01.pdbqt
 35 38 0 0 0
SMALL
GASTEIGER

@<TRIPOS>ATOM
      1  C         19.5790  -23.3050  -10.0610 C.3     1  UNL1        0.1290
      2  C         18.5690  -22.7510  -11.0670 C.3     1  UNL1        0.1220
      3  C         18.9660  -21.4180  -11.6640 C.2     1  UNL1        0.2240
      4  O         18.1440  -20.6520  -12.1560 O.2     1  UNL1       -0.2730
      5  N         20.2990  -21.1190  -11.6820 N.am    1  UNL1       -0.3110
      6  C         21.2970  -21.8550  -11.1220 C.ar    1  UNL1        0.1450
      7  N         22.5570  -21.4010  -11.3740 N.ar    1  UNL1       -0.2060
      8  C         23.5200  -22.0680  -10.8330 C.ar    1  UNL1        0.1710
      9  N         23.3470  -23.1590  -10.0450 N.ar    1  UNL1       -0.3020
     10  C         22.1130  -23.6650   -9.7760 C.ar    1  UNL1        0.2580
     11  O         21.9470  -24.6810   -9.1170 O.2     1  UNL1       -0.2670
     12  C         20.9890  -22.9050  -10.3530 C.ar    1  UNL1        0.0700
     13  H         20.5680  -20.2840  -12.1890 H       1  UNL1        0.1700
     14  H         24.1500  -23.6430   -9.6740 H       1  UNL1        0.1710
     15  C         19.1950  -22.8980   -8.6290 C.2     1  UNL1        0.2310
     16  N         18.0110  -23.4550   -8.1690 N.am    1  UNL1       -0.3270
     17  H         17.5080  -24.0780   -8.7870 H       1  UNL1        0.1690
     18  O         19.9380  -22.1600   -7.9850 O.2     1  UNL1       -0.2720
     19  C         17.4060  -23.2670   -6.9070 C.2     1  UNL1        0.0350
     20  C         17.9860  -23.6350   -5.6970 C.2     1  UNL1        0.0300
     21  C         17.3120  -23.4090   -4.4920 C.2     1  UNL1        0.0090
     22  C         16.0440  -22.8120   -4.4720 C.2     1  UNL1       -0.0560
     23  C         15.3560  -22.5890   -3.1530 C.3     1  UNL1        0.0490
     24  C         15.4520  -22.4270   -5.6870 C.2     1  UNL1       -0.0540
     25  C         16.1400  -22.6650   -6.8920 C.2     1  UNL1        0.0370
     26  C         14.0920  -21.7860   -5.7300 C.3     1  UNL1        0.0490
     27  S         25.1950  -21.6640  -11.0320 S.3     1  UNL1       -0.0870
     28  C         25.8080  -23.1820  -11.8150 C.3     1  UNL1        0.1210
     29  C         25.4920  -23.2010  -13.2900 C.2     1  UNL1       -0.0460
     30  C         25.5390  -24.4030  -14.0160 C.2     1  UNL1        0.0080
     31  C         25.2320  -24.4250  -15.3800 C.2     1  UNL1        0.0040
     32  C         24.8720  -23.2470  -16.0300 C.2     1  UNL1        0.0420
     33  C         24.8180  -22.0580  -15.3130 C.2     1  UNL1        0.1170
     34  F         24.4660  -20.9270  -15.9360 F       1  UNL1       -0.2060
     35  C         25.1210  -22.0240  -13.9550 C.2     1  UNL1        0.0500
@<TRIPOS>BOND
     1    32    31    2
     2    32    33    1
     3    34    33    1
     4    31    30    1
     5    33    35    2
     6    30    29    2
     7    35    29    1
     8    29    28    1
     9    13     5    1
    10     4     3    2
    11    28    27    1
    12     5     3   am
    13     5     6    1
    14     3     2    1
    15     7     6   ar
    16     7     8   ar
    17     6    12   ar
    18     2     1    1
    19    27     8    1
    20     8     9   ar
    21    12     1    1
    22    12    10   ar
    23     1    15    1
    24     9    10   ar
    25     9    14    1
    26    10    11    2
    27    17    16    1
    28    15    16   am
    29    15    18    2
    30    16    19    1
    31    19    25    2
    32    19    20    1
    33    25    24    1
    34    26    24    1
    35    20    21    2
    36    24    22    2
    37    21    22    1
    38    22    23    1
