@<TRIPOS>MOLECULE
70383_out_ligand_01.pdbqt
 35 38 0 0 0
SMALL
GASTEIGER

@<TRIPOS>ATOM
      1  C         23.6500  -21.8500  -11.5320 C.2     1  UNL1        0.0750
      2  C         22.3720  -22.0940  -12.0330 C.2     1  UNL1        0.0270
      3  C         21.3170  -22.3120  -11.1430 C.2     1  UNL1        0.0310
      4  C         21.5290  -22.2900   -9.7560 C.2     1  UNL1        0.0340
      5  C         22.8190  -22.0570   -9.2710 C.2     1  UNL1        0.0310
      6  C         23.8830  -21.8440  -10.1540 C.2     1  UNL1        0.0270
      7  N         20.4040  -22.5190   -8.9400 N.am    1  UNL1       -0.3260
      8  C         19.9830  -23.7150   -8.3760 C.2     1  UNL1        0.2350
      9  O         20.5760  -24.7900   -8.4730 O.2     1  UNL1       -0.2720
     10  H         19.8250  -21.7070   -8.7540 H       1  UNL1        0.1690
     11  C         18.6920  -23.6070   -7.5270 C.3     1  UNL1        0.1440
     12  C         18.7870  -22.5930   -6.3820 C.2     1  UNL1       -0.0410
     13  C         19.6290  -21.4700   -6.4170 C.2     1  UNL1        0.0080
     14  C         19.6650  -20.5690   -5.3470 C.2     1  UNL1        0.0010
     15  C         18.8580  -20.7730   -4.2310 C.2     1  UNL1        0.0000
     16  C         18.0170  -21.8800   -4.1780 C.2     1  UNL1        0.0010
     17  C         17.9830  -22.7840   -5.2410 C.2     1  UNL1        0.0080
     18  C         17.4330  -23.4860   -8.3970 C.2     1  UNL1       -0.0410
     19  C         16.3210  -24.3350   -8.2490 C.2     1  UNL1        0.0080
     20  C         15.1820  -24.1580   -9.0350 C.2     1  UNL1        0.0010
     21  C         15.1290  -23.1280   -9.9700 C.2     1  UNL1        0.0000
     22  C         16.2220  -22.2730  -10.1280 C.2     1  UNL1        0.0010
     23  C         17.3650  -22.4500   -9.3490 C.2     1  UNL1        0.0080
     24  S         25.0040  -21.6000  -12.6600 S.O2    1  UNL1        0.2470
     25  O         25.5040  -22.9040  -13.0340 O.2     1  UNL1       -0.2050
     26  O         25.8730  -20.5980  -12.0760 O.2     1  UNL1       -0.2050
     27  N         24.2000  -20.8500  -13.9410 N.pl3   1  UNL1       -0.1590
     28  H         24.2940  -19.8390  -13.8110 H       1  UNL1        0.1480
     29  C         24.7570  -21.1940  -15.2290 C.2     1  UNL1        0.1590
     30  S         26.2950  -20.6940  -15.7790 S.3     1  UNL1       -0.0670
     31  C         26.0700  -21.6470  -17.1870 C.2     1  UNL1        0.0800
     32  C         24.8620  -22.3220  -17.1190 C.2     1  UNL1        0.0430
     33  N         24.1220  -22.0650  -15.9730 N.2     1  UNL1       -0.2330
     34  C         24.3190  -23.2620  -18.1500 C.3     1  UNL1        0.0550
     35  C         22.9170  -23.7580  -17.8280 C.3     1  UNL1        0.0110
@<TRIPOS>BOND
     1    34    35    1
     2    34    32    1
     3    31    32    2
     4    31    30    1
     5    32    33    1
     6    33    29    2
     7    30    29    1
     8    29    27    1
     9    27    28    1
    10    27    24    1
    11    25    24    2
    12    24    26    2
    13    24     1    1
    14     2     1    2
    15     2     3    1
    16     1     6    1
    17     3     4    2
    18     6     5    2
    19    22    21    2
    20    22    23    1
    21    21    20    1
    22     4     5    1
    23     4     7    1
    24    23    18    2
    25    20    19    2
    26     7    10    1
    27     7     8   am
    28     9     8    2
    29    18    19    1
    30    18    11    1
    31     8    11    1
    32    11    12    1
    33    13    12    2
    34    13    14    1
    35    12    17    1
    36    14    15    2
    37    17    16    2
    38    15    16    1
