@<TRIPOS>MOLECULE
7045_out_ligand_01.pdbqt
 30 33 0 0 0
SMALL
GASTEIGER

@<TRIPOS>ATOM
      1  C         19.5880  -23.2720   -9.2730 C.2     1  UNL1       -0.0050
      2  C         21.0290  -23.4870   -9.7000 C.2     1  UNL1        0.0410
      3  C         21.9010  -24.4350   -8.9030 C.3     1  UNL1        0.0710
      4  N         21.6030  -22.9070  -10.7140 N.2     1  UNL1       -0.2330
      5  C         20.8590  -22.0290  -11.4440 C.2     1  UNL1        0.1680
      6  C         21.1650  -21.2590  -12.5530 C.2     1  UNL1        0.0980
      7  C         19.9660  -20.5760  -12.8330 C.2     1  UNL1        0.1600
      8  N         18.9730  -20.8860  -12.0040 N.2     1  UNL1       -0.1770
      9  N         19.5240  -21.7710  -11.1300 N.pl3   1  UNL1       -0.2190
     10  C         18.8900  -22.3980  -10.0410 C.2     1  UNL1        0.0430
     11  C         17.4520  -22.0100   -9.8200 C.3     1  UNL1        0.0710
     12  C         22.4450  -21.1790  -13.2350 C.2     1  UNL1        0.2570
     13  O         22.6090  -20.6060  -14.3070 O.2     1  UNL1       -0.2670
     14  N         23.4800  -21.8100  -12.5660 N.am    1  UNL1       -0.3520
     15  H         23.3370  -22.0380  -11.5930 H       1  UNL1        0.1630
     16  C         24.8580  -21.7200  -13.0420 C.3     1  UNL1        0.0880
     17  C         25.6260  -20.6260  -12.2830 C.3     1  UNL1        0.0250
     18  C         25.9110  -21.0140  -10.8330 C.3     1  UNL1        0.0020
     19  C         26.6330  -22.3540  -10.7380 C.3     1  UNL1        0.0010
     20  C         25.8820  -23.4610  -11.4750 C.3     1  UNL1        0.0060
     21  C         25.5930  -23.0760  -12.9340 C.3     1  UNL1        0.0040
     22  C         24.8440  -24.2010  -13.6520 C.3     1  UNL1        0.0120
     23  C         19.0390  -24.0620   -8.1110 C.3     1  UNL1        0.0810
     24  C         18.7810  -23.2540   -6.8580 C.2     1  UNL1       -0.0540
     25  C         19.4230  -22.0200   -6.6760 C.2     1  UNL1        0.0080
     26  C         19.2180  -21.2710   -5.5140 C.2     1  UNL1        0.0070
     27  C         18.3670  -21.7390   -4.5100 C.2     1  UNL1       -0.0620
     28  C         18.1720  -20.9490   -3.2500 C.3     1  UNL1        0.0480
     29  C         17.7480  -22.9830   -4.6710 C.2     1  UNL1        0.0070
     30  C         17.9540  -23.7330   -5.8320 C.2     1  UNL1        0.0080
@<TRIPOS>BOND
     1    13    12    2
     2    22    21    1
     3    12    14   am
     4    12     6    1
     5    16    21    1
     6    16    14    1
     7    16    17    1
     8    21    20    1
     9     7     6    1
    10     7     8    2
    11    14    15    1
    12     6     5    2
    13    17    18    1
    14     8     9    1
    15    20    19    1
    16     5     9    1
    17     5     4    1
    18     9    10    1
    19    18    19    1
    20     4     2    2
    21    10    11    1
    22    10     1    2
    23     2     1    1
    24     2     3    1
    25     1    23    1
    26    23    24    1
    27    24    25    2
    28    24    30    1
    29    25    26    1
    30    30    29    2
    31    26    27    2
    32    29    27    1
    33    27    28    1
