@<TRIPOS>MOLECULE
70926_out_ligand_01.pdbqt
 43 46 0 0 0
SMALL
GASTEIGER

@<TRIPOS>ATOM
      1  C         22.8140  -22.7490   -9.2460 C.2     1  UNL1        0.2560
      2  O         23.6410  -23.6030   -8.9550 O.2     1  UNL1       -0.2670
      3  N         22.6330  -22.1340  -10.4710 N.am    1  UNL1       -0.3230
      4  H         21.9760  -21.3660  -10.5070 H       1  UNL1        0.1690
      5  C         21.9100  -22.2720   -8.1670 C.2     1  UNL1        0.0330
      6  C         20.6530  -22.8670   -8.0510 C.2     1  UNL1        0.0420
      7  C         19.7350  -22.4200   -7.0860 C.2     1  UNL1        0.0860
      8  C         20.0900  -21.3880   -6.1960 C.2     1  UNL1       -0.0390
      9  C         21.3640  -20.8020   -6.3320 C.2     1  UNL1        0.0090
     10  C         19.1940  -20.8750   -5.1040 C.3     1  UNL1        0.0500
     11  C         22.2640  -21.2290   -7.3120 C.2     1  UNL1        0.0170
     12  S         18.1560  -23.2670   -7.0730 S.O2    1  UNL1        0.2630
     13  O         18.3570  -24.5010   -6.3380 O.2     1  UNL1       -0.2000
     14  O         17.1060  -22.3520   -6.6860 O.2     1  UNL1       -0.2000
     15  N         17.9450  -23.7180   -8.6860 N.pl3   1  UNL1       -0.2800
     16  H         18.4710  -24.5560   -8.9300 H       1  UNL1        0.1790
     17  C         17.7430  -22.7270   -9.6910 C.2     1  UNL1        0.0490
     18  C         16.4480  -22.3810  -10.1090 C.2     1  UNL1       -0.0350
     19  C         16.3020  -21.3900  -11.0950 C.2     1  UNL1        0.0090
     20  C         15.2040  -22.9640   -9.4990 C.3     1  UNL1        0.0500
     21  C         17.4160  -20.7710  -11.6640 C.2     1  UNL1        0.0070
     22  C         18.7030  -21.1200  -11.2530 C.2     1  UNL1       -0.0600
     23  C         19.9030  -20.4230  -11.8220 C.3     1  UNL1        0.0480
     24  C         18.8540  -22.0860  -10.2500 C.2     1  UNL1        0.0370
     25  C         23.3530  -22.3780  -11.6590 C.2     1  UNL1        0.0350
     26  C         23.0190  -21.6030  -12.7820 C.2     1  UNL1        0.0310
     27  C         23.6980  -21.7690  -13.9920 C.2     1  UNL1        0.0270
     28  C         24.7200  -22.7150  -14.0820 C.2     1  UNL1        0.0750
     29  C         25.0460  -23.5100  -12.9820 C.2     1  UNL1        0.0270
     30  C         24.3630  -23.3360  -11.7740 C.2     1  UNL1        0.0310
     31  S         25.5810  -22.9280  -15.6190 S.O2    1  UNL1        0.2480
     32  O         25.7040  -24.3410  -15.9110 O.2     1  UNL1       -0.2050
     33  O         24.9360  -22.0440  -16.5710 O.2     1  UNL1       -0.2050
     34  N         27.0850  -22.2760  -15.3390 N.pl3   1  UNL1       -0.1480
     35  H         27.7040  -22.9010  -14.8380 H       1  UNL1        0.1490
     36  C         27.1200  -20.9780  -14.8400 C.cat   1  UNL1        0.2160
     37  N         27.0870  -20.7980  -13.5200 N.2     1  UNL1       -0.2230
     38  C         26.9690  -19.5260  -13.0970 C.2     1  UNL1        0.0360
     39  C         26.9510  -19.2920  -11.6160 C.3     1  UNL1        0.0700
     40  C         26.8420  -18.4670  -13.9770 C.2     1  UNL1        0.0530
     41  C         26.8400  -18.7760  -15.3240 C.2     1  UNL1        0.0360
     42  C         26.6840  -17.6910  -16.3470 C.3     1  UNL1        0.0700
     43  N         26.9550  -20.0420  -15.7760 N.2     1  UNL1       -0.2230
@<TRIPOS>BOND
     1    33    31    2
     2    42    41    1
     3    32    31    2
     4    43    41    2
     5    43    36    1
     6    31    34    1
     7    31    28    1
     8    34    36    1
     9    34    35    1
    10    41    40    1
    11    36    37    2
    12    28    27    2
    13    28    29    1
    14    27    26    1
    15    40    38    2
    16    37    38    1
    17    38    39    1
    18    29    30    2
    19    26    25    2
    20    23    22    1
    21    30    25    1
    22    21    22    2
    23    21    19    1
    24    25     3    1
    25    22    24    1
    26    19    18    2
    27     4     3    1
    28     3     1   am
    29    24    17    2
    30    18    17    1
    31    18    20    1
    32    17    15    1
    33     1     2    2
    34     1     5    1
    35    16    15    1
    36    15    12    1
    37     5     6    2
    38     5    11    1
    39     6     7    1
    40    11     9    2
    41     7    12    1
    42     7     8    2
    43    12    14    2
    44    12    13    2
    45     9     8    1
    46     8    10    1
