@<TRIPOS>MOLECULE
71043_out_ligand_01.pdbqt
 37 40 0 0 0
SMALL
GASTEIGER

@<TRIPOS>ATOM
      1  C         20.2420  -23.1900   -9.5960 C.2     1  UNL1        0.0340
      2  C         20.5520  -22.3840  -10.6940 C.2     1  UNL1        0.0310
      3  C         21.8770  -22.2480  -11.1240 C.2     1  UNL1        0.0270
      4  C         22.8940  -22.9330  -10.4580 C.2     1  UNL1        0.0800
      5  C         22.6020  -23.7300   -9.3500 C.2     1  UNL1        0.0270
      6  C         21.2770  -23.8560   -8.9240 C.2     1  UNL1        0.0310
      7  N         18.9390  -23.3750   -9.1020 N.am    1  UNL1       -0.3250
      8  C         17.7500  -22.8900   -9.6200 C.2     1  UNL1        0.2510
      9  O         17.6200  -22.2000  -10.6270 O.2     1  UNL1       -0.2700
     10  H         18.8360  -23.9880   -8.2980 H       1  UNL1        0.1690
     11  C         16.5240  -23.2800   -8.7670 C.3     1  UNL1        0.2200
     12  C         15.2920  -23.4380   -9.6750 C.3     1  UNL1        0.0380
     13  C         14.8760  -24.8810   -9.9320 C.3     1  UNL1        0.0080
     14  O         16.2020  -22.3280   -7.7520 O.2     1  UNL1       -0.3360
     15  C         15.9530  -22.7590   -6.4710 C.2     1  UNL1        0.0810
     16  C         14.9030  -23.6110   -6.1160 C.2     1  UNL1        0.0380
     17  C         14.7470  -24.0210   -4.7930 C.2     1  UNL1        0.0040
     18  C         15.6390  -23.5880   -3.8150 C.2     1  UNL1        0.0120
     19  C         16.7030  -22.7370   -4.1430 C.2     1  UNL1       -0.0230
     20  C         17.6020  -22.3070   -3.1530 C.2     1  UNL1        0.0120
     21  C         16.8700  -22.3110   -5.4830 C.2     1  UNL1        0.0070
     22  C         18.6630  -21.4590   -3.4690 C.2     1  UNL1        0.0010
     23  C         18.8390  -21.0310   -4.7790 C.2     1  UNL1        0.0010
     24  C         17.9540  -21.4530   -5.7730 C.2     1  UNL1        0.0150
     25  S         24.5770  -22.7530  -10.9880 S.O2    1  UNL1        0.2630
     26  O         25.3960  -23.5490  -10.0960 O.2     1  UNL1       -0.2000
     27  O         24.8590  -21.3490  -11.1940 O.2     1  UNL1       -0.2000
     28  N         24.5890  -23.5630  -12.4730 N.pl3   1  UNL1       -0.2810
     29  H         25.1750  -24.3950  -12.4190 H       1  UNL1        0.1790
     30  C         24.6810  -22.7800  -13.6550 C.2     1  UNL1        0.0430
     31  C         23.6850  -21.8540  -13.9450 C.2     1  UNL1        0.0300
     32  C         23.7910  -21.0600  -15.0870 C.2     1  UNL1        0.0090
     33  C         24.8940  -21.1800  -15.9460 C.2     1  UNL1       -0.0560
     34  C         24.9780  -20.2990  -17.1620 C.3     1  UNL1        0.0490
     35  C         25.9070  -22.1110  -15.6430 C.2     1  UNL1       -0.0540
     36  C         27.1200  -22.2650  -16.5190 C.3     1  UNL1        0.0490
     37  C         25.7890  -22.9060  -14.4910 C.2     1  UNL1        0.0370
@<TRIPOS>BOND
     1    34    33    1
     2    36    35    1
     3    33    35    2
     4    33    32    1
     5    35    37    1
     6    32    31    2
     7    37    30    2
     8    31    30    1
     9    30    28    1
    10    28    29    1
    11    28    25    1
    12    27    25    2
    13     3     2    1
    14     3     4    2
    15    25     4    1
    16    25    26    2
    17     2     1    2
    18     9     8    2
    19     4     5    1
    20    13    12    1
    21    12    11    1
    22     8     7   am
    23     8    11    1
    24     1     7    1
    25     1     6    1
    26     5     6    2
    27     7    10    1
    28    11    14    1
    29    14    15    1
    30    15    16    2
    31    15    21    1
    32    16    17    1
    33    24    21    1
    34    24    23    2
    35    21    19    2
    36    17    18    2
    37    23    22    1
    38    19    18    1
    39    19    20    1
    40    22    20    2
