@<TRIPOS>MOLECULE
71105_out_ligand_01.pdbqt
 36 39 0 0 0
SMALL
GASTEIGER

@<TRIPOS>ATOM
      1  C         20.5550  -22.7540   -9.6670 C.2     1  UNL1        0.0340
      2  C         20.8690  -22.2920  -10.9480 C.2     1  UNL1        0.0310
      3  C         22.1930  -22.3000  -11.4010 C.2     1  UNL1        0.0270
      4  C         23.2080  -22.7640  -10.5610 C.2     1  UNL1        0.0800
      5  C         22.9090  -23.2400   -9.2840 C.2     1  UNL1        0.0270
      6  C         21.5840  -23.2310   -8.8410 C.2     1  UNL1        0.0310
      7  N         19.2530  -22.7760   -9.1360 N.am    1  UNL1       -0.3250
      8  C         18.0460  -22.6610   -9.8120 C.2     1  UNL1        0.2510
      9  O         17.9130  -22.4690  -11.0170 O.2     1  UNL1       -0.2700
     10  H         19.1730  -22.9420   -8.1370 H       1  UNL1        0.1690
     11  C         16.8370  -22.7030   -8.8470 C.3     1  UNL1        0.2200
     12  C         15.5160  -22.9490   -9.5880 C.3     1  UNL1        0.0380
     13  C         15.1810  -24.4230   -9.7800 C.3     1  UNL1        0.0080
     14  O         17.0460  -23.7280   -7.8660 O.2     1  UNL1       -0.3360
     15  C         16.5560  -23.4960   -6.6040 C.2     1  UNL1        0.0810
     16  C         15.3880  -24.0970   -6.1250 C.2     1  UNL1        0.0380
     17  C         14.9300  -23.8130   -4.8420 C.2     1  UNL1        0.0040
     18  C         15.6430  -22.9370   -4.0250 C.2     1  UNL1        0.0120
     19  C         16.8360  -22.3480   -4.4690 C.2     1  UNL1       -0.0230
     20  C         17.5580  -21.4770   -3.6360 C.2     1  UNL1        0.0120
     21  C         17.3160  -22.6380   -5.7690 C.2     1  UNL1        0.0070
     22  C         18.7520  -20.8980   -4.0680 C.2     1  UNL1        0.0010
     23  C         19.2430  -21.1880   -5.3360 C.2     1  UNL1        0.0010
     24  C         18.5350  -22.0480   -6.1760 C.2     1  UNL1        0.0150
     25  S         24.8840  -22.7640  -11.1420 S.O2    1  UNL1        0.2630
     26  O         25.6500  -23.5960  -10.2390 O.2     1  UNL1       -0.2000
     27  O         25.2840  -21.4030  -11.4240 O.2     1  UNL1       -0.2000
     28  N         24.7740  -23.6250  -12.5950 N.pl3   1  UNL1       -0.2810
     29  H         25.0620  -24.5950  -12.4590 H       1  UNL1        0.1790
     30  C         25.1850  -22.9750  -13.7880 C.2     1  UNL1        0.0420
     31  C         24.2810  -22.1780  -14.4920 C.2     1  UNL1        0.0310
     32  C         24.6960  -21.5070  -15.6440 C.2     1  UNL1        0.0210
     33  C         26.0160  -21.6320  -16.0790 C.2     1  UNL1        0.0110
     34 BR         26.5770  -20.7230  -17.6380 Br      1  UNL1       -0.0510
     35  C         26.9230  -22.4220  -15.3720 C.2     1  UNL1        0.0210
     36  C         26.5070  -23.0920  -14.2200 C.2     1  UNL1        0.0310
@<TRIPOS>BOND
     1    34    33    1
     2    33    32    2
     3    33    35    1
     4    32    31    1
     5    35    36    2
     6    31    30    2
     7    36    30    1
     8    30    28    1
     9    28    29    1
    10    28    25    1
    11    27    25    2
    12     3     2    1
    13     3     4    2
    14    25     4    1
    15    25    26    2
    16     9     8    2
    17     2     1    2
    18     4     5    1
    19     8     7   am
    20     8    11    1
    21    13    12    1
    22     1     7    1
    23     1     6    1
    24    12    11    1
    25     5     6    2
    26     7    10    1
    27    11    14    1
    28    14    15    1
    29    15    16    2
    30    15    21    1
    31    24    21    1
    32    24    23    2
    33    16    17    1
    34    21    19    2
    35    23    22    1
    36    17    18    2
    37    19    18    1
    38    19    20    1
    39    22    20    2
