@<TRIPOS>MOLECULE
7134_out_ligand_01.pdbqt
 34 37 0 0 0
SMALL
GASTEIGER

@<TRIPOS>ATOM
      1  C         22.8730  -22.6210  -10.5660 C.ar    1  UNL1        0.1710
      2  N         21.9660  -21.8390  -11.0460 N.ar    1  UNL1       -0.2060
      3  C         20.6770  -22.1370  -10.7140 C.ar    1  UNL1        0.1450
      4  C         20.2930  -23.1490   -9.9280 C.ar    1  UNL1        0.0700
      5  C         21.3480  -24.0450   -9.4230 C.ar    1  UNL1        0.2580
      6  O         21.1000  -25.0380   -8.7550 O.2     1  UNL1       -0.2670
      7  N         22.6160  -23.6900   -9.7700 N.ar    1  UNL1       -0.3020
      8  C         18.8650  -23.3720   -9.5430 C.3     1  UNL1        0.1290
      9  C         17.8690  -22.6890  -10.4820 C.3     1  UNL1        0.1220
     10  C         18.3890  -21.4100  -11.1030 C.2     1  UNL1        0.2240
     11  O         17.6380  -20.5430  -11.5400 O.2     1  UNL1       -0.2730
     12  N         19.7450  -21.2780  -11.2060 N.am    1  UNL1       -0.3110
     13  H         23.3760  -24.2690   -9.4470 H       1  UNL1        0.1710
     14  H         20.0820  -20.4790  -11.7290 H       1  UNL1        0.1700
     15  C         18.6300  -22.9260   -8.0900 C.2     1  UNL1        0.2310
     16  O         19.3320  -22.0440   -7.6040 O.2     1  UNL1       -0.2720
     17  N         17.6280  -23.6250   -7.4320 N.am    1  UNL1       -0.3260
     18  H         17.1680  -24.3630   -7.9450 H       1  UNL1        0.1690
     19  C         17.1640  -23.4460   -6.1060 C.2     1  UNL1        0.0400
     20  C         17.8640  -23.9220   -4.9910 C.2     1  UNL1        0.0300
     21  C         17.3790  -23.7190   -3.6960 C.2     1  UNL1        0.0020
     22  C         16.1870  -23.0360   -3.4960 C.2     1  UNL1        0.0010
     23  C         15.4770  -22.5530   -4.5930 C.2     1  UNL1        0.0090
     24  C         15.9510  -22.7490   -5.9030 C.2     1  UNL1       -0.0350
     25  C         15.1290  -22.2060   -7.0420 C.3     1  UNL1        0.0500
     26  S         24.5670  -22.4230  -10.8660 S.3     1  UNL1       -0.0870
     27  C         24.5220  -21.6150  -12.4900 C.3     1  UNL1        0.1210
     28  C         24.7400  -22.6090  -13.6030 C.2     1  UNL1       -0.0480
     29  C         25.1450  -23.9200  -13.3180 C.2     1  UNL1        0.0080
     30  C         25.3630  -24.8320  -14.3510 C.2     1  UNL1        0.0010
     31  C         25.1790  -24.4440  -15.6790 C.2     1  UNL1        0.0070
     32  C         24.7690  -23.1430  -15.9850 C.2     1  UNL1       -0.0610
     33  C         24.6130  -22.7120  -17.4140 C.3     1  UNL1        0.0480
     34  C         24.5660  -22.2270  -14.9440 C.2     1  UNL1        0.0140
@<TRIPOS>BOND
     1    33    32    1
     2    32    31    2
     3    32    34    1
     4    31    30    1
     5    34    28    2
     6    30    29    2
     7    28    29    1
     8    28    27    1
     9    27    26    1
    10    14    12    1
    11    11    10    2
    12    12    10   am
    13    12     3    1
    14    10     9    1
    15     2     3   ar
    16     2     1   ar
    17    26     1    1
    18     3     4   ar
    19     1     7   ar
    20     9     8    1
    21     4     8    1
    22     4     5   ar
    23     7    13    1
    24     7     5   ar
    25     8    15    1
    26     5     6    2
    27    15    16    2
    28    15    17   am
    29    18    17    1
    30    17    19    1
    31    25    24    1
    32    19    24    2
    33    19    20    1
    34    24    23    1
    35    20    21    2
    36    23    22    2
    37    21    22    1
