@<TRIPOS>MOLECULE
71552_out_ligand_01.pdbqt
 42 45 0 0 0
SMALL
GASTEIGER

@<TRIPOS>ATOM
      1  C         20.5420  -22.1510  -10.9540 C.2     1  UNL1        0.2560
      2  O         20.8930  -21.5590  -11.9640 O.2     1  UNL1       -0.2670
      3  N         21.3440  -22.8560  -10.0750 N.am    1  UNL1       -0.3230
      4  H         20.8720  -23.3960   -9.3630 H       1  UNL1        0.1690
      5  C         19.0950  -22.1520  -10.6030 C.2     1  UNL1        0.0330
      6  C         18.6500  -22.9550   -9.5520 C.2     1  UNL1        0.0420
      7  C         17.2840  -22.9860   -9.2220 C.2     1  UNL1        0.0860
      8  C         16.3490  -22.2240   -9.9530 C.2     1  UNL1       -0.0390
      9  C         16.8180  -21.4410  -11.0220 C.2     1  UNL1        0.0090
     10  C         14.8670  -22.2520   -9.6950 C.3     1  UNL1        0.0500
     11  C         18.1760  -21.4030  -11.3460 C.2     1  UNL1        0.0170
     12  S         16.7850  -24.0450   -7.8710 S.O2    1  UNL1        0.2630
     13  O         15.7160  -24.8930   -8.3550 O.2     1  UNL1       -0.2000
     14  O         17.9630  -24.6230   -7.2620 O.2     1  UNL1       -0.2000
     15  N         16.0710  -22.9660   -6.7780 N.pl3   1  UNL1       -0.2800
     16  H         15.1270  -23.2760   -6.5470 H       1  UNL1        0.1790
     17  C         16.8690  -22.4530   -5.7140 C.2     1  UNL1        0.0490
     18  C         16.5900  -22.7830   -4.3780 C.2     1  UNL1       -0.0350
     19  C         17.4250  -22.2740   -3.3740 C.2     1  UNL1        0.0090
     20  C         15.4420  -23.6740   -3.9990 C.3     1  UNL1        0.0500
     21  C         18.5170  -21.4620   -3.6930 C.2     1  UNL1        0.0070
     22  C         18.8040  -21.1510   -5.0250 C.2     1  UNL1       -0.0600
     23  C         19.9630  -20.2680   -5.3740 C.3     1  UNL1        0.0480
     24  C         17.9670  -21.6460   -6.0310 C.2     1  UNL1        0.0370
     25  C         22.7510  -22.9540  -10.0850 C.2     1  UNL1        0.0350
     26  C         23.3300  -23.8200   -9.1450 C.2     1  UNL1        0.0290
     27  C         24.7170  -23.9600   -9.0530 C.2     1  UNL1        0.0030
     28  C         25.5450  -23.2240   -9.8960 C.2     1  UNL1        0.0150
     29  C         24.9760  -22.3510  -10.8290 C.2     1  UNL1        0.0170
     30  C         23.5850  -22.2290  -10.9400 C.2     1  UNL1        0.0450
     31  C         25.8460  -21.5500  -11.7240 C.2     1  UNL1        0.1920
     32  O         26.6980  -20.8140  -11.2340 O.2     1  UNL1       -0.2870
     33  C         25.6860  -21.6250  -13.2000 C.2     1  UNL1        0.0150
     34  C         24.9360  -20.6810  -13.9060 C.2     1  UNL1        0.0160
     35  C         24.8030  -20.7820  -15.2970 C.2     1  UNL1        0.0090
     36  C         25.4010  -21.8320  -16.0140 C.2     1  UNL1       -0.0510
     37  C         26.1510  -22.7730  -15.2790 C.2     1  UNL1        0.0090
     38  C         26.2880  -22.6760  -13.8900 C.2     1  UNL1        0.0160
     39  C         25.2590  -21.9790  -17.5400 C.3     1  UNL1       -0.0240
     40  C         24.2140  -23.0340  -17.9720 C.3     1  UNL1        0.0190
     41  C         26.6110  -22.4050  -18.1520 C.3     1  UNL1        0.0190
     42  C         24.8290  -20.6290  -18.1500 C.3     1  UNL1        0.0190
@<TRIPOS>BOND
     1    41    39    1
     2    42    39    1
     3    40    39    1
     4    39    36    1
     5    36    35    2
     6    36    37    1
     7    35    34    1
     8    37    38    2
     9    34    33    2
    10    38    33    1
    11    33    31    1
    12     2     1    2
    13    31    32    2
    14    31    29    1
    15    11     9    1
    16    11     5    2
    17     9     8    2
    18     1     5    1
    19     1     3   am
    20    30    29    1
    21    30    25    2
    22    29    28    2
    23     5     6    1
    24    25     3    1
    25    25    26    1
    26     3     4    1
    27     8    10    1
    28     8     7    1
    29    28    27    1
    30     6     7    2
    31     7    12    1
    32    26    27    2
    33    13    12    2
    34    12    14    2
    35    12    15    1
    36    15    16    1
    37    15    17    1
    38    24    17    2
    39    24    22    1
    40    17    18    1
    41    23    22    1
    42    22    21    2
    43    18    20    1
    44    18    19    2
    45    21    19    1
