@<TRIPOS>MOLECULE
71591_out_ligand_01.pdbqt
 39 41 0 0 0
SMALL
GASTEIGER

@<TRIPOS>ATOM
      1  N         21.5540  -22.4010  -11.0340 N.am    1  UNL1       -0.3200
      2  C         20.8340  -23.1820  -10.1550 C.2     1  UNL1        0.2560
      3  O         21.2730  -24.0970   -9.4680 O.2     1  UNL1       -0.2670
      4  H         21.0480  -21.8270  -11.7020 H       1  UNL1        0.1690
      5  C         19.3710  -22.8970  -10.1110 C.2     1  UNL1        0.0330
      6  C         18.7480  -22.1060  -11.0820 C.2     1  UNL1        0.0170
      7  C         17.3750  -21.8550  -11.0070 C.2     1  UNL1        0.0090
      8  C         16.5950  -22.3840   -9.9650 C.2     1  UNL1       -0.0390
      9  C         15.1280  -22.0540   -9.9360 C.3     1  UNL1        0.0500
     10  C         17.2370  -23.1610   -8.9780 C.2     1  UNL1        0.0810
     11  C         18.6180  -23.4070   -9.0490 C.2     1  UNL1        0.0420
     12  S         16.3420  -23.8460   -7.5880 S.O2    1  UNL1        0.2460
     13  O         15.6460  -25.0280   -8.0430 O.2     1  UNL1       -0.2060
     14  O         15.6490  -22.7600   -6.9250 O.2     1  UNL1       -0.2060
     15  N         17.6390  -24.2710   -6.5590 N.pl3   1  UNL1       -0.1810
     16  H         18.4710  -24.3400   -7.1490 H       1  UNL1        0.1460
     17  C         17.8630  -23.3280   -5.4980 C.2     1  UNL1        0.0230
     18  C         17.5430  -23.6650   -4.1840 C.2     1  UNL1        0.0240
     19  C         17.8100  -22.7630   -3.1540 C.2     1  UNL1        0.0020
     20  C         18.4040  -21.5320   -3.4390 C.2     1  UNL1        0.0070
     21  C         18.7350  -21.1900   -4.7560 C.2     1  UNL1       -0.0600
     22  C         19.4250  -19.8930   -5.0550 C.3     1  UNL1        0.0480
     23  C         18.4760  -22.1080   -5.7830 C.2     1  UNL1        0.0310
     24  C         22.9510  -22.4010  -11.2460 C.2     1  UNL1        0.0700
     25  C         23.5720  -23.1520  -12.2450 C.2     1  UNL1        0.0570
     26  C         24.9590  -23.0820  -12.4010 C.2     1  UNL1        0.0810
     27  C         25.7350  -22.2970  -11.5450 C.2     1  UNL1        0.0280
     28  C         25.1190  -21.5600  -10.5300 C.2     1  UNL1        0.0400
     29  C         23.7300  -21.6080  -10.3740 C.2     1  UNL1        0.0950
     30  S         25.7480  -24.0540  -13.6600 S.O2    1  UNL1        0.2590
     31  O         24.8810  -25.1530  -14.0160 O.2     1  UNL1       -0.2010
     32  O         27.1180  -24.2740  -13.2480 O.2     1  UNL1       -0.2010
     33  N         25.8280  -22.9770  -14.9370 N.3     1  UNL1       -0.3110
     34  H         26.6860  -23.0410  -15.4830 H       1  UNL1        0.1720
     35  C         24.6030  -22.4860  -15.5790 C.3     1  UNL1        0.0850
     36  C         24.4270  -23.1810  -16.9230 C.3     1  UNL1        0.0320
     37  C         24.7350  -20.9760  -15.7590 C.3     1  UNL1        0.0320
     38  O         23.0220  -20.9250   -9.4110 O.2     1  UNL1       -0.3540
     39  C         22.8790  -21.5580   -8.1440 C.3     1  UNL1        0.2100
@<TRIPOS>BOND
     1    36    35    1
     2    37    35    1
     3    35    33    1
     4    34    33    1
     5    33    30    1
     6    31    30    2
     7    30    32    2
     8    30    26    1
     9    26    25    1
    10    26    27    2
    11    25    24    2
    12     4     1    1
    13    27    28    1
    14    24     1    1
    15    24    29    1
    16     6     7    1
    17     6     5    2
    18     1     2   am
    19     7     8    2
    20    28    29    2
    21    29    38    1
    22     2     5    1
    23     2     3    2
    24     5    11    1
    25     8     9    1
    26     8    10    1
    27    38    39    1
    28    11    10    2
    29    10    12    1
    30    13    12    2
    31    12    14    2
    32    12    15    1
    33    16    15    1
    34    15    17    1
    35    23    17    2
    36    23    21    1
    37    17    18    1
    38    22    21    1
    39    21    20    2
    40    18    19    2
    41    20    19    1
