@<TRIPOS>MOLECULE
7168_out_ligand_01.pdbqt
 35 38 0 0 0
SMALL
GASTEIGER

@<TRIPOS>ATOM
      1  C         23.2500  -22.4800  -10.0280 C.2     1  UNL1        0.0320
      2  C         23.1090  -21.8090   -8.8090 C.2     1  UNL1        0.0190
      3  C         21.9110  -21.9050   -8.0920 C.2     1  UNL1        0.0300
      4  C         20.8460  -22.6790   -8.5730 C.2     1  UNL1        0.0360
      5  C         20.9960  -23.3540   -9.7840 C.2     1  UNL1        0.0300
      6  C         22.1930  -23.2620  -10.5050 C.2     1  UNL1        0.0190
      7  N         19.6720  -22.7050   -7.7960 N.am    1  UNL1       -0.3090
      8  C         18.3660  -22.5360   -8.2160 C.2     1  UNL1        0.3270
      9  O         18.0190  -22.4800   -9.3950 O.2     1  UNL1       -0.2460
     10  N         17.4200  -22.5240   -7.1670 N.am    1  UNL1       -0.2990
     11  C         16.0210  -22.7010   -7.5830 C.3     1  UNL1        0.1340
     12  C         17.7300  -22.2040   -5.8090 C.2     1  UNL1        0.0450
     13  C         14.9200  -22.4690   -6.5500 C.3     1  UNL1        0.0210
     14  C         14.8400  -23.5590   -5.4810 C.3     1  UNL1        0.0060
     15  C         16.1950  -24.0510   -4.9900 C.3     1  UNL1        0.0410
     16  C         17.1450  -22.9100   -4.7390 C.2     1  UNL1       -0.0310
     17  C         17.4670  -22.5610   -3.4170 C.2     1  UNL1        0.0090
     18  C         18.3610  -21.5240   -3.1530 C.2     1  UNL1        0.0010
     19  C         18.9390  -20.8220   -4.2060 C.2     1  UNL1        0.0020
     20  C         18.6230  -21.1580   -5.5220 C.2     1  UNL1        0.0300
     21  H         19.7720  -23.0160   -6.8410 H       1  UNL1        0.1700
     22  C         24.5000  -22.4070  -10.8350 C.2     1  UNL1        0.2510
     23  O         24.7110  -23.2240  -11.7240 O.2     1  UNL1       -0.2680
     24  N         25.3540  -21.3630  -10.5430 N.am    1  UNL1       -0.3570
     25  H         25.0230  -20.5940   -9.9760 H       1  UNL1        0.1620
     26  C         26.5380  -21.1030  -11.3370 C.3     1  UNL1        0.1240
     27  C         26.7300  -19.6200  -11.6600 C.3     1  UNL1        0.0500
     28  C         26.7440  -19.2980  -13.1640 C.3     1  UNL1        0.2740
     29  N         26.1900  -20.3720  -14.0150 N.3     1  UNL1        0.0880
     30  C         24.8090  -20.0590  -14.4230 C.3     1  UNL1        0.2720
     31  C         23.9220  -21.2990  -14.5290 C.3     1  UNL1        0.0300
     32  C         24.4780  -22.4900  -15.3030 C.3     1  UNL1        0.0020
     33  C         25.4220  -22.1360  -16.4470 C.3     1  UNL1        0.0020
     34  C         26.8420  -21.8540  -15.9610 C.3     1  UNL1        0.0300
     35  C         27.0440  -20.5370  -15.2090 C.3     1  UNL1        0.2720
@<TRIPOS>BOND
     1    33    34    1
     2    33    32    1
     3    34    35    1
     4    32    31    1
     5    35    29    1
     6    31    30    1
     7    30    29    1
     8    29    28    1
     9    28    27    1
    10    23    22    2
    11    27    26    1
    12    26    24    1
    13    22    24   am
    14    22     1    1
    15    24    25    1
    16     6     1    2
    17     6     5    1
    18     1     2    1
    19     5     4    2
    20     9     8    2
    21     2     3    2
    22     4     3    1
    23     4     7    1
    24     8     7   am
    25     8    10   am
    26     7    21    1
    27    11    10    1
    28    11    13    1
    29    10    12    1
    30    13    14    1
    31    12    20    2
    32    12    16    1
    33    20    19    1
    34    14    15    1
    35    15    16    1
    36    16    17    2
    37    19    18    2
    38    17    18    1
