@<TRIPOS>MOLECULE
71794_out_ligand_01.pdbqt
 42 45 0 0 0
SMALL
GASTEIGER

@<TRIPOS>ATOM
      1  N         21.1040  -22.3580   -7.9320 N.am    1  UNL1       -0.3230
      2  C         20.8470  -21.4760   -6.9020 C.2     1  UNL1        0.2560
      3  O         21.5930  -20.6130   -6.4560 O.2     1  UNL1       -0.2670
      4  H         20.4120  -23.0760   -8.1060 H       1  UNL1        0.1690
      5  C         19.5180  -21.6390   -6.2540 C.2     1  UNL1        0.0330
      6  C         19.2800  -21.2340   -4.9410 C.2     1  UNL1        0.0170
      7  C         18.0180  -21.4260   -4.3720 C.2     1  UNL1        0.0090
      8  C         16.9750  -22.0440   -5.0890 C.2     1  UNL1       -0.0390
      9  C         15.6450  -22.1950   -4.4040 C.3     1  UNL1        0.0500
     10  C         17.2370  -22.4780   -6.4030 C.2     1  UNL1        0.0860
     11  C         18.4980  -22.2570   -6.9820 C.2     1  UNL1        0.0420
     12  S         16.0380  -23.3030   -7.4470 S.O2    1  UNL1        0.2630
     13  O         15.1270  -22.2810   -7.9250 O.2     1  UNL1       -0.2000
     14  O         15.5280  -24.4790   -6.7790 O.2     1  UNL1       -0.2000
     15  N         16.9530  -23.7710   -8.7830 N.pl3   1  UNL1       -0.2800
     16  H         16.7500  -24.7150   -9.1050 H       1  UNL1        0.1790
     17  C         17.3950  -22.7990   -9.7260 C.2     1  UNL1        0.0490
     18  C         16.5130  -21.7680  -10.0630 C.2     1  UNL1        0.0310
     19  C         16.8760  -20.8040  -10.9980 C.2     1  UNL1        0.0030
     20  C         18.1280  -20.8650  -11.6010 C.2     1  UNL1        0.0070
     21  C         19.0340  -21.8850  -11.2720 C.2     1  UNL1       -0.0540
     22  C         20.3750  -21.9070  -11.9610 C.3     1  UNL1        0.0490
     23  C         18.6720  -22.8700  -10.3170 C.2     1  UNL1       -0.0290
     24  C         19.6610  -23.9580   -9.9790 C.3     1  UNL1        0.0510
     25  C         22.2880  -22.4600   -8.6950 C.2     1  UNL1        0.0350
     26  C         22.8850  -21.3850   -9.3580 C.2     1  UNL1        0.0310
     27  C         24.0810  -21.5600  -10.0650 C.2     1  UNL1        0.0270
     28  C         24.6740  -22.8220  -10.1210 C.2     1  UNL1        0.0750
     29  C         24.0860  -23.9070   -9.4710 C.2     1  UNL1        0.0270
     30  C         22.8940  -23.7240   -8.7650 C.2     1  UNL1        0.0310
     31  S         26.2360  -23.0160  -10.9460 S.O2    1  UNL1        0.2480
     32  O         27.1200  -23.8060  -10.1140 O.2     1  UNL1       -0.2050
     33  O         26.6380  -21.6910  -11.3750 O.2     1  UNL1       -0.2050
     34  N         25.8540  -23.8450  -12.3330 N.pl3   1  UNL1       -0.1480
     35  H         25.1670  -24.5740  -12.1860 H       1  UNL1        0.1490
     36  C         25.6050  -23.0890  -13.4710 C.cat   1  UNL1        0.2150
     37  N         26.3000  -23.3340  -14.5810 N.2     1  UNL1       -0.2300
     38  C         25.8960  -22.6590  -15.6700 C.2     1  UNL1        0.1220
     39  C         24.8200  -21.7990  -15.6770 C.2     1  UNL1        0.0460
     40  C         24.1460  -21.6600  -14.4800 C.2     1  UNL1        0.0350
     41  C         22.9410  -20.7710  -14.3870 C.3     1  UNL1        0.0700
     42  N         24.5140  -22.3240  -13.3650 N.2     1  UNL1       -0.2230
@<TRIPOS>BOND
     1    39    38    2
     2    39    40    1
     3    38    37    1
     4    37    36    2
     5    40    41    1
     6    40    42    2
     7    36    42    1
     8    36    34    1
     9    34    35    1
    10    34    31    1
    11    22    21    1
    12    20    21    2
    13    20    19    1
    14    33    31    2
    15    21    23    1
    16    19    18    2
    17    31    28    1
    18    31    32    2
    19    23    24    1
    20    23    17    2
    21    28    27    2
    22    28    29    1
    23    27    26    1
    24    18    17    1
    25    17    15    1
    26    29    30    2
    27    26    25    2
    28    16    15    1
    29    15    12    1
    30    30    25    1
    31    25     1    1
    32     4     1    1
    33     1     2   am
    34    13    12    2
    35    12    14    2
    36    12    10    1
    37    11    10    1
    38    11     5    2
    39     2     3    2
    40     2     5    1
    41    10     8    2
    42     5     6    1
    43     8     9    1
    44     8     7    1
    45     6     7    2
