@<TRIPOS>MOLECULE
71858_out_ligand_01.pdbqt
 44 48 0 0 0
SMALL
GASTEIGER

@<TRIPOS>ATOM
      1  C         20.1980  -24.0920   -9.0710 C.ar    1  UNL1        0.1610
      2  N         21.4720  -24.4830   -8.8570 N.ar    1  UNL1       -0.1310
      3  N         22.5130  -23.9060   -9.5280 N.ar    1  UNL1       -0.1470
      4  C         22.2810  -22.9240  -10.4240 C.ar    1  UNL1        0.1000
      5  C         20.9780  -22.4880  -10.7250 C.ar    1  UNL1        0.0090
      6  C         20.6890  -21.4870  -11.6880 C.2     1  UNL1        0.0150
      7  C         19.3810  -21.0840  -11.9590 C.2     1  UNL1        0.0010
      8  C         18.3280  -21.6820  -11.2890 C.2     1  UNL1        0.0010
      9  C         18.5830  -22.6760  -10.3430 C.2     1  UNL1        0.0160
     10  C         19.9040  -23.0950  -10.0330 C.ar    1  UNL1        0.0240
     11  C         23.5050  -22.3730  -11.0210 C.2     1  UNL1       -0.0030
     12  C         24.3040  -21.4660  -10.3100 C.2     1  UNL1        0.0140
     13  C         25.4630  -20.9290  -10.8780 C.2     1  UNL1        0.0090
     14  C         25.8550  -21.2660  -12.1850 C.2     1  UNL1       -0.0390
     15  C         27.1210  -20.6660  -12.7300 C.3     1  UNL1        0.0500
     16  C         25.0470  -22.1650  -12.9060 C.2     1  UNL1        0.0860
     17  C         23.8890  -22.7110  -12.3270 C.2     1  UNL1        0.0390
     18  S         25.4360  -22.6610  -14.5750 S.O2    1  UNL1        0.2590
     19  O         26.8740  -22.6740  -14.7160 O.2     1  UNL1       -0.2010
     20  O         24.6400  -23.8210  -14.9130 O.2     1  UNL1       -0.2010
     21  N         24.8620  -21.3730  -15.4700 N.3     1  UNL1       -0.3100
     22  H         24.5150  -20.6050  -14.8950 H       1  UNL1        0.1720
     23  C         25.6020  -20.9960  -16.6790 C.3     1  UNL1        0.1910
     24  C         25.9120  -19.5140  -16.7010 C.2     1  UNL1        0.0520
     25  C         26.3060  -18.8620  -15.5310 C.2     1  UNL1        0.0290
     26  C         26.6110  -17.5040  -15.5880 C.2     1  UNL1        0.0030
     27  C         26.5120  -16.8350  -16.8020 C.2     1  UNL1        0.0190
     28  C         26.1180  -17.5560  -17.9180 C.2     1  UNL1        0.1170
     29  N         25.8230  -18.8740  -17.8960 N.2     1  UNL1       -0.2640
     30  N         19.1350  -24.6750   -8.3250 N.pl3   1  UNL1       -0.3390
     31  H         18.5490  -25.2010   -8.9660 H       1  UNL1        0.1670
     32  C         18.3590  -24.0840   -7.3020 C.2     1  UNL1        0.0340
     33  C         17.0530  -24.4740   -7.0110 C.2     1  UNL1        0.0320
     34  C         16.3100  -23.8350   -6.0110 C.2     1  UNL1        0.0400
     35  C         16.8450  -22.7630   -5.2880 C.2     1  UNL1        0.0840
     36  C         18.1360  -22.3080   -5.6170 C.2     1  UNL1        0.0670
     37  C         18.8690  -22.9710   -6.6230 C.2     1  UNL1        0.0490
     38  O         16.1620  -22.1160   -4.2880 O.2     1  UNL1       -0.3550
     39  C         14.7390  -22.1370   -4.3500 C.3     1  UNL1        0.2100
     40  C         18.8260  -21.1470   -4.9680 C.2     1  UNL1        0.2520
     41  N         18.5630  -20.8810   -3.6580 N.am    1  UNL1       -0.3660
     42  H         17.9520  -21.4780   -3.1130 H       1  UNL1        0.1590
     43  H         19.0520  -20.1210   -3.2120 H       1  UNL1        0.1590
     44  O         19.6090  -20.4350   -5.5910 O.2     1  UNL1       -0.2680
@<TRIPOS>BOND
     1    28    29    1
     2    28    27    2
     3    29    24    2
     4    27    26    1
     5    24    23    1
     6    24    25    1
     7    23    21    1
     8    26    25    2
     9    21    22    1
    10    21    18    1
    11    20    18    2
    12    19    18    2
    13    18    16    1
    14    16    17    1
    15    16    14    2
    16    15    14    1
    17    17    11    2
    18    14    13    1
    19     7     6    2
    20     7     8    1
    21     6     5    1
    22     8     9    2
    23    11     4    1
    24    11    12    1
    25    13    12    2
    26     5     4   ar
    27     5    10   ar
    28     4     3   ar
    29     9    10    1
    30    10     1   ar
    31     3     2   ar
    32     1     2   ar
    33     1    30    1
    34    31    30    1
    35    30    32    1
    36    32    33    2
    37    32    37    1
    38    33    34    1
    39    37    36    2
    40    34    35    2
    41    36    35    1
    42    36    40    1
    43    44    40    2
    44    35    38    1
    45    40    41   am
    46    39    38    1
    47    41    43    1
    48    41    42    1
