@<TRIPOS>MOLECULE
72013_out_ligand_01.pdbqt
 33 36 0 0 0
SMALL
GASTEIGER

@<TRIPOS>ATOM
      1  N         20.8200  -22.4870   -7.7160 N.am    1  UNL1       -0.3570
      2  C         19.9780  -21.8080   -6.8600 C.2     1  UNL1        0.2530
      3  O         20.3050  -20.8950   -6.1180 O.2     1  UNL1       -0.2680
      4  H         20.4400  -23.2360   -8.2860 H       1  UNL1        0.1620
      5  C         18.5830  -22.2990   -6.8800 C.ar    1  UNL1        0.0520
      6  C         17.9960  -22.6530   -8.1080 C.ar    1  UNL1       -0.0170
      7  C         16.6530  -23.0110   -8.0680 C.ar    1  UNL1        0.0420
      8  C         18.7610  -22.6610   -9.4070 C.3     1  UNL1        0.0420
      9  N         15.9310  -23.0310   -6.9200 N.ar    1  UNL1       -0.2520
     10  C         15.8910  -23.3880   -9.3110 C.3     1  UNL1        0.0600
     11  C         16.5180  -22.7230   -5.7540 C.ar    1  UNL1        0.0680
     12  C         15.7540  -22.7720   -4.5940 C.2     1  UNL1        0.0320
     13  C         17.8660  -22.3450   -5.6620 C.ar    1  UNL1        0.0090
     14  C         16.2890  -22.4630   -3.3430 C.2     1  UNL1        0.0020
     15  C         17.6220  -22.0980   -3.2380 C.2     1  UNL1        0.0010
     16  C         18.4070  -22.0390   -4.3880 C.2     1  UNL1        0.0150
     17  C         15.7680  -22.2320  -10.3040 C.3     1  UNL1        0.0060
     18  C         17.0140  -22.0160  -11.1610 C.3     1  UNL1        0.0010
     19  C         18.2640  -21.6000  -10.3890 C.3     1  UNL1        0.0050
     20  C         22.2240  -22.1470   -7.8530 C.3     1  UNL1        0.1270
     21  C         22.9780  -23.1120   -8.7750 C.3     1  UNL1        0.0580
     22  C         23.2230  -22.5930  -10.1750 C.2     1  UNL1       -0.0570
     23  C         22.1440  -22.3930  -11.0490 C.2     1  UNL1        0.0090
     24  C         22.3570  -21.9080  -12.3390 C.2     1  UNL1        0.0250
     25  C         23.6570  -21.6290  -12.7650 C.2     1  UNL1        0.0740
     26  C         24.7420  -21.8230  -11.9110 C.2     1  UNL1        0.0250
     27  C         24.5220  -22.3090  -10.6200 C.2     1  UNL1        0.0090
     28  S         23.9080  -20.9790  -14.3920 S.O2    1  UNL1        0.2390
     29  O         25.0650  -20.1170  -14.3600 O.2     1  UNL1       -0.2060
     30  O         23.7670  -22.0530  -15.3500 O.2     1  UNL1       -0.2060
     31  N         22.5380  -20.0200  -14.5900 N.3     1  UNL1       -0.2250
     32  H         22.4820  -19.7330  -15.5690 H       1  UNL1        0.1360
     33  H         21.6800  -20.4770  -14.2850 H       1  UNL1        0.1360
@<TRIPOS>BOND
     1    32    31    1
     2    30    28    2
     3    31    28    1
     4    31    33    1
     5    28    29    2
     6    28    25    1
     7    25    24    2
     8    25    26    1
     9    24    23    1
    10    26    27    2
    11    18    19    1
    12    18    17    1
    13    23    22    2
    14    27    22    1
    15    19     8    1
    16    17    10    1
    17    22    21    1
    18     8     6    1
    19    10     7    1
    20    21    20    1
    21     4     1    1
    22     6     7   ar
    23     6     5   ar
    24     7     9   ar
    25    20     1    1
    26     1     2   am
    27     9    11   ar
    28     5     2    1
    29     5    13   ar
    30     2     3    2
    31    11    13   ar
    32    11    12    1
    33    13    16    1
    34    12    14    2
    35    16    15    2
    36    14    15    1
