@<TRIPOS>MOLECULE
7215_out_ligand_01.pdbqt
 34 37 0 0 0
SMALL
GASTEIGER

@<TRIPOS>ATOM
      1  O         18.0890  -20.3310  -11.7690 O.2     1  UNL1       -0.2730
      2  C         18.6970  -21.2790  -11.2790 C.2     1  UNL1        0.2240
      3  C         17.9890  -22.5260  -10.7950 C.3     1  UNL1        0.1220
      4  C         18.7840  -23.3280   -9.7630 C.3     1  UNL1        0.1290
      5  C         20.2640  -23.2240   -9.9430 C.ar    1  UNL1        0.0700
      6  C         20.8390  -22.2290  -10.6280 C.ar    1  UNL1        0.1450
      7  N         22.1810  -22.0440  -10.7790 N.ar    1  UNL1       -0.2060
      8  C         22.9430  -22.9220  -10.2170 C.ar    1  UNL1        0.1710
      9  N         22.4880  -23.9830   -9.5020 N.ar    1  UNL1       -0.3020
     10  C         21.1600  -24.2290   -9.3440 C.ar    1  UNL1        0.2580
     11  O         20.7370  -25.2170   -8.7600 O.2     1  UNL1       -0.2670
     12  N         20.0600  -21.2700  -11.1990 N.am    1  UNL1       -0.3110
     13  H         23.1450  -24.6420   -9.1110 H       1  UNL1        0.1710
     14  H         20.5330  -20.4880  -11.6390 H       1  UNL1        0.1700
     15  C         18.3890  -22.9150   -8.3360 C.2     1  UNL1        0.2310
     16  O         19.1340  -22.1900   -7.6820 O.2     1  UNL1       -0.2720
     17  N         17.1910  -23.4540   -7.8900 N.am    1  UNL1       -0.3260
     18  H         16.6870  -24.0700   -8.5150 H       1  UNL1        0.1690
     19  C         16.5750  -23.2510   -6.6340 C.2     1  UNL1        0.0370
     20  C         17.0220  -23.8150   -5.4360 C.2     1  UNL1        0.0290
     21  C         16.3550  -23.5590   -4.2320 C.2     1  UNL1        0.0050
     22  C         15.2340  -22.7330   -4.2160 C.2     1  UNL1        0.0420
     23  C         14.7920  -22.1720   -5.4060 C.2     1  UNL1        0.1180
     24  F         13.7170  -21.3730   -5.3970 F       1  UNL1       -0.2060
     25  C         15.4470  -22.4210   -6.6080 C.2     1  UNL1        0.0710
     26  S         24.6730  -22.8750  -10.2910 S.3     1  UNL1       -0.0870
     27  C         24.9120  -21.5000  -11.4510 C.3     1  UNL1        0.1210
     28  C         24.8620  -21.9750  -12.8830 C.2     1  UNL1       -0.0480
     29  C         24.2930  -21.1690  -13.8820 C.2     1  UNL1        0.0090
     30  C         24.2350  -21.6120  -15.2040 C.2     1  UNL1        0.0240
     31  C         24.7430  -22.8660  -15.5370 C.2     1  UNL1        0.0340
     32 CL         24.6750  -23.4110  -17.1680 Cl      1  UNL1       -0.0840
     33  C         25.3040  -23.6830  -14.5580 C.2     1  UNL1        0.0240
     34  C         25.3610  -23.2400  -13.2340 C.2     1  UNL1        0.0090
@<TRIPOS>BOND
     1    32    31    1
     2    31    30    2
     3    31    33    1
     4    30    29    1
     5    33    34    2
     6    29    28    2
     7    34    28    1
     8    28    27    1
     9     1     2    2
    10    14    12    1
    11    27    26    1
    12     2    12   am
    13     2     3    1
    14    12     6    1
    15     3     4    1
    16     7     6   ar
    17     7     8   ar
    18     6     5   ar
    19    26     8    1
    20     8     9   ar
    21     5     4    1
    22     5    10   ar
    23     4    15    1
    24     9    10   ar
    25     9    13    1
    26    10    11    2
    27    18    17    1
    28    15    17   am
    29    15    16    2
    30    17    19    1
    31    19    25    2
    32    19    20    1
    33    25    23    1
    34    20    21    2
    35    23    24    1
    36    23    22    2
    37    21    22    1
