@<TRIPOS>MOLECULE
72650_out_ligand_01.pdbqt
 32 35 0 0 0
SMALL
GASTEIGER

@<TRIPOS>ATOM
      1  N         19.8900  -22.7070  -10.4100 N.am    1  UNL1       -0.3230
      2  C         20.2810  -21.6560  -11.2200 C.2     1  UNL1        0.2560
      3  O         19.6550  -20.6320  -11.4630 O.2     1  UNL1       -0.2670
      4  H         20.4600  -23.5420  -10.4310 H       1  UNL1        0.1690
      5  C         18.7180  -22.7900   -9.6280 C.2     1  UNL1        0.0350
      6  C         17.4290  -22.8220  -10.1600 C.2     1  UNL1        0.0290
      7  C         16.3180  -22.9000   -9.3180 C.2     1  UNL1        0.0030
      8  C         16.4850  -22.9460   -7.9350 C.2     1  UNL1        0.0090
      9  C         17.7690  -22.9140   -7.3740 C.2     1  UNL1       -0.0330
     10  C         18.8780  -22.8320   -8.2350 C.2     1  UNL1        0.0380
     11  C         17.9670  -22.9500   -5.8730 C.3     1  UNL1        0.1170
     12  C         18.1700  -21.5500   -5.2890 C.3     1  UNL1        0.0300
     13  C         18.2990  -21.6560   -3.7750 C.3     1  UNL1        0.0120
     14  C         17.0530  -22.2950   -3.1790 C.3     1  UNL1        0.1030
     15  C         16.6340  -23.5690   -3.8810 C.2     1  UNL1        0.2180
     16  O         16.0120  -24.4600   -3.3090 O.2     1  UNL1       -0.2740
     17  N         16.8740  -23.6470   -5.2250 N.am    1  UNL1       -0.3520
     18  H         16.5890  -24.5350   -5.6220 H       1  UNL1        0.1630
     19  C         21.6000  -21.8370  -11.8880 C.2     1  UNL1        0.0340
     20  C         22.5360  -22.6950  -11.2940 C.2     1  UNL1        0.0190
     21  C         23.7830  -22.9010  -11.8900 C.2     1  UNL1        0.0330
     22  C         24.0850  -22.2560  -13.0870 C.ar    1  UNL1        0.0620
     23  N         25.3280  -22.4590  -13.6870 N.ar    1  UNL1       -0.3170
     24  C         23.1440  -21.4140  -13.6930 C.ar    1  UNL1        0.0630
     25  C         25.7010  -21.8680  -14.8750 C.ar    1  UNL1        0.3140
     26  H         26.0190  -23.0660  -13.2640 H       1  UNL1        0.1690
     27  O         26.8020  -22.0630  -15.3740 O.2     1  UNL1       -0.2620
     28  C         24.6590  -20.9420  -15.5510 C.ar    1  UNL1        0.3140
     29  O         24.8940  -20.3750  -16.6090 O.2     1  UNL1       -0.2620
     30  N         23.4530  -20.7860  -14.9030 N.ar    1  UNL1       -0.3170
     31  H         22.7860  -20.1840  -15.3680 H       1  UNL1        0.1690
     32  C         21.8980  -21.2030  -13.1020 C.2     1  UNL1        0.0490
@<TRIPOS>BOND
     1    29    28    2
     2    28    30   ar
     3    28    25   ar
     4    27    25    2
     5    31    30    1
     6    30    24   ar
     7    25    23   ar
     8    24    32    1
     9    24    22   ar
    10    23    26    1
    11    23    22   ar
    12    32    19    2
    13    22    21    1
    14    21    20    2
    15    19    20    1
    16    19     2    1
    17     3     2    2
    18     2     1   am
    19     4     1    1
    20     1     5    1
    21     6     5    2
    22     6     7    1
    23     5    10    1
    24     7     8    2
    25    10     9    2
    26     8     9    1
    27     9    11    1
    28    11    12    1
    29    11    17    1
    30    18    17    1
    31    12    13    1
    32    17    15   am
    33    15    16    2
    34    15    14    1
    35    13    14    1
