@<TRIPOS>MOLECULE
7290_out_ligand_01.pdbqt
 36 39 0 0 0
SMALL
GASTEIGER

@<TRIPOS>ATOM
      1  S         16.0820  -22.5880   -9.6110 S.O2    1  UNL1        0.2680
      2  O         14.8690  -21.8230   -9.8090 O.2     1  UNL1       -0.2040
      3  O         16.0840  -24.0190   -9.8410 O.2     1  UNL1       -0.2040
      4  C         17.2870  -21.8700  -10.6840 C.ar    1  UNL1        0.2330
      5  N         17.3540  -20.5960  -11.0140 N.ar    1  UNL1       -0.1270
      6  N         18.4890  -20.3270  -11.7610 N.ar    1  UNL1       -0.1220
      7  C         19.1980  -21.4090  -11.9670 C.ar    1  UNL1        0.1970
      8  S         18.5290  -22.8490  -11.3350 S.2     1  UNL1       -0.0150
      9  N         20.4020  -21.5820  -12.5930 N.am    1  UNL1       -0.3000
     10  C         21.5950  -21.4210  -11.9280 C.2     1  UNL1        0.2570
     11  O         21.7480  -21.0470  -10.7730 O.2     1  UNL1       -0.2670
     12  H         20.3730  -21.8180  -13.5710 H       1  UNL1        0.1710
     13  C         22.8070  -21.7160  -12.7440 C.2     1  UNL1        0.0320
     14  C         23.7410  -22.6280  -12.2430 C.2     1  UNL1        0.0170
     15  C         24.8910  -22.9330  -12.9750 C.2     1  UNL1        0.0070
     16  C         25.1190  -22.3290  -14.2170 C.2     1  UNL1       -0.0620
     17  C         26.3350  -22.6840  -15.0230 C.3     1  UNL1        0.0480
     18  C         24.1650  -21.4420  -14.7320 C.2     1  UNL1        0.0070
     19  C         23.0130  -21.1340  -14.0010 C.2     1  UNL1        0.0170
     20  N         16.5190  -22.3370   -8.0010 N.3     1  UNL1       -0.2000
     21  H         15.7360  -21.9600   -7.4710 H       1  UNL1        0.1410
     22  C         17.2620  -23.4170   -7.3200 C.3     1  UNL1        0.1380
     23  C         16.8660  -23.5080   -5.8410 C.2     1  UNL1       -0.0350
     24  C         15.5700  -23.0980   -5.4690 C.2     1  UNL1        0.0090
     25  C         15.1490  -23.1470   -4.1380 C.2     1  UNL1        0.0010
     26  C         16.0150  -23.6110   -3.1530 C.2     1  UNL1        0.0000
     27  C         17.2970  -24.0300   -3.5000 C.2     1  UNL1        0.0010
     28  C         17.7180  -23.9830   -4.8320 C.2     1  UNL1        0.0090
     29  C         18.7640  -23.3720   -7.6070 C.2     1  UNL1       -0.0290
     30  C         19.3110  -24.4200   -8.3790 C.2     1  UNL1        0.0100
     31  C         20.6560  -24.4260   -8.7520 C.2     1  UNL1        0.0070
     32  C         21.4920  -23.3770   -8.3780 C.2     1  UNL1       -0.0610
     33  C         22.9390  -23.3650   -8.7710 C.3     1  UNL1        0.0480
     34  C         20.9750  -22.3550   -7.5730 C.2     1  UNL1        0.0140
     35  C         19.6280  -22.3470   -7.1600 C.2     1  UNL1       -0.0530
     36  C         19.1790  -21.1990   -6.2920 C.3     1  UNL1        0.0490
@<TRIPOS>BOND
     1    17    16    1
     2    18    16    2
     3    18    19    1
     4    16    15    1
     5    19    13    2
     6    12     9    1
     7    15    14    2
     8    13    14    1
     9    13    10    1
    10     9     7    1
    11     9    10   am
    12     7     6   ar
    13     7     8   ar
    14    10    11    2
    15     6     5   ar
    16     8     4   ar
    17     5     4   ar
    18     4     1    1
    19     3     1    2
    20     2     1    2
    21     1    20    1
    22    33    32    1
    23    31    30    1
    24    31    32    2
    25    30    29    2
    26    32    34    1
    27    20    21    1
    28    20    22    1
    29    29    22    1
    30    29    35    1
    31    34    35    2
    32    22    23    1
    33    35    36    1
    34    23    24    2
    35    23    28    1
    36    24    25    1
    37    28    27    2
    38    25    26    2
    39    27    26    1
