@<TRIPOS>MOLECULE
72917_out_ligand_01.pdbqt
 37 40 0 0 0
SMALL
GASTEIGER

@<TRIPOS>ATOM
      1  N         22.0400  -22.9250  -10.7830 N.ar    1  UNL1       -0.2570
      2  C         21.2780  -22.1620  -11.6530 C.ar    1  UNL1        0.2640
      3  O         21.7180  -21.7020  -12.7040 O.2     1  UNL1       -0.2670
      4  C         19.8710  -21.9420  -11.2870 C.ar    1  UNL1        0.0590
      5  C         19.0910  -21.0520  -12.0390 C.2     1  UNL1        0.0190
      6  C         17.7640  -20.8220  -11.6860 C.2     1  UNL1        0.0010
      7  C         17.2250  -21.4720  -10.5810 C.2     1  UNL1        0.0020
      8  C         18.0060  -22.3670   -9.8390 C.2     1  UNL1        0.0310
      9  C         19.3400  -22.6280  -10.1930 C.ar    1  UNL1        0.0550
     10  N         20.1590  -23.5510   -9.4920 N.ar    1  UNL1       -0.2900
     11  C         21.5220  -23.6690   -9.7390 C.ar    1  UNL1        0.3330
     12  O         22.2310  -24.3950   -9.0330 O.2     1  UNL1       -0.2460
     13  C         23.4730  -23.0360  -11.0460 C.3     1  UNL1        0.2390
     14  C         24.2530  -21.8090  -10.5680 C.2     1  UNL1        0.2360
     15  O         23.7960  -21.0330   -9.7300 O.2     1  UNL1       -0.2720
     16  N         25.4340  -21.5670  -11.2410 N.am    1  UNL1       -0.3590
     17  H         25.5510  -22.0280  -12.1430 H       1  UNL1        0.1620
     18  C         26.1770  -20.3340  -11.0410 C.3     1  UNL1        0.1270
     19  C         26.4270  -19.5580  -12.3400 C.3     1  UNL1        0.0580
     20  C         26.1050  -20.3710  -13.5750 C.2     1  UNL1       -0.0570
     21  C         24.8440  -20.2700  -14.1740 C.2     1  UNL1        0.0070
     22  C         24.5240  -21.0590  -15.2840 C.2     1  UNL1        0.0010
     23  C         25.4680  -21.9410  -15.8080 C.2     1  UNL1        0.0000
     24  C         26.7290  -22.0390  -15.2230 C.2     1  UNL1        0.0010
     25  C         27.0460  -21.2610  -14.1100 C.2     1  UNL1        0.0070
     26  C         19.6070  -24.3880   -8.4260 C.3     1  UNL1        0.2370
     27  C         18.9460  -23.5210   -7.3510 C.2     1  UNL1        0.2400
     28  O         19.5540  -22.5880   -6.8340 O.2     1  UNL1       -0.2710
     29  N         17.6720  -23.9650   -7.0240 N.am    1  UNL1       -0.3260
     30  H         17.3820  -24.8410   -7.4610 H       1  UNL1        0.1690
     31  C         16.7880  -23.4310   -6.0640 C.2     1  UNL1        0.0360
     32  C         17.1030  -23.6590   -4.7170 C.2     1  UNL1        0.0290
     33  C         16.2850  -23.1630   -3.7000 C.2     1  UNL1        0.0040
     34  C         15.1440  -22.4300   -4.0200 C.2     1  UNL1        0.0240
     35  C         14.8250  -22.2050   -5.3600 C.2     1  UNL1        0.0360
     36 CL         13.4130  -21.2930   -5.7520 Cl      1  UNL1       -0.0840
     37  C         15.6390  -22.7030   -6.3800 C.2     1  UNL1        0.0530
@<TRIPOS>BOND
     1    23    22    2
     2    23    24    1
     3    22    21    1
     4    24    25    2
     5    21    20    2
     6    25    20    1
     7    20    19    1
     8     3     2    2
     9    19    18    1
    10    17    16    1
    11     5     6    1
    12     5     4    2
    13     6     7    2
    14     2     4   ar
    15     2     1   ar
    16     4     9   ar
    17    16    18    1
    18    16    14   am
    19    13     1    1
    20    13    14    1
    21     1    11   ar
    22     7     8    1
    23    14    15    2
    24     9     8    2
    25     9    10   ar
    26    11    10   ar
    27    11    12    2
    28    10    26    1
    29    26    27    1
    30    30    29    1
    31    27    29   am
    32    27    28    2
    33    29    31    1
    34    37    31    2
    35    37    35    1
    36    31    32    1
    37    36    35    1
    38    35    34    2
    39    32    33    2
    40    34    33    1
