@<TRIPOS>MOLECULE
73100_out_ligand_01.pdbqt
 36 39 0 0 0
SMALL
GASTEIGER

@<TRIPOS>ATOM
      1  C         25.5230  -23.2730  -10.7450 C.3     1  UNL1        0.1640
      2  N         24.1590  -22.8340  -10.9680 N.ar    1  UNL1       -0.2690
      3  C         23.1980  -23.1780  -10.0110 C.ar    1  UNL1        0.2820
      4  O         23.4390  -23.8410   -9.0070 O.2     1  UNL1       -0.2650
      5  C         21.8970  -22.7000  -10.3320 C.ar    1  UNL1        0.1670
      6  C         21.6250  -22.0190  -11.4780 C.ar    1  UNL1        0.1850
      7  N         20.3150  -21.6750  -11.5710 N.ar    1  UNL1       -0.0440
      8  C         19.7560  -22.1540  -10.4790 C.ar    1  UNL1        0.7050
      9  N         20.6960  -22.7710   -9.6700 N.ar    1  UNL1       -0.1680
     10  N         22.5960  -21.7410  -12.4110 N.ar    1  UNL1       -0.2850
     11  C         22.2520  -21.0330  -13.6300 C.3     1  UNL1        0.1630
     12  C         23.9030  -22.1670  -12.1830 C.ar    1  UNL1        0.3320
     13  O         24.8030  -21.9790  -13.0060 O.2     1  UNL1       -0.2460
     14  N         18.4480  -22.0840  -10.1330 N.pl3   1  UNL1       -0.2240
     15  H         18.2360  -21.6220   -9.2520 H       1  UNL1        0.1770
     16  C         17.6250  -23.2750  -10.3410 C.3     1  UNL1        0.1420
     17  C         16.2300  -23.1050   -9.7310 C.3     1  UNL1        0.0580
     18  C         16.2580  -23.2450   -8.2270 C.2     1  UNL1       -0.0570
     19  C         15.6710  -22.2580   -7.4200 C.2     1  UNL1        0.0090
     20  C         15.6820  -22.3810   -6.0300 C.2     1  UNL1        0.0250
     21  C         16.2710  -23.5050   -5.4460 C.2     1  UNL1        0.0740
     22  C         16.8650  -24.4930   -6.2350 C.2     1  UNL1        0.0250
     23  C         16.8520  -24.3630   -7.6250 C.2     1  UNL1        0.0090
     24  S         16.2920  -23.6710   -3.6810 S.O2    1  UNL1        0.2390
     25  O         17.6570  -23.5450   -3.2230 O.2     1  UNL1       -0.2060
     26  O         15.4470  -24.7810   -3.3120 O.2     1  UNL1       -0.2060
     27  N         15.5200  -22.2510   -3.2040 N.3     1  UNL1       -0.2250
     28  H         14.7050  -22.0290   -3.7740 H       1  UNL1        0.1360
     29  H         16.2030  -21.4920   -3.2020 H       1  UNL1        0.1360
     30  C         20.4730  -23.2680   -8.3190 C.3     1  UNL1        0.1860
     31  C         20.3960  -22.1570   -7.2990 C.2     1  UNL1       -0.0390
     32  C         21.5000  -21.3150   -7.0860 C.2     1  UNL1        0.0090
     33  C         21.4390  -20.2880   -6.1430 C.2     1  UNL1        0.0010
     34  C         20.2810  -20.0970   -5.3940 C.2     1  UNL1        0.0000
     35  C         19.1840  -20.9370   -5.5820 C.2     1  UNL1        0.0010
     36  C         19.2430  -21.9640   -6.5250 C.2     1  UNL1        0.0090
@<TRIPOS>BOND
     1    11    10    1
     2    13    12    2
     3    10    12   ar
     4    10     6   ar
     5    12     2   ar
     6     7     6   ar
     7     7     8   ar
     8     6     5   ar
     9     2     1    1
    10     2     3   ar
    11     8    14    1
    12     8     9   ar
    13    16    14    1
    14    16    17    1
    15     5     3   ar
    16     5     9   ar
    17    14    15    1
    18     3     4    2
    19    17    18    1
    20     9    30    1
    21    30    31    1
    22    18    23    2
    23    18    19    1
    24    23    22    1
    25    19    20    2
    26    31    32    2
    27    31    36    1
    28    32    33    1
    29    36    35    2
    30    22    21    2
    31    33    34    2
    32    20    21    1
    33    35    34    1
    34    21    24    1
    35    28    27    1
    36    24    26    2
    37    24    25    2
    38    24    27    1
    39    27    29    1
