@<TRIPOS>MOLECULE
73132_out_ligand_01.pdbqt
 37 40 0 0 0
SMALL
GASTEIGER

@<TRIPOS>ATOM
      1  N         21.1610  -22.8680   -9.9870 N.ar    1  UNL1       -0.1680
      2  C         20.2120  -22.1910  -10.7350 C.ar    1  UNL1        0.7050
      3  N         20.7450  -21.6980  -11.8350 N.ar    1  UNL1       -0.0440
      4  C         22.0600  -22.0340  -11.7750 C.ar    1  UNL1        0.1850
      5  C         22.3600  -22.7260  -10.6430 C.ar    1  UNL1        0.1670
      6  C         23.6780  -23.1600  -10.3310 C.ar    1  UNL1        0.2820
      7  O         23.9760  -23.6920   -9.2650 O.2     1  UNL1       -0.2650
      8  N         24.5980  -22.8790  -11.3460 N.ar    1  UNL1       -0.2690
      9  C         25.9730  -23.2910  -11.1400 C.3     1  UNL1        0.1640
     10  C         24.3330  -22.1270  -12.5070 C.ar    1  UNL1        0.3320
     11  O         25.2330  -21.8420  -13.3020 O.2     1  UNL1       -0.2460
     12  N         23.0160  -21.7150  -12.7100 N.ar    1  UNL1       -0.2850
     13  C         22.6520  -20.9530  -13.8900 C.3     1  UNL1        0.1630
     14  N         18.9200  -22.0830  -10.3540 N.pl3   1  UNL1       -0.2240
     15  H         18.4600  -21.1820  -10.2920 H       1  UNL1        0.1770
     16  C         18.0180  -23.2040  -10.6030 C.3     1  UNL1        0.1420
     17  C         16.5640  -22.8290  -10.3020 C.3     1  UNL1        0.0580
     18  C         16.2110  -23.0630   -8.8530 C.2     1  UNL1       -0.0570
     19  C         15.8620  -21.9800   -8.0320 C.2     1  UNL1        0.0090
     20  C         15.5240  -22.1860   -6.6940 C.2     1  UNL1        0.0250
     21  C         15.5240  -23.4840   -6.1790 C.2     1  UNL1        0.0740
     22  C         15.8730  -24.5730   -6.9810 C.2     1  UNL1        0.0250
     23  C         16.2110  -24.3600   -8.3180 C.2     1  UNL1        0.0090
     24  S         15.0980  -23.7370   -4.4770 S.O2    1  UNL1        0.2390
     25  O         14.8010  -22.4550   -3.8800 O.2     1  UNL1       -0.2060
     26  O         14.2000  -24.8630   -4.3910 O.2     1  UNL1       -0.2060
     27  N         16.5810  -24.2020   -3.8250 N.3     1  UNL1       -0.2250
     28  H         17.3240  -23.6840   -4.2990 H       1  UNL1        0.1360
     29  H         16.7370  -25.2090   -3.8570 H       1  UNL1        0.1360
     30  C         20.9460  -23.6030   -8.7520 C.3     1  UNL1        0.1860
     31  C         20.4190  -22.7160   -7.6490 C.2     1  UNL1       -0.0390
     32  C         21.1290  -21.5800   -7.2310 C.2     1  UNL1        0.0090
     33  C         20.6360  -20.7690   -6.2070 C.2     1  UNL1        0.0070
     34  C         19.4210  -21.0690   -5.5840 C.2     1  UNL1       -0.0620
     35  C         18.9070  -20.2140   -4.4640 C.3     1  UNL1        0.0480
     36  C         18.7190  -22.2100   -5.9850 C.2     1  UNL1        0.0070
     37  C         19.2110  -23.0220   -7.0100 C.2     1  UNL1        0.0090
@<TRIPOS>BOND
     1    13    12    1
     2    11    10    2
     3    12    10   ar
     4    12     4   ar
     5    10     8   ar
     6     3     4   ar
     7     3     2   ar
     8     4     5   ar
     9     8     9    1
    10     8     6   ar
    11     2    14    1
    12     2     1   ar
    13     5     6   ar
    14     5     1   ar
    15    16    14    1
    16    16    17    1
    17    14    15    1
    18     6     7    2
    19    17    18    1
    20     1    30    1
    21    18    23    2
    22    18    19    1
    23    30    31    1
    24    23    22    1
    25    19    20    2
    26    31    32    2
    27    31    37    1
    28    32    33    1
    29    37    36    2
    30    22    21    2
    31    20    21    1
    32    33    34    2
    33    21    24    1
    34    36    34    1
    35    34    35    1
    36    24    26    2
    37    24    25    2
    38    24    27    1
    39    28    27    1
    40    29    27    1
