@<TRIPOS>MOLECULE
73384_out_ligand_01.pdbqt
 32 35 0 0 0
SMALL
GASTEIGER

@<TRIPOS>ATOM
      1  N         21.2830  -22.8730  -10.6200 N.ar    1  UNL1       -0.2930
      2  C         20.6060  -21.9810  -11.4270 C.ar    1  UNL1        0.1050
      3  C         21.3720  -21.2200  -12.4830 C.3     1  UNL1        0.0910
      4  N         19.3340  -21.7540  -11.3340 N.ar    1  UNL1       -0.2390
      5  C         18.6240  -22.4310  -10.3800 C.ar    1  UNL1        0.0510
      6  C         19.1640  -23.3050   -9.5200 C.ar    1  UNL1        0.0630
      7  C         20.6130  -23.5550   -9.6170 C.ar    1  UNL1        0.2590
      8  O         21.1760  -24.2940   -8.8110 O.2     1  UNL1       -0.2670
      9  C         18.3850  -24.0250   -8.4580 C.3     1  UNL1        0.3190
     10  N         17.0620  -23.4250   -8.2210 N.3     1  UNL1        0.0970
     11  C         16.3600  -23.1680   -9.4820 C.3     1  UNL1        0.2790
     12  C         17.1400  -22.1500  -10.3340 C.3     1  UNL1        0.0900
     13  C         22.7100  -23.1640  -10.7900 C.3     1  UNL1        0.2360
     14  C         23.6200  -21.9270  -10.7920 C.2     1  UNL1        0.2400
     15  N         24.3570  -21.7540  -11.9480 N.am    1  UNL1       -0.3260
     16  H         24.1810  -22.4130  -12.7010 H       1  UNL1        0.1690
     17  O         23.5820  -21.1480   -9.8390 O.2     1  UNL1       -0.2710
     18  C         25.2940  -20.7420  -12.2350 C.2     1  UNL1        0.0360
     19  C         26.1420  -20.1650  -11.2870 C.2     1  UNL1        0.0290
     20  C         27.0530  -19.1740  -11.6650 C.2     1  UNL1        0.0040
     21  C         27.1210  -18.7480  -12.9930 C.2     1  UNL1        0.0180
     22  C         26.2730  -19.3060  -13.9520 C.2     1  UNL1        0.0020
     23  C         25.3720  -20.3090  -13.5680 C.2     1  UNL1        0.0480
     24  S         26.3230  -18.8120  -15.6690 S.3     1  UNL1       -0.1340
     25  C         27.0120  -17.1410  -15.5060 C.3     1  UNL1        0.0950
     26  C         16.2640  -24.1400   -7.2170 C.3     1  UNL1        0.3110
     27  C         16.3100  -23.6070   -5.7990 C.2     1  UNL1       -0.0300
     28  C         15.2400  -22.8640   -5.2780 C.2     1  UNL1        0.0090
     29  C         15.2830  -22.3740   -3.9700 C.2     1  UNL1        0.0010
     30  C         16.3990  -22.6160   -3.1700 C.2     1  UNL1        0.0000
     31  C         17.4740  -23.3450   -3.6780 C.2     1  UNL1        0.0010
     32  C         17.4320  -23.8370   -4.9850 C.2     1  UNL1        0.0090
@<TRIPOS>BOND
     1    24    25    1
     2    24    22    1
     3    22    23    1
     4    22    21    2
     5    23    18    2
     6    21    20    1
     7    16    15    1
     8     3     2    1
     9    18    15    1
    10    18    19    1
    11    15    14   am
    12    20    19    2
    13     2     4   ar
    14     2     1   ar
    15     4     5   ar
    16    14    13    1
    17    14    17    2
    18    13     1    1
    19     1     7   ar
    20     5    12    1
    21     5     6   ar
    22    12    11    1
    23     7     6   ar
    24     7     8    2
    25     6     9    1
    26    11    10    1
    27     9    10    1
    28    10    26    1
    29    26    27    1
    30    27    28    2
    31    27    32    1
    32    28    29    1
    33    32    31    2
    34    29    30    2
    35    31    30    1
