@<TRIPOS>MOLECULE
74606_out_ligand_01.pdbqt
 42 46 0 0 0
SMALL
GASTEIGER

@<TRIPOS>ATOM
      1  C         19.2140  -23.3530   -8.9860 C.2     1  UNL1        0.0770
      2  C         20.4660  -23.8520   -8.6370 C.2     1  UNL1        0.0270
      3  C         21.5840  -23.4730   -9.3950 C.2     1  UNL1        0.0290
      4  C         21.4900  -22.6150  -10.5200 C.2     1  UNL1        0.0620
      5  C         20.2020  -22.1450  -10.8660 C.2     1  UNL1        0.1270
      6  C         19.0680  -22.5010  -10.0900 C.2     1  UNL1        0.0620
      7  N         22.7310  -22.1850  -11.1110 N.pl3   1  UNL1       -0.1810
      8  H         23.2270  -21.5350  -10.4770 H       1  UNL1        0.1550
      9  N         23.4660  -23.2780  -11.4490 N.2     1  UNL1       -0.2080
     10  C         24.3660  -23.2410  -12.3850 C.2     1  UNL1        0.1450
     11  C         25.0920  -22.1900  -13.1630 C.2     1  UNL1        0.0050
     12  C         25.7370  -21.0460  -12.5880 C.2     1  UNL1       -0.0130
     13  C         25.8480  -20.7360  -11.2010 C.2     1  UNL1        0.0130
     14  C         26.3030  -20.0910  -13.4670 C.2     1  UNL1       -0.0240
     15  C         26.5410  -19.6190  -10.7170 C.2     1  UNL1        0.0010
     16  C         27.1210  -18.7300  -11.6080 C.2     1  UNL1        0.0010
     17  C         26.9810  -18.9580  -12.9740 C.2     1  UNL1        0.0120
     18  C         26.1540  -20.2340  -14.8570 C.2     1  UNL1        0.0240
     19  C         25.5170  -21.3390  -15.4330 C.2     1  UNL1       -0.0240
     20  C         25.3980  -21.4130  -16.8380 C.2     1  UNL1        0.0120
     21  C         25.0000  -22.3610  -14.6090 C.2     1  UNL1       -0.0130
     22  C         24.8200  -22.5200  -17.4620 C.2     1  UNL1        0.0010
     23  C         24.3370  -23.5610  -16.6960 C.2     1  UNL1        0.0010
     24  C         24.4470  -23.4920  -15.2960 C.2     1  UNL1        0.0130
     25  N         19.9860  -21.2830  -12.0330 N.pl3   1  UNL1       -0.1140
     26  O         20.8940  -21.2140  -12.8760 O.2     1  UNL1       -0.5320
     27  O         18.9380  -20.6090  -12.0850 O.2     1  UNL1       -0.5320
     28  S         17.8000  -23.7160   -7.9630 S.O2    1  UNL1        0.2460
     29  O         18.2830  -24.5230   -6.8610 O.2     1  UNL1       -0.2060
     30  O         16.7320  -24.1710   -8.8370 O.2     1  UNL1       -0.2060
     31  N         17.4200  -22.1600   -7.3470 N.pl3   1  UNL1       -0.1800
     32  H         18.2550  -21.5770   -7.5390 H       1  UNL1        0.1460
     33  C         17.1830  -22.1640   -5.9140 C.2     1  UNL1        0.0390
     34  C         16.0540  -22.8530   -5.4450 C.2     1  UNL1        0.0250
     35  C         15.8310  -22.9850   -4.0710 C.2     1  UNL1        0.0020
     36  C         16.7360  -22.4450   -3.1530 C.2     1  UNL1        0.0010
     37  C         17.8730  -21.7670   -3.6120 C.2     1  UNL1        0.0200
     38  C         18.1030  -21.6290   -4.9900 C.2     1  UNL1        0.0590
     39  C         19.2970  -20.9120   -5.4890 C.2     1  UNL1        0.1780
     40  O         20.1500  -21.3970   -6.2120 O.2     1  UNL1       -0.6460
     41  O         19.4130  -19.6800   -4.9740 O.3     1  UNL1       -0.7730
     42  H         18.7010  -19.1730   -5.4160 H       1  UNL1        0.1670
@<TRIPOS>BOND
     1    22    20    2
     2    22    23    1
     3    20    19    1
     4    23    24    2
     5    19    18    2
     6    19    21    1
     7    24    21    1
     8    18    14    1
     9    21    11    2
    10    14    17    1
    11    14    12    2
    12    11    12    1
    13    11    10    1
    14    17    16    2
    15    26    25    2
    16    12    13    1
    17    10     9    2
    18    27    25    2
    19    25     5    1
    20    16    15    1
    21     9     7    1
    22    13    15    2
    23     7     4    1
    24     7     8    1
    25     5     4    2
    26     5     6    1
    27     4     3    1
    28     6     1    2
    29     3     2    2
    30     1     2    1
    31     1    28    1
    32    30    28    2
    33    28    31    1
    34    28    29    2
    35    32    31    1
    36    31    33    1
    37    40    39    2
    38    33    34    2
    39    33    38    1
    40    39    38    1
    41    39    41    1
    42    34    35    1
    43    42    41    1
    44    38    37    2
    45    35    36    2
    46    37    36    1
