@<TRIPOS>MOLECULE
74649_out_ligand_01.pdbqt
 31 33 0 0 0
SMALL
GASTEIGER

@<TRIPOS>ATOM
      1  C         19.6320  -22.2150  -10.9990 C.2     1  UNL1        0.0350
      2  C         19.1430  -21.0500  -11.6080 C.2     1  UNL1        0.0290
      3  C         17.8220  -20.6390  -11.4080 C.2     1  UNL1        0.0030
      4  C         16.9750  -21.3920  -10.6000 C.2     1  UNL1        0.0130
      5  C         17.4500  -22.5620  -10.0060 C.2     1  UNL1       -0.0150
      6  C         18.7780  -22.9640  -10.1860 C.2     1  UNL1        0.0420
      7  C         16.5980  -23.3780   -9.1140 C.2     1  UNL1        0.1500
      8  N         16.9230  -24.0010   -8.0170 N.2     1  UNL1       -0.1860
      9  N         18.1730  -23.8240   -7.5230 N.pl3   1  UNL1       -0.2720
     10  H         18.9270  -23.7300   -8.2110 H       1  UNL1        0.1890
     11  C         18.3140  -22.9000   -6.4570 C.ar    1  UNL1        0.1360
     12  C         19.1980  -21.8160   -6.4730 C.ar    1  UNL1        0.2050
     13  F         20.0180  -21.5850   -7.5100 F       1  UNL1       -0.1990
     14  C         19.2110  -20.9370   -5.3960 C.ar    1  UNL1        0.2530
     15  F         20.0660  -19.9030   -5.4200 F       1  UNL1       -0.1810
     16  N         18.4060  -21.0370   -4.3160 N.ar    1  UNL1       -0.1860
     17  C         17.5400  -22.0700   -4.3320 C.ar    1  UNL1        0.2530
     18  F         16.7120  -22.1920   -3.2840 F       1  UNL1       -0.1810
     19  C         17.4530  -22.9970   -5.3610 C.ar    1  UNL1        0.2050
     20  F         16.5550  -23.9930   -5.3030 F       1  UNL1       -0.1990
     21  N         20.9810  -22.5490  -11.2420 N.am    1  UNL1       -0.3230
     22  C         22.0980  -22.0440  -10.5990 C.2     1  UNL1        0.2560
     23  O         22.1070  -21.2660   -9.6540 O.2     1  UNL1       -0.2670
     24  H         21.1380  -23.2900  -11.9120 H       1  UNL1        0.1690
     25  C         23.4010  -22.5580  -11.1100 C.2     1  UNL1        0.0320
     26  C         24.4850  -22.7950  -10.2560 C.2     1  UNL1        0.0170
     27  C         25.6900  -23.2770  -10.7750 C.2     1  UNL1        0.0070
     28  C         25.8170  -23.5450  -12.1450 C.2     1  UNL1       -0.0620
     29  C         27.1210  -24.0340  -12.7050 C.3     1  UNL1        0.0480
     30  C         24.7280  -23.3090  -12.9920 C.2     1  UNL1        0.0070
     31  C         23.5220  -22.8290  -12.4770 C.2     1  UNL1        0.0170
@<TRIPOS>BOND
     1    30    31    1
     2    30    28    2
     3    29    28    1
     4    31    25    2
     5    28    27    1
     6    24    21    1
     7     2     3    1
     8     2     1    2
     9     3     4    2
    10    21     1    1
    11    21    22   am
    12    25    22    1
    13    25    26    1
    14     1     6    1
    15    27    26    2
    16     4     5    1
    17    22    23    2
    18     6     5    2
    19     5     7    1
    20     7     8    2
    21    10     9    1
    22     8     9    1
    23     9    11    1
    24    13    12    1
    25    12    11   ar
    26    12    14   ar
    27    11    19   ar
    28    15    14    1
    29    14    16   ar
    30    19    20    1
    31    19    17   ar
    32    17    16   ar
    33    17    18    1
