@<TRIPOS>MOLECULE
74774_out_ligand_01.pdbqt
 38 43 0 0 0
SMALL
GASTEIGER

@<TRIPOS>ATOM
      1  C         22.7210  -21.5840  -10.2020 C.ar    1  UNL1        0.1770
      2  N         24.0140  -21.4580  -10.1880 N.ar    1  UNL1       -0.2160
      3  C         24.5870  -21.3880  -11.4080 C.ar    1  UNL1        0.1170
      4  S         26.2890  -21.1830  -11.5890 S.2     1  UNL1       -0.0730
      5  C         26.1280  -21.1840  -13.2600 C.ar    1  UNL1       -0.0080
      6  C         24.8430  -21.3490  -13.6980 C.ar    1  UNL1       -0.0260
      7  C         23.9340  -21.4720  -12.6230 C.ar    1  UNL1        0.0760
      8  C         22.4940  -21.6220  -12.6290 C.ar    1  UNL1        0.2680
      9  O         21.8840  -21.6850  -13.6950 O.2     1  UNL1       -0.2670
     10  N         21.9040  -21.6100  -11.3490 N.ar    1  UNL1       -0.2560
     11  C         24.7670  -21.3270  -15.1820 C.3     1  UNL1        0.0410
     12  C         26.2700  -21.4280  -15.5900 C.3     1  UNL1        0.0100
     13  C         27.1200  -21.0250  -14.3450 C.3     1  UNL1        0.0470
     14  S         22.0230  -21.8000   -8.5930 S.3     1  UNL1       -0.0820
     15  C         21.8290  -23.6010   -8.5630 C.3     1  UNL1        0.1850
     16  C         20.4440  -24.0170   -8.0930 C.2     1  UNL1        0.2320
     17  N         19.8380  -23.0460   -7.3190 N.am    1  UNL1       -0.3200
     18  H         20.3380  -22.1690   -7.1640 H       1  UNL1        0.1690
     19  O         19.9920  -25.1090   -8.4210 O.2     1  UNL1       -0.2720
     20  C         18.5700  -23.0790   -6.7550 C.ar    1  UNL1        0.0930
     21  C         18.1240  -22.2490   -5.7180 C.ar    1  UNL1        0.0720
     22  C         16.7600  -22.5540   -5.4320 C.ar    1  UNL1       -0.0260
     23  C         16.2790  -23.5740   -6.2060 C.ar    1  UNL1       -0.0080
     24  C         15.6950  -22.0490   -4.5250 C.3     1  UNL1        0.0410
     25  S         17.3850  -24.1930   -7.2870 S.2     1  UNL1       -0.0750
     26  C         14.8640  -23.9270   -5.9520 C.3     1  UNL1        0.0470
     27  C         14.4030  -22.7030   -5.1120 C.3     1  UNL1        0.0100
     28  C         18.9920  -21.2390   -5.1090 C.2     1  UNL1        0.2520
     29  N         18.8410  -21.0170   -3.7720 N.am    1  UNL1       -0.3660
     30  H         18.3460  -21.6690   -3.1830 H       1  UNL1        0.1590
     31  H         19.5370  -20.4270   -3.3390 H       1  UNL1        0.1590
     32  O         19.8520  -20.6290   -5.7430 O.2     1  UNL1       -0.2680
     33  C         20.4720  -21.5770  -11.2930 C.2     1  UNL1        0.0440
     34  C         19.7660  -20.3870  -11.5290 C.2     1  UNL1        0.0300
     35  C         18.3720  -20.3620  -11.4650 C.2     1  UNL1        0.0020
     36  C         17.6660  -21.5270  -11.1740 C.2     1  UNL1        0.0000
     37  C         18.3510  -22.7200  -10.9610 C.2     1  UNL1        0.0020
     38  C         19.7460  -22.7470  -11.0260 C.2     1  UNL1        0.0300
@<TRIPOS>BOND
     1    12    11    1
     2    12    13    1
     3    11     6    1
     4    13     5    1
     5     6     5   ar
     6     6     7   ar
     7     9     8    2
     8     5     4   ar
     9     8     7   ar
    10     8    10   ar
    11     7     3   ar
    12     4     3   ar
    13    34    35    1
    14    34    33    2
    15    35    36    2
    16     3     2   ar
    17    10    33    1
    18    10     1   ar
    19    33    38    1
    20    36    37    1
    21    38    37    2
    22     1     2   ar
    23     1    14    1
    24    14    15    1
    25    15    16    1
    26    19    16    2
    27    16    17   am
    28    17    18    1
    29    17    20    1
    30    25    20   ar
    31    25    23   ar
    32    20    21   ar
    33    23    26    1
    34    23    22   ar
    35    26    27    1
    36    32    28    2
    37    21    22   ar
    38    21    28    1
    39    22    24    1
    40    27    24    1
    41    28    29   am
    42    29    31    1
    43    29    30    1
