@<TRIPOS>MOLECULE
74824_out_ligand_01.pdbqt
 38 41 0 0 0
SMALL
GASTEIGER

@<TRIPOS>ATOM
      1  N         23.9270  -22.6930   -9.4660 N.am    1  UNL1       -0.3260
      2  C         24.2220  -22.0100  -10.6370 C.2     1  UNL1        0.2500
      3  O         23.4120  -21.5090  -11.4030 O.2     1  UNL1       -0.2710
      4  H         24.7200  -22.9580   -8.8780 H       1  UNL1        0.1690
      5  C         22.6510  -22.9550   -8.9290 C.2     1  UNL1        0.0340
      6  C         22.1100  -21.9870   -8.0730 C.2     1  UNL1        0.0300
      7  C         20.8400  -22.1590   -7.5110 C.2     1  UNL1        0.0190
      8  C         20.1010  -23.3200   -7.7790 C.2     1  UNL1        0.0320
      9  C         20.6360  -24.2800   -8.6380 C.2     1  UNL1        0.0190
     10  C         21.9020  -24.0990   -9.2120 C.2     1  UNL1        0.0300
     11  C         18.7460  -23.5600   -7.2010 C.2     1  UNL1        0.2560
     12  N         18.1800  -22.4710   -6.5740 N.am    1  UNL1       -0.3210
     13  H         18.7220  -21.6210   -6.4870 H       1  UNL1        0.1690
     14  O         18.2570  -24.6780   -7.3020 O.2     1  UNL1       -0.2670
     15  C         16.9190  -22.3750   -5.9490 C.2     1  UNL1        0.0680
     16  C         15.7250  -22.2510   -6.6510 C.2     1  UNL1        0.0320
     17  C         14.5180  -22.1690   -5.9650 C.2     1  UNL1        0.0020
     18  C         14.4980  -22.2020   -4.5760 C.2     1  UNL1        0.0030
     19  C         15.6860  -22.3170   -3.8610 C.2     1  UNL1        0.0390
     20  C         16.9000  -22.4090   -4.5370 C.2     1  UNL1        0.0950
     21  O         18.1300  -22.5280   -3.9350 O.2     1  UNL1       -0.3540
     22  C         18.5660  -21.4310   -3.1530 C.3     1  UNL1        0.2100
     23  C         25.7330  -21.8630  -10.8770 C.3     1  UNL1        0.3740
     24  N         26.2860  -22.8380  -11.8620 N.3     1  UNL1        0.1000
     25  C         26.9670  -23.9540  -11.1970 C.3     1  UNL1        0.3100
     26  C         25.2580  -23.3550  -12.7900 C.3     1  UNL1        0.3500
     27  C         25.3850  -22.6320  -14.1200 C.ar    1  UNL1        0.1360
     28  N         25.8430  -21.4220  -14.1930 N.ar    1  UNL1       -0.2330
     29  C         25.8840  -20.8320  -15.4650 C.ar    1  UNL1        0.0740
     30  C         26.2690  -19.4960  -15.5760 C.2     1  UNL1        0.0320
     31  C         25.5400  -21.5230  -16.6310 C.ar    1  UNL1        0.0610
     32  C         26.3030  -18.8640  -16.8270 C.2     1  UNL1        0.0020
     33  C         25.9670  -19.5720  -17.9820 C.2     1  UNL1        0.0010
     34  C         25.5850  -20.9070  -17.8860 C.2     1  UNL1        0.0190
     35  C         25.1090  -22.9220  -16.4920 C.ar    1  UNL1        0.2590
     36  O         24.8750  -23.6360  -17.4580 O.2     1  UNL1       -0.2670
     37  N         25.0000  -23.3690  -15.2100 N.ar    1  UNL1       -0.3090
     38  H         24.7740  -24.3420  -15.0850 H       1  UNL1        0.1700
@<TRIPOS>BOND
     1    33    34    2
     2    33    32    1
     3    34    31    1
     4    36    35    2
     5    32    30    2
     6    31    35   ar
     7    31    29   ar
     8    35    37   ar
     9    30    29    1
    10    29    28   ar
    11    37    38    1
    12    37    27   ar
    13    28    27   ar
    14    27    26    1
    15    26    24    1
    16    24    25    1
    17    24    23    1
    18     3     2    2
    19    23     2    1
    20     2     1   am
    21     1     5    1
    22     1     4    1
    23    10     5    2
    24    10     9    1
    25     5     6    1
    26     9     8    2
    27     6     7    2
    28     8     7    1
    29     8    11    1
    30    14    11    2
    31    11    12   am
    32    16    17    1
    33    16    15    2
    34    12    13    1
    35    12    15    1
    36    17    18    2
    37    15    20    1
    38    18    19    1
    39    20    21    1
    40    20    19    2
    41    21    22    1
