@<TRIPOS>MOLECULE
74952_out_ligand_01.pdbqt
 37 40 0 0 0
SMALL
GASTEIGER

@<TRIPOS>ATOM
      1  O         21.8540  -22.5620   -8.8910 O.3     1  UNL1       -0.3080
      2  C         21.0500  -23.6510   -9.0230 C.2     1  UNL1        0.2940
      3  O         21.4180  -24.7720   -9.3350 O.2     1  UNL1       -0.2590
      4  C         19.6480  -23.2970   -8.6450 C.2     1  UNL1        0.0500
      5  C         19.1980  -23.7190   -7.4440 C.2     1  UNL1        0.0320
      6  C         17.8620  -23.4840   -6.8670 C.2     1  UNL1       -0.0020
      7  C         16.8350  -24.4150   -7.0830 C.2     1  UNL1        0.0140
      8  C         15.5640  -24.2000   -6.5540 C.2     1  UNL1        0.0010
      9  C         15.3070  -23.0500   -5.8140 C.2     1  UNL1        0.0030
     10  C         16.3180  -22.1090   -5.6010 C.2     1  UNL1        0.0370
     11  C         17.5990  -22.3130   -6.1270 C.2     1  UNL1        0.0780
     12  O         18.6530  -21.4480   -5.9680 O.2     1  UNL1       -0.3550
     13  C         18.8580  -20.8970   -4.6740 C.3     1  UNL1        0.2100
     14  C         18.8330  -22.5020   -9.5870 C.2     1  UNL1       -0.0200
     15  C         17.4360  -22.6230   -9.5950 C.2     1  UNL1        0.0120
     16  C         16.6630  -21.8760  -10.4860 C.2     1  UNL1        0.0010
     17  C         17.2790  -21.0050  -11.3830 C.2     1  UNL1        0.0000
     18  C         18.6670  -20.8810  -11.3900 C.2     1  UNL1        0.0010
     19  C         19.4410  -21.6260  -10.4970 C.2     1  UNL1        0.0120
     20  C         23.2620  -22.8130   -8.9600 C.3     1  UNL1        0.2820
     21  C         23.9100  -22.2630  -10.2340 C.2     1  UNL1        0.2460
     22  O         24.3930  -21.1330  -10.2580 O.2     1  UNL1       -0.2710
     23  N         23.9460  -23.1800  -11.2670 N.am    1  UNL1       -0.3190
     24  H         23.8550  -24.1600  -11.0270 H       1  UNL1        0.1690
     25  C         24.4110  -22.8950  -12.5280 C.ar    1  UNL1        0.0930
     26  S         25.8200  -23.8070  -12.9130 S.2     1  UNL1       -0.0750
     27  C         25.9670  -22.9960  -14.3640 C.ar    1  UNL1       -0.0080
     28  C         24.9670  -22.0950  -14.6010 C.ar    1  UNL1       -0.0260
     29  C         26.9460  -23.1220  -15.4670 C.3     1  UNL1        0.0470
     30  C         24.0010  -22.0520  -13.5540 C.ar    1  UNL1        0.0720
     31  C         25.1170  -21.4730  -15.9420 C.3     1  UNL1        0.0410
     32  C         26.5710  -21.8840  -16.3370 C.3     1  UNL1        0.0100
     33  C         22.7500  -21.3140  -13.5900 C.2     1  UNL1        0.2520
     34  N         22.7270  -20.2780  -14.4820 N.am    1  UNL1       -0.3660
     35  H         23.6130  -19.8590  -14.7240 H       1  UNL1        0.1590
     36  H         21.9580  -19.6390  -14.3270 H       1  UNL1        0.1590
     37  O         21.7720  -21.5910  -12.9050 O.2     1  UNL1       -0.2680
@<TRIPOS>BOND
     1    32    31    1
     2    32    29    1
     3    31    28    1
     4    29    27    1
     5    35    34    1
     6    28    27   ar
     7    28    30   ar
     8    34    36    1
     9    34    33   am
    10    27    26   ar
    11    33    30    1
    12    33    37    2
    13    30    25   ar
    14    26    25   ar
    15    25    23    1
    16    18    17    2
    17    18    19    1
    18    17    16    1
    19    23    24    1
    20    23    21   am
    21    19    14    2
    22    16    15    2
    23    22    21    2
    24    21    20    1
    25    15    14    1
    26    14     4    1
    27     3     2    2
    28     2     1    1
    29     2     4    1
    30    20     1    1
    31     4     5    2
    32     5     6    1
    33     7     6    2
    34     7     8    1
    35     6    11    1
    36     8     9    2
    37    11    12    1
    38    11    10    2
    39    12    13    1
    40     9    10    1
