@<TRIPOS>MOLECULE
74973_out_ligand_01.pdbqt
 35 38 0 0 0
SMALL
GASTEIGER

@<TRIPOS>ATOM
      1  S         22.6930  -21.9980   -9.0020 S.3     1  UNL1       -0.0820
      2  C         22.4470  -23.7910   -9.1210 C.3     1  UNL1        0.1850
      3  C         21.0910  -24.1800   -8.5570 C.2     1  UNL1        0.2310
      4  N         20.4500  -23.1430   -7.8980 N.am    1  UNL1       -0.3270
      5  H         20.9240  -22.2400   -7.9170 H       1  UNL1        0.1690
      6  O         20.6880  -25.3360   -8.6590 O.2     1  UNL1       -0.2720
      7  C         19.2100  -23.1930   -7.2280 C.2     1  UNL1        0.0340
      8  C         18.2560  -24.1970   -7.4230 C.2     1  UNL1        0.0310
      9  C         17.0520  -24.1840   -6.7070 C.2     1  UNL1        0.0270
     10  C         16.7980  -23.1560   -5.7970 C.2     1  UNL1        0.0740
     11  C         17.7400  -22.1480   -5.5910 C.2     1  UNL1        0.0270
     12  C         18.9380  -22.1680   -6.3090 C.2     1  UNL1        0.0310
     13  S         15.3070  -23.1670   -4.8470 S.O2    1  UNL1        0.2390
     14  O         14.2520  -22.5320   -5.6000 O.2     1  UNL1       -0.2060
     15  O         15.1470  -24.4720   -4.2460 O.2     1  UNL1       -0.2060
     16  N         15.6790  -22.1190   -3.5910 N.3     1  UNL1       -0.2250
     17  H         16.3740  -22.5510   -2.9820 H       1  UNL1        0.1360
     18  H         14.8220  -21.8430   -3.1080 H       1  UNL1        0.1360
     19  C         23.2970  -21.6980  -10.6250 C.ar    1  UNL1        0.1770
     20  N         24.5900  -21.6820  -10.7320 N.ar    1  UNL1       -0.2230
     21  C         25.1420  -21.4880  -12.0030 C.ar    1  UNL1        0.0750
     22  C         26.5240  -21.3150  -12.1250 C.2     1  UNL1        0.0320
     23  C         24.3640  -21.4680  -13.1560 C.ar    1  UNL1        0.0610
     24  C         27.1190  -21.1410  -13.3790 C.2     1  UNL1        0.0020
     25  C         26.3310  -21.1430  -14.5300 C.2     1  UNL1        0.0010
     26  C         24.9510  -21.3060  -14.4210 C.2     1  UNL1        0.0190
     27  C         22.9010  -21.5640  -13.0060 C.ar    1  UNL1        0.2670
     28  O         22.2290  -21.5920  -14.0360 O.2     1  UNL1       -0.2670
     29  N         22.4060  -21.5780  -11.6950 N.ar    1  UNL1       -0.2560
     30  C         20.9800  -21.5020  -11.5240 C.2     1  UNL1        0.0440
     31  C         20.2180  -22.6610  -11.3080 C.2     1  UNL1        0.0300
     32  C         18.8310  -22.5880  -11.1520 C.2     1  UNL1        0.0020
     33  C         18.1840  -21.3580  -11.2190 C.2     1  UNL1        0.0000
     34  C         18.9210  -20.2010  -11.4550 C.2     1  UNL1        0.0020
     35  C         20.3090  -20.2730  -11.6150 C.2     1  UNL1        0.0300
@<TRIPOS>BOND
     1    25    26    2
     2    25    24    1
     3    26    23    1
     4    28    27    2
     5    24    22    2
     6    23    27   ar
     7    23    21   ar
     8    27    29   ar
     9    22    21    1
    10    21    20   ar
    11    29    30    1
    12    29    19   ar
    13    35    30    2
    14    35    34    1
    15    30    31    1
    16    34    33    2
    17    31    32    2
    18    33    32    1
    19    20    19   ar
    20    19     1    1
    21     2     1    1
    22     2     3    1
    23     6     3    2
    24     3     4   am
    25     5     4    1
    26     4     7    1
    27     8     7    2
    28     8     9    1
    29     7    12    1
    30     9    10    2
    31    12    11    2
    32    10    11    1
    33    10    13    1
    34    14    13    2
    35    13    15    2
    36    13    16    1
    37    16    18    1
    38    16    17    1
