@<TRIPOS>MOLECULE
7529_out_ligand_01.pdbqt
 37 40 0 0 0
SMALL
GASTEIGER

@<TRIPOS>ATOM
      1  S         23.4540  -23.1880   -9.4350 S.O2    1  UNL1        0.2720
      2  O         24.4050  -24.0600   -8.7750 O.2     1  UNL1       -0.2030
      3  O         23.5860  -21.7470   -9.3420 O.2     1  UNL1       -0.2030
      4  C         21.8680  -23.5880   -8.7620 C.ar    1  UNL1        0.2330
      5  N         21.2310  -24.7320   -8.9200 N.ar    1  UNL1       -0.1270
      6  N         19.9810  -24.7020   -8.3240 N.ar    1  UNL1       -0.1220
      7  C         19.7480  -23.5500   -7.7460 C.ar    1  UNL1        0.1970
      8  S         21.0030  -22.4000   -7.8870 S.2     1  UNL1       -0.0150
      9  N         18.6540  -23.1040   -7.0590 N.am    1  UNL1       -0.3000
     10  C         17.7480  -23.9690   -6.4930 C.2     1  UNL1        0.2580
     11  O         17.7930  -25.1910   -6.4720 O.2     1  UNL1       -0.2670
     12  H         18.5480  -22.1070   -6.9490 H       1  UNL1        0.1710
     13  C         16.6310  -23.2860   -5.7950 C.2     1  UNL1        0.0380
     14  C         15.6030  -22.7760   -6.5980 C.2     1  UNL1        0.0170
     15  C         14.5000  -22.1590   -6.0120 C.2     1  UNL1        0.0010
     16  C         14.4240  -22.0480   -4.6250 C.2     1  UNL1        0.0010
     17  C         15.4580  -22.5360   -3.8220 C.2     1  UNL1        0.0070
     18  C         16.5870  -23.1450   -4.3940 C.2     1  UNL1       -0.0460
     19  C         17.6950  -23.6160   -3.4960 C.3     1  UNL1        0.0490
     20  N         23.4360  -23.5560  -11.1100 N.pl3   1  UNL1       -0.1790
     21  H         22.4760  -23.3480  -11.4340 H       1  UNL1        0.1460
     22  C         24.3950  -22.8170  -11.8970 C.2     1  UNL1        0.0380
     23  C         25.7520  -23.1060  -11.7360 C.2     1  UNL1        0.0250
     24  C         26.7140  -22.3620  -12.4200 C.2     1  UNL1        0.0020
     25  C         26.3270  -21.3270  -13.2710 C.2     1  UNL1        0.0010
     26  C         24.9740  -21.0260  -13.4370 C.2     1  UNL1        0.0190
     27  C         24.0020  -21.7600  -12.7410 C.2     1  UNL1        0.0540
     28  C         22.5570  -21.4640  -12.9260 C.2     1  UNL1        0.2530
     29  O         22.1710  -21.0160  -14.0020 O.2     1  UNL1       -0.2680
     30  N         21.7260  -21.7620  -11.8660 N.am    1  UNL1       -0.3520
     31  H         22.0880  -22.3730  -11.1450 H       1  UNL1        0.1630
     32  C         20.2790  -21.6200  -11.9730 C.3     1  UNL1        0.0840
     33  C         19.5700  -22.8220  -11.3240 C.3     1  UNL1        0.0250
     34  C         18.1370  -22.5250  -10.8760 C.3     1  UNL1        0.0020
     35  C         17.5040  -21.4000  -11.6840 C.3     1  UNL1        0.0000
     36  C         18.2920  -20.0970  -11.5500 C.3     1  UNL1        0.0020
     37  C         19.7960  -20.3070  -11.3470 C.3     1  UNL1        0.0250
@<TRIPOS>BOND
     1    29    28    2
     2    26    25    2
     3    26    27    1
     4    25    24    1
     5    28    27    1
     6    28    30   am
     7    27    22    2
     8    24    23    2
     9    32    30    1
    10    32    37    1
    11    32    33    1
    12    22    23    1
    13    22    20    1
    14    30    31    1
    15    35    36    1
    16    35    34    1
    17    36    37    1
    18    21    20    1
    19    33    34    1
    20    20     1    1
    21     1     3    2
    22     1     2    2
    23     1     4    1
    24     5     4   ar
    25     5     6   ar
    26     4     8   ar
    27     6     7   ar
    28     8     7   ar
    29     7     9    1
    30     9    12    1
    31     9    10   am
    32    14    15    1
    33    14    13    2
    34    10    11    2
    35    10    13    1
    36    15    16    2
    37    13    18    1
    38    16    17    1
    39    18    17    2
    40    18    19    1
