@<TRIPOS>MOLECULE
75352_out_ligand_01.pdbqt
 37 40 0 0 0
SMALL
GASTEIGER

@<TRIPOS>ATOM
      1  C         17.6400  -22.5510   -6.4990 C.2     1  UNL1        0.0870
      2  C         18.8810  -22.3390   -7.1250 C.2     1  UNL1        0.0550
      3  C         19.8760  -21.5720   -6.5090 C.2     1  UNL1        0.0360
      4  C         19.6180  -21.0310   -5.2520 C.2     1  UNL1        0.0300
      5  C         18.3910  -21.2560   -4.6160 C.2     1  UNL1        0.0100
      6  C         17.3880  -22.0270   -5.2190 C.2     1  UNL1       -0.0390
      7  C         16.1000  -22.2370   -4.4730 C.3     1  UNL1        0.0500
      8  N         21.0880  -21.4010   -7.2100 N.am    1  UNL1       -0.3270
      9  C         21.6720  -22.2800   -8.1070 C.2     1  UNL1        0.2220
     10  O         21.2660  -23.4000   -8.3960 O.2     1  UNL1       -0.2730
     11  H         21.5840  -20.5370   -7.0280 H       1  UNL1        0.1690
     12  C         22.9780  -21.7450   -8.6700 C.3     1  UNL1        0.1110
     13  C         23.7200  -22.7950   -9.4900 C.3     1  UNL1        0.0960
     14  C         24.4210  -22.1810  -10.6480 C.2     1  UNL1        0.1460
     15  N         25.2510  -21.1620  -10.6720 N.2     1  UNL1       -0.2380
     16  C         25.5910  -21.0500  -11.9960 C.2     1  UNL1        0.1570
     17  C         24.9450  -22.0120  -12.7420 C.2     1  UNL1        0.1050
     18  O         24.1850  -22.7500  -11.8700 O.2     1  UNL1       -0.2940
     19  C         24.9060  -22.3910  -14.1490 C.2     1  UNL1       -0.0010
     20  C         24.5250  -21.4570  -15.1270 C.2     1  UNL1        0.0170
     21  C         24.4850  -21.8130  -16.4790 C.2     1  UNL1        0.0430
     22  C         24.8240  -23.1050  -16.8580 C.2     1  UNL1        0.1160
     23  F         24.7860  -23.4450  -18.1530 F       1  UNL1       -0.2060
     24  C         25.2040  -24.0480  -15.9120 C.2     1  UNL1        0.0430
     25  C         25.2460  -23.6910  -14.5610 C.2     1  UNL1        0.0170
     26  S         16.3990  -23.4780   -7.3860 S.O2    1  UNL1        0.2630
     27  O         16.3160  -24.7680   -6.7340 O.2     1  UNL1       -0.2000
     28  O         15.2260  -22.6540   -7.5820 O.2     1  UNL1       -0.2000
     29  N         17.0840  -23.7760   -8.8900 N.pl3   1  UNL1       -0.2810
     30  H         16.7470  -24.6470   -9.2960 H       1  UNL1        0.1790
     31  C         17.5740  -22.7600   -9.7630 C.2     1  UNL1        0.0430
     32  C         16.6450  -21.8170  -10.2170 C.2     1  UNL1        0.0300
     33  C         17.0170  -20.8390  -11.1420 C.2     1  UNL1        0.0030
     34  C         18.3190  -20.8050  -11.6360 C.2     1  UNL1        0.0070
     35  C         19.2580  -21.7480  -11.2060 C.2     1  UNL1       -0.0600
     36  C         20.6520  -21.7460  -11.7610 C.3     1  UNL1        0.0480
     37  C         18.8700  -22.7350  -10.2850 C.2     1  UNL1        0.0370
@<TRIPOS>BOND
     1    23    22    1
     2    22    21    2
     3    22    24    1
     4    21    20    1
     5    24    25    2
     6    20    19    2
     7    25    19    1
     8    19    17    1
     9    17    16    2
    10    17    18    1
    11    16    15    1
    12    18    14    1
    13    36    35    1
    14    34    35    2
    15    34    33    1
    16    35    37    1
    17    33    32    2
    18    15    14    2
    19    14    13    1
    20    37    31    2
    21    32    31    1
    22    31    29    1
    23    13    12    1
    24    30    29    1
    25    29    26    1
    26    12     9    1
    27    10     9    2
    28     9     8   am
    29    28    26    2
    30    26    27    2
    31    26     1    1
    32     8    11    1
    33     8     3    1
    34     2     3    1
    35     2     1    2
    36     3     4    2
    37     1     6    1
    38     4     5    1
    39     6     5    2
    40     6     7    1
