@<TRIPOS>MOLECULE
75522_out_ligand_01.pdbqt
 31 34 0 0 0
SMALL
GASTEIGER

@<TRIPOS>ATOM
      1  N         21.2860  -22.6860   -8.3520 N.pl3   1  UNL1       -0.3740
      2  H         21.6920  -21.8370   -8.7290 H       1  UNL1        0.1610
      3  C         19.9140  -22.6540   -8.1770 C.ar    1  UNL1        0.1380
      4  N         19.4030  -22.9990   -7.0220 N.ar    1  UNL1       -0.2090
      5  C         18.0470  -22.9920   -6.8790 C.ar    1  UNL1        0.1770
      6  N         17.1910  -22.6430   -7.9030 N.ar    1  UNL1       -0.2130
      7  C         17.2180  -23.2980   -5.8200 C.ar    1  UNL1        0.1070
      8  N         15.8810  -22.7090   -7.5720 N.ar    1  UNL1       -0.1690
      9  C         17.6550  -22.2470   -9.1630 C.ar    1  UNL1        0.0740
     10  C         15.8970  -23.1090   -6.2930 C.ar    1  UNL1        0.0770
     11  C         14.6250  -23.3020   -5.5550 C.3     1  UNL1        0.0740
     12  C         16.7820  -21.8770  -10.1890 C.2     1  UNL1        0.0320
     13  C         19.0430  -22.2260   -9.3350 C.ar    1  UNL1        0.0380
     14  C         17.3120  -21.4660  -11.4110 C.2     1  UNL1        0.0020
     15  C         18.6970  -21.4200  -11.5940 C.2     1  UNL1        0.0010
     16  C         19.5630  -21.7940  -10.5600 C.2     1  UNL1        0.0170
     17 CL         17.6640  -23.8030   -4.2630 Cl      1  UNL1       -0.0780
     18  C         21.9540  -23.8860   -8.8520 C.3     1  UNL1        0.1260
     19  C         23.4390  -23.6130   -9.1300 C.3     1  UNL1        0.0580
     20  C         23.6890  -22.8570  -10.4170 C.2     1  UNL1       -0.0570
     21  C         22.6920  -22.7990  -11.4040 C.2     1  UNL1        0.0090
     22  C         22.9250  -22.1250  -12.6040 C.2     1  UNL1        0.0250
     23  C         24.1560  -21.4990  -12.8140 C.2     1  UNL1        0.0740
     24  C         25.1600  -21.5540  -11.8460 C.2     1  UNL1        0.0250
     25  C         24.9210  -22.2290  -10.6470 C.2     1  UNL1        0.0090
     26  S         24.4470  -20.6560  -14.3470 S.O2    1  UNL1        0.2390
     27  O         24.8710  -21.6290  -15.3250 O.2     1  UNL1       -0.2060
     28  O         25.1930  -19.4500  -14.0740 O.2     1  UNL1       -0.2060
     29  N         22.8930  -20.1480  -14.7530 N.3     1  UNL1       -0.2250
     30  H         22.3700  -19.7800  -13.9600 H       1  UNL1        0.1360
     31  H         22.9580  -19.4700  -15.5150 H       1  UNL1        0.1360
@<TRIPOS>BOND
     1    31    29    1
     2    27    26    2
     3    29    26    1
     4    29    30    1
     5    26    28    2
     6    26    23    1
     7    23    22    2
     8    23    24    1
     9    22    21    1
    10    24    25    2
    11    15    14    2
    12    15    16    1
    13    14    12    1
    14    21    20    2
    15    25    20    1
    16    16    13    2
    17    20    19    1
    18    12     9    2
    19    13     9   ar
    20    13     3   ar
    21     9     6   ar
    22    19    18    1
    23    18     1    1
    24     2     1    1
    25     1     3    1
    26     3     4   ar
    27     6     8   ar
    28     6     5   ar
    29     8    10   ar
    30     4     5   ar
    31     5     7   ar
    32    10     7   ar
    33    10    11    1
    34     7    17    1
