@<TRIPOS>MOLECULE
76079_out_ligand_01.pdbqt
 35 38 0 0 0
SMALL
GASTEIGER

@<TRIPOS>ATOM
      1  C         18.6870  -22.9280   -6.2460 C.2     1  UNL1        0.0800
      2  C         18.7000  -24.1300   -6.9550 C.2     1  UNL1        0.0270
      3  C         19.6510  -24.3230   -7.9610 C.2     1  UNL1        0.0310
      4  C         20.5970  -23.3320   -8.2690 C.2     1  UNL1        0.0320
      5  C         20.5820  -22.1450   -7.5240 C.2     1  UNL1        0.0310
      6  C         19.6340  -21.9400   -6.5150 C.2     1  UNL1        0.0270
      7  N         21.5430  -23.6140   -9.2810 N.pl3   1  UNL1       -0.3540
      8  H         21.7010  -24.6200   -9.3470 H       1  UNL1        0.1660
      9  C         21.7780  -22.9120  -10.4380 C.2     1  UNL1        0.0710
     10  C         20.9360  -22.2370  -11.2390 C.2     1  UNL1        0.1120
     11 CL         19.2650  -21.9970  -11.0690 Cl      1  UNL1       -0.0770
     12  C         21.6920  -21.6020  -12.3330 C.2     1  UNL1        0.2080
     13  O         21.2380  -20.9430  -13.2440 O.2     1  UNL1       -0.2860
     14  C         23.1000  -21.9230  -12.0980 C.ar    1  UNL1        0.0540
     15  C         24.2250  -21.5570  -12.8290 C.ar    1  UNL1        0.0720
     16  C         23.1550  -22.7060  -10.9420 C.ar    1  UNL1        0.0320
     17 CL         24.0770  -20.5860  -14.2510 Cl      1  UNL1       -0.0810
     18  C         25.4750  -22.0030  -12.3710 C.ar    1  UNL1        0.0800
     19 CL         26.9190  -21.5760  -13.2480 Cl      1  UNL1       -0.0810
     20  C         25.5640  -22.7960  -11.2030 C.ar    1  UNL1        0.0800
     21 CL         27.1210  -23.3450  -10.6420 Cl      1  UNL1       -0.0810
     22  C         24.3980  -23.1490  -10.4850 C.ar    1  UNL1        0.0710
     23 CL         24.5060  -24.1190   -9.0500 Cl      1  UNL1       -0.0810
     24  S         17.4870  -22.6730   -4.9570 S.O2    1  UNL1        0.2630
     25  O         17.8470  -21.4510   -4.2680 O.2     1  UNL1       -0.2000
     26  O         17.3260  -23.9180   -4.2380 O.2     1  UNL1       -0.2000
     27  N         16.0760  -22.3240   -5.8150 N.pl3   1  UNL1       -0.2810
     28  H         15.7290  -21.3880   -5.6170 H       1  UNL1        0.1790
     29  C         15.9090  -22.8350   -7.1310 C.2     1  UNL1        0.0430
     30  C         15.4840  -24.1540   -7.2940 C.2     1  UNL1        0.0300
     31  C         15.2870  -24.6670   -8.5760 C.2     1  UNL1        0.0030
     32  C         15.5110  -23.8620   -9.6940 C.2     1  UNL1        0.0070
     33  C         15.9270  -22.5340   -9.5400 C.2     1  UNL1       -0.0600
     34  C         16.2080  -21.6790  -10.7390 C.3     1  UNL1        0.0480
     35  C         16.1380  -22.0320   -8.2490 C.2     1  UNL1        0.0370
@<TRIPOS>BOND
     1    17    15    1
     2    19    18    1
     3    13    12    2
     4    15    18   ar
     5    15    14   ar
     6    18    20   ar
     7    12    14    1
     8    12    10    1
     9    14    16   ar
    10    10    11    1
    11    10     9    2
    12    20    21    1
    13    20    22   ar
    14    16    22   ar
    15    16     9    1
    16    34    33    1
    17    22    23    1
    18     9     7    1
    19    32    33    2
    20    32    31    1
    21    33    35    1
    22     8     7    1
    23     7     4    1
    24    31    30    2
    25     4     3    2
    26     4     5    1
    27    35    29    2
    28     3     2    1
    29     5     6    2
    30    30    29    1
    31    29    27    1
    32     2     1    2
    33     6     1    1
    34     1    24    1
    35    27    28    1
    36    27    24    1
    37    24    25    2
    38    24    26    2
