@<TRIPOS>MOLECULE
761_out_ligand_01.pdbqt
 42 45 0 0 0
SMALL
GASTEIGER

@<TRIPOS>ATOM
      1  C         20.3790  -22.3540   -7.3980 C.2     1  UNL1        0.0330
      2  C         20.7610  -21.1800   -6.7340 C.2     1  UNL1        0.0170
      3  C         19.9870  -20.6800   -5.6830 C.2     1  UNL1        0.0030
      4  C         18.8370  -21.3550   -5.2820 C.2     1  UNL1        0.0250
      5  C         18.4620  -22.5310   -5.9400 C.2     1  UNL1        0.0800
      6  C         19.2320  -23.0420   -6.9870 C.2     1  UNL1        0.0420
      7  C         21.1900  -22.9290   -8.5110 C.2     1  UNL1        0.2560
      8  O         21.1730  -24.1450   -8.6730 O.2     1  UNL1       -0.2670
      9  N         21.8470  -22.0040   -9.3020 N.am    1  UNL1       -0.3230
     10  H         21.5960  -21.0330   -9.1830 H       1  UNL1        0.1690
     11  C         22.7610  -22.2790  -10.3420 C.2     1  UNL1        0.0350
     12  C         22.4410  -22.1890  -11.6990 C.2     1  UNL1        0.0310
     13  C         23.3920  -22.5030  -12.6760 C.2     1  UNL1        0.0270
     14  C         24.6730  -22.8980  -12.2920 C.2     1  UNL1        0.0800
     15  C         25.0050  -23.0090  -10.9420 C.2     1  UNL1        0.0270
     16  C         24.0460  -22.6990   -9.9720 C.2     1  UNL1        0.0310
     17  S         25.8680  -23.3090  -13.5430 S.O2    1  UNL1        0.2760
     18  O         26.7560  -22.1840  -13.7460 O.2     1  UNL1       -0.2000
     19  O         26.4110  -24.6040  -13.1770 O.2     1  UNL1       -0.2000
     20  N         24.9510  -23.5660  -14.8980 N.pl3   1  UNL1       -0.1090
     21  H         24.7540  -24.5400  -15.0890 H       1  UNL1        0.1980
     22  C         25.2570  -22.8270  -16.0330 C.cat   1  UNL1        0.7350
     23  N         24.5550  -21.6940  -16.1310 N.2     1  UNL1       -0.0740
     24  C         24.9140  -20.8770  -17.1380 C.2     1  UNL1        0.1380
     25  C         25.9570  -21.1420  -17.9960 C.2     1  UNL1        0.0400
     26  C         26.6370  -22.3120  -17.7550 C.2     1  UNL1        0.1380
     27  N         26.3210  -23.1630  -16.7640 N.2     1  UNL1       -0.0740
     28  S         17.0300  -23.4320   -5.4000 S.O2    1  UNL1        0.2630
     29  O         17.1970  -24.8050   -5.8290 O.2     1  UNL1       -0.2000
     30  O         16.7760  -23.1090   -4.0100 O.2     1  UNL1       -0.2000
     31  N         15.7980  -22.7850   -6.3700 N.pl3   1  UNL1       -0.2810
     32  H         15.5780  -21.8370   -6.0620 H       1  UNL1        0.1790
     33  C         15.8800  -23.0180   -7.7690 C.2     1  UNL1        0.0430
     34  C         15.2780  -24.1480   -8.3270 C.2     1  UNL1        0.0300
     35  C         15.4150  -24.4090   -9.6900 C.2     1  UNL1        0.0030
     36  C         16.1600  -23.5430  -10.4960 C.2     1  UNL1        0.0160
     37  C         16.7790  -22.4080   -9.9410 C.2     1  UNL1        0.0500
     38  C         16.6330  -22.1540   -8.5660 C.2     1  UNL1        0.0460
     39  C         17.5900  -21.4830  -10.8210 C.3     1  UNL1        0.4170
     40  F         18.8320  -21.2340  -10.3150 F       1  UNL1       -0.1660
     41  F         17.0110  -20.2640  -11.0130 F       1  UNL1       -0.1660
     42  F         17.7910  -21.9990  -12.0660 F       1  UNL1       -0.1660
@<TRIPOS>BOND
     1    25    26    1
     2    25    24    2
     3    26    27    2
     4    24    23    1
     5    27    22    1
     6    23    22    2
     7    22    20    1
     8    21    20    1
     9    20    17    1
    10    18    17    2
    11    17    19    2
    12    17    14    1
    13    13    14    2
    14    13    12    1
    15    14    15    1
    16    42    39    1
    17    12    11    2
    18    41    39    1
    19    15    16    2
    20    39    40    1
    21    39    37    1
    22    36    37    2
    23    36    35    1
    24    11    16    1
    25    11     9    1
    26    37    38    1
    27    35    34    2
    28     9    10    1
    29     9     7   am
    30     8     7    2
    31    38    33    2
    32     7     1    1
    33    34    33    1
    34    33    31    1
    35     1     6    2
    36     1     2    1
    37     6     5    1
    38     2     3    2
    39    31    32    1
    40    31    28    1
    41     5    28    1
    42     5     4    2
    43    29    28    2
    44     3     4    1
    45    28    30    2
