@<TRIPOS>MOLECULE
76276_out_ligand_01.pdbqt
 36 40 0 0 0
SMALL
GASTEIGER

@<TRIPOS>ATOM
      1  N         20.8200  -23.5950   -9.6130 N.pl3   1  UNL1       -0.3530
      2  C         22.1620  -23.3160   -9.6440 C.2     1  UNL1        0.1030
      3  C         22.3250  -22.1260  -10.3130 C.2     1  UNL1       -0.0070
      4  C         21.0410  -21.6810  -10.7440 C.2     1  UNL1        0.0020
      5  C         20.5800  -20.5720  -11.4850 C.2     1  UNL1        0.0140
      6  C         19.2130  -20.4310  -11.7450 C.2     1  UNL1        0.0010
      7  C         18.3050  -21.3770  -11.2800 C.2     1  UNL1        0.0020
      8  C         18.7330  -22.4860  -10.5450 C.2     1  UNL1        0.0300
      9  C         20.1090  -22.6220  -10.2890 C.2     1  UNL1        0.0450
     10  C         23.5910  -21.5290  -10.5710 C.3     1  UNL1        0.0340
     11  C         24.2190  -21.3800  -11.7540 C.ar    1  UNL1        0.0820
     12  C         23.6720  -21.7840  -13.0940 C.ar    1  UNL1        0.1620
     13  C         25.6020  -20.7610  -11.7100 C.ar    1  UNL1        0.2830
     14  N         22.4560  -22.2080  -13.2780 N.pl3   1  UNL1       -0.2810
     15  N         24.5490  -21.6540  -14.1530 N.ar    1  UNL1       -0.1890
     16  H         22.3640  -22.4080  -14.2840 H       1  UNL1        0.1880
     17  N         24.2120  -22.0150  -15.4490 N.ar    1  UNL1       -0.1610
     18  C         25.8080  -21.1460  -13.9620 C.ar    1  UNL1        0.2010
     19  C         25.2330  -21.7850  -16.2210 C.ar    1  UNL1        0.1020
     20  S         26.6790  -21.1200  -15.4760 S.2     1  UNL1       -0.0330
     21  N         26.3450  -20.7250  -12.8750 N.ar    1  UNL1       -0.1820
     22  O         26.0550  -20.3140  -10.6620 O.2     1  UNL1       -0.2650
     23  C         25.2440  -22.0490  -17.7050 C.3     1  UNL1        0.0380
     24  C         26.6460  -22.4560  -18.1520 C.3     1  UNL1        0.0160
     25  C         24.2240  -23.1320  -18.0430 C.3     1  UNL1        0.0160
     26  C         20.2450  -24.7570   -8.9490 C.3     1  UNL1        0.1550
     27  C         19.5750  -24.3940   -7.6260 C.3     1  UNL1        0.1960
     28  O         18.1580  -24.4320   -7.8050 O.2     1  UNL1       -0.3490
     29  C         17.3850  -23.8040   -6.8650 C.2     1  UNL1        0.0750
     30  C         16.1730  -23.2680   -7.3340 C.2     1  UNL1       -0.0290
     31  C         15.3130  -22.6220   -6.4360 C.2     1  UNL1        0.0100
     32  C         15.7980  -23.3710   -8.7870 C.3     1  UNL1        0.0510
     33  C         15.6490  -22.5090   -5.0870 C.2     1  UNL1        0.0070
     34  C         16.8550  -23.0320   -4.6150 C.2     1  UNL1       -0.0590
     35  C         17.2040  -22.9440   -3.1590 C.3     1  UNL1        0.0480
     36  C         17.7120  -23.6920   -5.5090 C.2     1  UNL1        0.0440
@<TRIPOS>BOND
     1    24    23    1
     2    25    23    1
     3    23    19    1
     4    19    20   ar
     5    19    17   ar
     6    20    18   ar
     7    17    15   ar
     8    16    14    1
     9    15    18   ar
    10    15    12   ar
    11    18    21   ar
    12    14    12    1
    13    12    11   ar
    14    21    13   ar
    15    11    13   ar
    16    11    10    1
    17     6     5    1
    18     6     7    2
    19    13    22    2
    20     5     4    2
    21     7     8    1
    22     4     3    1
    23     4     9    1
    24    10     3    1
    25     8     9    2
    26     3     2    2
    27     9     1    1
    28     2     1    1
    29     1    26    1
    30    26    27    1
    31    32    30    1
    32    28    27    1
    33    28    29    1
    34    30    29    2
    35    30    31    1
    36    29    36    1
    37    31    33    2
    38    36    34    2
    39    33    34    1
    40    34    35    1
