@<TRIPOS>MOLECULE
76374_out_ligand_01.pdbqt
 32 35 0 0 0
SMALL
GASTEIGER

@<TRIPOS>ATOM
      1  N         23.6770  -21.9560  -11.6650 N.ar    1  UNL1       -0.1660
      2  C         24.2580  -21.7100  -10.4280 C.ar    1  UNL1        0.7260
      3  N         25.2340  -20.8220  -10.5460 N.ar    1  UNL1       -0.0420
      4  C         25.2830  -20.5100  -11.8650 C.ar    1  UNL1        0.1860
      5  C         24.3640  -21.2100  -12.5880 C.ar    1  UNL1        0.1670
      6  C         24.2520  -21.0850  -14.0000 C.ar    1  UNL1        0.2800
      7  O         23.5030  -21.7410  -14.7140 O.2     1  UNL1       -0.2650
      8  N         25.1210  -20.1500  -14.5160 N.ar    1  UNL1       -0.2730
      9  C         26.0790  -19.4250  -13.8300 C.ar    1  UNL1        0.3300
     10  O         26.8110  -18.6640  -14.4600 O.2     1  UNL1       -0.2460
     11  N         26.1520  -19.6190  -12.4550 N.ar    1  UNL1       -0.2860
     12  C         27.1200  -18.8930  -11.6550 C.3     1  UNL1        0.1630
     13  H         25.0990  -20.0150  -15.5150 H       1  UNL1        0.1730
     14  N         23.8350  -22.3390   -9.2930 N.pl3   1  UNL1       -0.1070
     15  H         24.0460  -23.3300   -9.1980 H       1  UNL1        0.2080
     16  N         22.7130  -21.9980   -8.5820 N.2     1  UNL1       -0.1720
     17  C         21.8480  -22.9460   -8.3920 C.2     1  UNL1        0.1500
     18  C         20.6140  -22.7290   -7.6110 C.2     1  UNL1       -0.0170
     19  C         20.4580  -21.5910   -6.8130 C.2     1  UNL1        0.0140
     20  C         19.2800  -21.4090   -6.0840 C.2     1  UNL1        0.0240
     21  C         18.2680  -22.3650   -6.1560 C.2     1  UNL1        0.0340
     22 CL         16.8180  -22.1420   -5.2580 Cl      1  UNL1       -0.0840
     23  C         18.4210  -23.5030   -6.9500 C.2     1  UNL1        0.0240
     24  C         19.5970  -23.6870   -7.6800 C.2     1  UNL1        0.0140
     25  C         22.5710  -22.8540  -11.9590 C.3     1  UNL1        0.1860
     26  C         21.2300  -22.1930  -11.7390 C.2     1  UNL1       -0.0390
     27  C         20.1910  -22.9090  -11.1280 C.2     1  UNL1        0.0090
     28  C         18.9470  -22.3140  -10.9030 C.2     1  UNL1        0.0070
     29  C         18.7130  -20.9910  -11.2890 C.2     1  UNL1       -0.0620
     30  C         17.3880  -20.3430  -11.0200 C.3     1  UNL1        0.0480
     31  C         19.7510  -20.2650  -11.8820 C.2     1  UNL1        0.0070
     32  C         20.9950  -20.8610  -12.1080 C.2     1  UNL1        0.0090
@<TRIPOS>BOND
     1    13     8    1
     2     7     6    2
     3     8     6   ar
     4     8     9   ar
     5    10     9    2
     6     6     5   ar
     7     9    11   ar
     8     5     4   ar
     9     5     1   ar
    10    11     4   ar
    11    11    12    1
    12    32    31    1
    13    32    26    2
    14    25    26    1
    15    25     1    1
    16    31    29    2
    17     4     3   ar
    18    26    27    1
    19     1     2   ar
    20    29    30    1
    21    29    28    1
    22    27    28    2
    23     3     2   ar
    24     2    14    1
    25    14    15    1
    26    14    16    1
    27    16    17    2
    28    17    18    1
    29    24    18    2
    30    24    23    1
    31    18    19    1
    32    23    21    2
    33    19    20    2
    34    21    20    1
    35    21    22    1
