@<TRIPOS>MOLECULE
76388_out_ligand_01.pdbqt
 31 34 0 0 0
SMALL
GASTEIGER

@<TRIPOS>ATOM
      1  N         23.6970  -22.0170  -11.6060 N.ar    1  UNL1       -0.1660
      2  C         24.2280  -21.7190  -10.3580 C.ar    1  UNL1        0.7260
      3  N         25.1630  -20.7890  -10.4640 N.ar    1  UNL1       -0.0420
      4  C         25.2660  -20.5270  -11.7890 C.ar    1  UNL1        0.1860
      5  C         24.3970  -21.2770  -12.5260 C.ar    1  UNL1        0.1670
      6  C         24.3380  -21.1950  -13.9440 C.ar    1  UNL1        0.2800
      7  O         23.6260  -21.8810  -14.6680 O.2     1  UNL1       -0.2650
      8  N         25.2070  -20.2570  -14.4560 N.ar    1  UNL1       -0.2730
      9  C         26.1160  -19.4840  -13.7550 C.ar    1  UNL1        0.3300
     10  O         26.8530  -18.7220  -14.3790 O.2     1  UNL1       -0.2460
     11  N         26.1350  -19.6290  -12.3720 N.ar    1  UNL1       -0.2860
     12  C         27.0560  -18.8620  -11.5580 C.3     1  UNL1        0.1630
     13  H         25.2240  -20.1530  -15.4570 H       1  UNL1        0.1730
     14  N         23.7840  -22.3280   -9.2200 N.pl3   1  UNL1       -0.1070
     15  H         24.4660  -22.8630   -8.6850 H       1  UNL1        0.2080
     16  N         22.7880  -21.8460   -8.4100 N.2     1  UNL1       -0.1720
     17  C         21.8120  -22.6620   -8.1590 C.2     1  UNL1        0.1500
     18  C         20.6570  -22.2670   -7.3290 C.2     1  UNL1       -0.0170
     19  C         20.7220  -21.1540   -6.4860 C.2     1  UNL1        0.0130
     20  C         19.6140  -20.8040   -5.7120 C.2     1  UNL1        0.0010
     21  C         18.4460  -21.5660   -5.7800 C.2     1  UNL1        0.0000
     22  C         18.3820  -22.6760   -6.6220 C.2     1  UNL1        0.0010
     23  C         19.4870  -23.0300   -7.3990 C.2     1  UNL1        0.0130
     24  C         22.6010  -22.9260  -11.9070 C.3     1  UNL1        0.1860
     25  C         21.2570  -22.2760  -11.6910 C.2     1  UNL1       -0.0390
     26  C         20.9680  -21.0120  -12.2240 C.2     1  UNL1        0.0090
     27  C         19.7190  -20.4190  -12.0200 C.2     1  UNL1        0.0070
     28  C         18.7290  -21.0820  -11.2870 C.2     1  UNL1       -0.0620
     29  C         17.3990  -20.4330  -11.0430 C.3     1  UNL1        0.0480
     30  C         19.0180  -22.3350  -10.7400 C.2     1  UNL1        0.0070
     31  C         20.2670  -22.9280  -10.9430 C.2     1  UNL1        0.0090
@<TRIPOS>BOND
     1    13     8    1
     2     7     6    2
     3     8     6   ar
     4     8     9   ar
     5    10     9    2
     6     6     5   ar
     7     9    11   ar
     8     5     4   ar
     9     5     1   ar
    10    11     4   ar
    11    11    12    1
    12    26    27    1
    13    26    25    2
    14    27    28    2
    15    24    25    1
    16    24     1    1
    17     4     3   ar
    18    25    31    1
    19     1     2   ar
    20    28    29    1
    21    28    30    1
    22    31    30    2
    23     3     2   ar
    24     2    14    1
    25    14    15    1
    26    14    16    1
    27    16    17    2
    28    17    18    1
    29    23    18    2
    30    23    22    1
    31    18    19    1
    32    22    21    2
    33    19    20    2
    34    21    20    1
