@<TRIPOS>MOLECULE
76408_out_ligand_01.pdbqt
 31 34 0 0 0
SMALL
GASTEIGER

@<TRIPOS>ATOM
      1  C         18.9990  -22.0620   -7.5140 C.2     1  UNL1        0.1020
      2  C         20.3540  -22.2790   -7.7760 C.2     1  UNL1        0.0510
      3  C         20.7480  -23.1450   -8.8090 C.2     1  UNL1       -0.0320
      4  C         19.7830  -23.7950   -9.5880 C.2     1  UNL1        0.0140
      5  C         18.4290  -23.5870   -9.3390 C.2     1  UNL1        0.0410
      6  C         18.0540  -22.7140   -8.3180 C.2     1  UNL1        0.1120
      7  C         22.1690  -23.3540   -9.1010 C.3     1  UNL1        0.0320
      8  C         22.8510  -22.9790  -10.2020 C.ar    1  UNL1        0.0820
      9  C         22.2720  -22.2520  -11.3820 C.ar    1  UNL1        0.1620
     10  C         24.3320  -23.3130  -10.2290 C.ar    1  UNL1        0.2830
     11  N         21.0140  -21.9380  -11.4800 N.pl3   1  UNL1       -0.2810
     12  N         23.1720  -21.9310  -12.3800 N.ar    1  UNL1       -0.1900
     13  H         20.9030  -21.4490  -12.3810 H       1  UNL1        0.1880
     14  N         22.7990  -21.2540  -13.5320 N.2     1  UNL1       -0.1690
     15  C         24.4930  -22.2780  -12.2700 C.ar    1  UNL1        0.2000
     16  C         23.8490  -21.0960  -14.2750 C.2     1  UNL1        0.1920
     17  S         25.3700  -21.7360  -13.6790 S.3     1  UNL1       -0.0410
     18  N         25.0790  -22.9070  -11.3170 N.ar    1  UNL1       -0.1820
     19  O         24.8480  -23.9310   -9.3030 O.2     1  UNL1       -0.2650
     20  O         18.4960  -21.2620   -6.5210 O.2     1  UNL1       -0.3530
     21  C         19.4020  -20.8500   -5.5070 C.3     1  UNL1        0.2100
     22  O         16.6900  -22.5440   -8.0610 O.3     1  UNL1       -0.2720
     23  C         16.1350  -23.6510   -7.4470 C.2     1  UNL1        0.3010
     24  O         15.7900  -24.7040   -7.9590 O.2     1  UNL1       -0.2590
     25  C         16.0510  -23.3630   -6.0030 C.2     1  UNL1        0.0780
     26  C         15.0060  -22.5860   -5.4800 C.2     1  UNL1        0.0210
     27  C         14.9360  -22.3460   -4.1060 C.2     1  UNL1        0.0010
     28  C         15.9010  -22.8830   -3.2520 C.2     1  UNL1        0.0030
     29  C         16.9370  -23.6600   -3.7720 C.2     1  UNL1        0.0430
     30  C         17.0070  -23.8990   -5.1440 C.2     1  UNL1        0.1320
     31  F         18.0290  -24.6290   -5.6100 F       1  UNL1       -0.2050
@<TRIPOS>BOND
     1    16    17    1
     2    16    14    2
     3    17    15    1
     4    14    12    1
     5    13    11    1
     6    12    15   ar
     7    12     9   ar
     8    15    18   ar
     9    11     9    1
    10     9     8   ar
    11    18    10   ar
    12    10     8   ar
    13    10    19    2
    14     8     7    1
    15     4     5    2
    16     4     3    1
    17     5     6    1
    18     7     3    1
    19     3     2    2
    20     6    22    1
    21     6     1    2
    22    22    23    1
    23    24    23    2
    24     2     1    1
    25     1    20    1
    26    23    25    1
    27    20    21    1
    28    25    26    2
    29    25    30    1
    30    31    30    1
    31    26    27    1
    32    30    29    2
    33    27    28    2
    34    29    28    1
