@<TRIPOS>MOLECULE
76400_out_ligand_01.pdbqt
 32 35 0 0 0
SMALL
GASTEIGER

@<TRIPOS>ATOM
      1  C         27.1210  -23.7360  -11.8380 C.3     1  UNL1        0.1630
      2  N         25.9720  -23.0810  -12.4320 N.ar    1  UNL1       -0.2860
      3  C         25.9360  -22.8040  -13.7940 C.ar    1  UNL1        0.3300
      4  O         26.8400  -23.0870  -14.5790 O.2     1  UNL1       -0.2460
      5  N         24.8060  -22.1680  -14.2780 N.ar    1  UNL1       -0.2730
      6  C         23.7100  -21.7500  -13.5580 C.ar    1  UNL1        0.2800
      7  O         22.7720  -21.1580  -14.0780 O.2     1  UNL1       -0.2650
      8  C         23.8110  -22.0740  -12.1780 C.ar    1  UNL1        0.1660
      9  C         24.9000  -22.7050  -11.6510 C.ar    1  UNL1        0.1860
     10  N         24.7780  -22.8920  -10.3130 N.ar    1  UNL1       -0.0420
     11  C         23.6090  -22.3630   -9.9880 C.ar    1  UNL1        0.7250
     12  N         22.9710  -21.8700  -11.1160 N.ar    1  UNL1       -0.1700
     13  H         24.8050  -21.9650  -15.2650 H       1  UNL1        0.1730
     14  N         23.0390  -22.2740   -8.7520 N.pl3   1  UNL1       -0.1070
     15  H         23.6700  -22.2380   -7.9530 H       1  UNL1        0.2080
     16  N         21.8280  -22.8170   -8.4080 N.2     1  UNL1       -0.1720
     17  C         21.0970  -22.1120   -7.6000 C.2     1  UNL1        0.1500
     18  C         19.7550  -22.5570   -7.1740 C.2     1  UNL1       -0.0170
     19  C         18.9370  -21.6580   -6.4820 C.2     1  UNL1        0.0140
     20  C         17.6630  -22.0550   -6.0690 C.2     1  UNL1        0.0200
     21  C         17.2150  -23.3460   -6.3520 C.2     1  UNL1        0.0110
     22 BR         15.4910  -23.8820   -5.7920 Br      1  UNL1       -0.0510
     23  C         18.0270  -24.2450   -7.0440 C.2     1  UNL1        0.0200
     24  C         19.3010  -23.8490   -7.4570 C.2     1  UNL1        0.0140
     25  C         21.6530  -21.2670  -11.1860 C.3     1  UNL1        0.1530
     26  C         20.6360  -22.1970  -11.8430 C.3     1  UNL1        0.0590
     27  C         19.2450  -21.9440  -11.3220 C.2     1  UNL1       -0.0570
     28  C         18.5350  -22.9520  -10.6560 C.2     1  UNL1        0.0070
     29  C         17.2380  -22.7150  -10.1970 C.2     1  UNL1        0.0010
     30  C         16.6400  -21.4720  -10.4020 C.2     1  UNL1        0.0000
     31  C         17.3380  -20.4640  -11.0650 C.2     1  UNL1        0.0010
     32  C         18.6340  -20.6980  -11.5250 C.2     1  UNL1        0.0070
@<TRIPOS>BOND
     1    13     5    1
     2     4     3    2
     3     5     3   ar
     4     5     6   ar
     5     7     6    2
     6     3     2   ar
     7     6     8   ar
     8     2     1    1
     9     2     9   ar
    10     8     9   ar
    11     8    12   ar
    12    26    27    1
    13    26    25    1
    14     9    10   ar
    15    32    27    2
    16    32    31    1
    17    27    28    1
    18    25    12    1
    19    12    11   ar
    20    31    30    2
    21    28    29    2
    22    30    29    1
    23    10    11   ar
    24    11    14    1
    25    14    16    1
    26    14    15    1
    27    16    17    2
    28    17    18    1
    29    24    18    2
    30    24    23    1
    31    18    19    1
    32    23    21    2
    33    19    20    2
    34    21    20    1
    35    21    22    1
