@<TRIPOS>MOLECULE
76881_out_ligand_01.pdbqt
 37 41 0 0 0
SMALL
GASTEIGER

@<TRIPOS>ATOM
      1  C         18.6830  -23.6360   -6.9480 C.2     1  UNL1        0.1440
      2  C         19.3660  -24.2740   -7.9750 C.2     1  UNL1        0.0570
      3  C         20.5350  -23.5210   -8.2400 C.2     1  UNL1        0.0010
      4  C         21.6310  -23.6260   -9.1160 C.2     1  UNL1        0.0240
      5  C         22.6550  -22.6480   -9.0940 C.2     1  UNL1       -0.0230
      6  C         22.5340  -21.5670   -8.2000 C.2     1  UNL1        0.0130
      7  C         21.4490  -21.4410   -7.3200 C.2     1  UNL1        0.0390
      8  C         20.4860  -22.4420   -7.3730 C.2     1  UNL1        0.0860
      9  O         19.3760  -22.5110   -6.5900 O.2     1  UNL1       -0.3040
     10  C         23.8300  -22.7780  -10.0670 C.3     1  UNL1        0.0880
     11  C         24.6410  -21.4900  -10.2890 C.3     1  UNL1        0.0730
     12  C         25.8420  -21.7210  -11.2170 C.3     1  UNL1        0.2760
     13  N         25.6270  -22.8320  -12.1550 N.3     1  UNL1        0.0920
     14  C         24.2390  -22.9220  -12.5970 C.3     1  UNL1        0.2760
     15  C         23.3270  -23.3190  -11.4250 C.3     1  UNL1        0.0730
     16  O         24.7310  -23.7460   -9.4970 O.3     1  UNL1       -0.3850
     17  H         24.7240  -24.5080  -10.1120 H       1  UNL1        0.2110
     18  C         26.6180  -22.8890  -13.2400 C.3     1  UNL1        0.3110
     19  C         26.2170  -22.2680  -14.5640 C.2     1  UNL1       -0.0300
     20  C         25.7470  -23.0670  -15.6190 C.2     1  UNL1        0.0120
     21  C         25.3640  -22.4880  -16.8310 C.2     1  UNL1        0.0430
     22  C         25.4580  -21.1120  -16.9940 C.2     1  UNL1        0.1160
     23  F         25.0820  -20.5570  -18.1530 F       1  UNL1       -0.2060
     24  C         25.9350  -20.3020  -15.9720 C.2     1  UNL1        0.0430
     25  C         26.3160  -20.8790  -14.7580 C.2     1  UNL1        0.0120
     26  C         17.4250  -24.0240   -6.3160 C.2     1  UNL1        0.2770
     27  N         16.1860  -23.5740   -6.8100 N.am    1  UNL1       -0.3500
     28  C         14.9850  -23.9530   -6.0770 C.3     1  UNL1        0.1530
     29  O         17.4550  -24.7530   -5.3210 O.2     1  UNL1       -0.2650
     30  C         15.9890  -22.5580   -7.8530 C.3     1  UNL1        0.1320
     31  C         16.0260  -23.1450   -9.2660 C.3     1  UNL1        0.0790
     32  C         16.9790  -22.3760  -10.1400 C.2     1  UNL1        0.0350
     33  C         18.1840  -22.9470  -10.5470 C.2     1  UNL1        0.0270
     34  C         19.0240  -22.2210  -11.3860 C.2     1  UNL1        0.0030
     35  C         18.6470  -20.9430  -11.7840 C.2     1  UNL1        0.0190
     36  C         17.4330  -20.4490  -11.3350 C.2     1  UNL1        0.1170
     37  N         16.5910  -21.1380  -10.5330 N.2     1  UNL1       -0.2660
@<TRIPOS>BOND
     1    23    22    1
     2    22    21    2
     3    22    24    1
     4    21    20    1
     5    24    25    2
     6    20    19    2
     7    25    19    1
     8    19    18    1
     9    18    13    1
    10    14    13    1
    11    14    15    1
    12    13    12    1
    13    35    34    2
    14    35    36    1
    15    15    10    1
    16    34    33    1
    17    36    37    2
    18    12    11    1
    19    33    32    2
    20    37    32    1
    21    11    10    1
    22    32    31    1
    23    17    16    1
    24    10    16    1
    25    10     5    1
    26    31    30    1
    27     4     5    1
    28     4     3    2
    29     5     6    2
    30     3     2    1
    31     3     8    1
    32     6     7    1
    33     2     1    2
    34    30    27    1
    35     8     7    2
    36     8     9    1
    37     1     9    1
    38     1    26    1
    39    27    26   am
    40    27    28    1
    41    26    29    2
