@<TRIPOS>MOLECULE
76934_out_ligand_01.pdbqt
 36 40 0 0 0
SMALL
GASTEIGER

@<TRIPOS>ATOM
      1  O         16.3810  -22.1880   -8.8160 O.2     1  UNL1       -0.2660
      2  C         17.1540  -22.9380   -8.2220 C.2     1  UNL1        0.2720
      3  N         18.2220  -23.5350   -8.9010 N.am    1  UNL1       -0.3400
      4  C         19.3490  -24.2120   -8.2540 C.3     1  UNL1        0.1640
      5  C         20.6620  -23.4600   -8.3170 C.2     1  UNL1       -0.0380
      6  C         20.7840  -22.2600   -7.6020 C.2     1  UNL1        0.0090
      7  C         21.9730  -21.5290   -7.6310 C.2     1  UNL1        0.0030
      8  C         23.0650  -21.9930   -8.3670 C.2     1  UNL1        0.0370
      9  C         22.9680  -23.1910   -9.0730 C.2     1  UNL1        0.0690
     10  C         21.7630  -23.9000   -9.0700 C.2     1  UNL1        0.0450
     11  O         23.9620  -23.7450   -9.8300 O.2     1  UNL1       -0.3510
     12  C         24.7790  -22.8520  -10.5950 C.3     1  UNL1        0.1800
     13  C         23.9490  -22.2360  -11.7220 C.3     1  UNL1        0.0680
     14  C         24.4140  -22.6770  -13.0840 C.2     1  UNL1       -0.0180
     15  C         25.0880  -23.8940  -13.2550 C.2     1  UNL1        0.0100
     16  C         25.5060  -24.2970  -14.5270 C.2     1  UNL1        0.0010
     17  C         25.2520  -23.4910  -15.6380 C.2     1  UNL1        0.0030
     18  C         24.5780  -22.2820  -15.4800 C.2     1  UNL1        0.0430
     19  C         24.1680  -21.8850  -14.2100 C.2     1  UNL1        0.1220
     20  F         23.5180  -20.7190  -14.0780 F       1  UNL1       -0.2060
     21  C         18.3610  -23.2740  -10.3400 C.3     1  UNL1        0.1580
     22  C         19.2690  -22.0790  -10.6660 C.3     1  UNL1        0.1390
     23  C         18.5930  -20.9280  -11.3920 C.3     1  UNL1        0.0350
     24  C         19.7780  -20.2450  -12.0290 C.3     1  UNL1        0.0290
     25  C         20.6430  -21.4230  -12.4370 C.3     1  UNL1        0.1680
     26  O         20.3460  -22.4990  -11.5350 O.3     1  UNL1       -0.3840
     27  C         16.9910  -23.1900   -6.8100 C.ar    1  UNL1        0.1260
     28  N         16.1280  -24.0960   -6.2410 N.ar    1  UNL1       -0.2720
     29  N         16.1820  -24.1440   -4.8960 N.ar    1  UNL1       -0.1780
     30  H         15.4680  -24.7070   -6.7110 H       1  UNL1        0.1890
     31  C         17.0440  -23.1770   -4.5890 C.ar    1  UNL1        0.0630
     32  C         17.5600  -22.5330   -5.7350 C.ar    1  UNL1        0.0020
     33  C         17.3640  -22.7780   -3.1910 C.3     1  UNL1        0.0620
     34  C         18.5280  -21.4060   -5.6690 C.3     1  UNL1        0.0430
     35  C         18.5470  -20.7810   -4.2610 C.3     1  UNL1        0.0050
     36  C         18.5930  -21.8490   -3.1530 C.3     1  UNL1        0.0060
@<TRIPOS>BOND
     1    17    18    2
     2    17    16    1
     3    18    19    1
     4    16    15    2
     5    19    20    1
     6    19    14    2
     7    15    14    1
     8    14    13    1
     9    25    24    1
    10    25    26    1
    11    24    23    1
    12    13    12    1
    13    26    22    1
    14    23    22    1
    15    22    21    1
    16    12    11    1
    17    21     3    1
    18    11     9    1
    19     9    10    1
    20     9     8    2
    21    10     5    2
    22     3     4    1
    23     3     2   am
    24     1     2    2
    25     8     7    1
    26     5     4    1
    27     5     6    1
    28     2    27    1
    29     7     6    2
    30    27    28   ar
    31    27    32   ar
    32    30    28    1
    33    28    29   ar
    34    32    34    1
    35    32    31   ar
    36    34    35    1
    37    29    31   ar
    38    31    33    1
    39    35    36    1
    40    33    36    1
