@<TRIPOS>MOLECULE
76990_out_ligand_01.pdbqt
 35 39 0 0 0
SMALL
GASTEIGER

@<TRIPOS>ATOM
      1  N         22.6970  -22.6030  -10.3680 N.3     1  UNL1        0.0940
      2  C         21.9600  -21.4580  -10.9390 C.3     1  UNL1        0.2800
      3  C         21.5190  -21.6620  -12.3960 C.3     1  UNL1        0.1110
      4  C         22.6320  -21.4680  -13.3560 C.ar    1  UNL1        0.1320
      5  N         22.6820  -20.6150  -14.3570 N.ar    1  UNL1       -0.1350
      6  N         23.8980  -20.7560  -14.9710 N.ar    1  UNL1       -0.1350
      7  C         24.5780  -21.6910  -14.3370 C.ar    1  UNL1        0.1310
      8  N         23.8030  -22.1790  -13.3200 N.ar    1  UNL1       -0.3190
      9  C         24.0890  -23.2360  -12.3790 C.3     1  UNL1        0.1620
     10  C         24.0560  -22.7650  -10.9180 C.3     1  UNL1        0.2930
     11  C         22.6930  -22.5810   -8.8890 C.3     1  UNL1        0.3110
     12  C         21.3490  -22.7280   -8.2060 C.2     1  UNL1       -0.0300
     13  C         20.5460  -23.8540   -8.4310 C.2     1  UNL1        0.0100
     14  C         19.3060  -23.9840   -7.7980 C.2     1  UNL1        0.0130
     15  C         18.8430  -22.9990   -6.9170 C.2     1  UNL1       -0.0250
     16  C         19.6470  -21.8750   -6.6900 C.2     1  UNL1        0.0130
     17  C         20.8860  -21.7410   -7.3230 C.2     1  UNL1        0.0100
     18  C         17.5430  -23.1400   -6.2480 C.2     1  UNL1       -0.0200
     19  C         17.5120  -23.5120   -4.8910 C.2     1  UNL1        0.0130
     20  C         16.3020  -23.6710   -4.2150 C.2     1  UNL1        0.0010
     21  C         15.1020  -23.4580   -4.8850 C.2     1  UNL1        0.0010
     22  C         15.1110  -23.0840   -6.2290 C.2     1  UNL1        0.0070
     23  C         16.3220  -22.9170   -6.9220 C.2     1  UNL1       -0.0510
     24  C         16.2880  -22.5050   -8.3690 C.3     1  UNL1        0.0490
     25  C         25.9330  -22.1670  -14.7330 C.3     1  UNL1        0.1000
     26  C         26.9870  -21.0880  -14.4800 C.3     1  UNL1        0.1300
     27  N         26.7490  -19.8920  -15.2630 N.am    1  UNL1       -0.3560
     28  C         26.8620  -18.6420  -14.6970 C.2     1  UNL1        0.2530
     29  O         27.0210  -18.4740  -13.4910 O.2     1  UNL1       -0.2680
     30  H         26.8500  -19.9710  -16.2700 H       1  UNL1        0.1620
     31  C         26.8030  -17.5340  -15.6380 C.2     1  UNL1        0.0560
     32  C         27.1210  -16.1490  -15.4870 C.2     1  UNL1        0.0430
     33  C         26.8710  -15.5540  -16.7020 C.2     1  UNL1        0.1420
     34  O         26.4240  -16.4720  -17.5980 O.2     1  UNL1       -0.3340
     35  C         26.3890  -17.6640  -16.9520 C.2     1  UNL1        0.1580
@<TRIPOS>BOND
     1    34    35    1
     2    34    33    1
     3    35    31    2
     4    33    32    2
     5    30    27    1
     6    31    32    1
     7    31    28    1
     8    27    28   am
     9    27    26    1
    10     6     5   ar
    11     6     7   ar
    12    25    26    1
    13    25     7    1
    14    28    29    2
    15     5     4   ar
    16     7     8   ar
    17     4     8   ar
    18     4     3    1
    19     8     9    1
    20     3     2    1
    21     9    10    1
    22     2     1    1
    23    10     1    1
    24     1    11    1
    25    11    12    1
    26    13    12    2
    27    13    14    1
    28    24    23    1
    29    12    17    1
    30    14    15    2
    31    17    16    2
    32    23    18    2
    33    23    22    1
    34    15    16    1
    35    15    18    1
    36    18    19    1
    37    22    21    2
    38    19    20    2
    39    21    20    1
