@<TRIPOS>MOLECULE
77545_out_ligand_01.pdbqt
 35 38 0 0 0
SMALL
GASTEIGER

@<TRIPOS>ATOM
      1  C         20.4890  -22.1960   -9.9190 C.2     1  UNL1        0.0850
      2  C         20.2670  -21.3810  -11.0400 C.2     1  UNL1        0.0670
      3  C         18.9740  -21.1870  -11.5000 C.2     1  UNL1        0.1170
      4  F         18.7620  -20.4000  -12.5610 F       1  UNL1       -0.2060
      5  C         17.8960  -21.7810  -10.8620 C.2     1  UNL1        0.0430
      6  C         18.1150  -22.6090   -9.7580 C.2     1  UNL1        0.0130
      7  C         19.4180  -22.8640   -9.2810 C.2     1  UNL1       -0.0170
      8  S         22.1670  -22.2970   -9.3090 S.O2    1  UNL1        0.2460
      9  O         22.8030  -21.0100   -9.4970 O.2     1  UNL1       -0.2060
     10  O         22.0920  -22.9380   -8.0170 O.2     1  UNL1       -0.2060
     11  N         22.8990  -23.4140  -10.3590 N.pl3   1  UNL1       -0.1790
     12  H         23.3350  -24.1460   -9.7880 H       1  UNL1        0.1460
     13  C         23.7770  -22.8840  -11.3590 C.2     1  UNL1        0.0580
     14  C         23.2600  -22.2360  -12.4810 C.2     1  UNL1        0.0630
     15  C         24.1460  -21.6830  -13.4110 C.2     1  UNL1        0.1040
     16  C         25.5330  -21.7760  -13.2220 C.2     1  UNL1        0.0390
     17  C         26.0400  -22.4260  -12.0920 C.2     1  UNL1        0.0410
     18  C         25.1680  -22.9770  -11.1510 C.2     1  UNL1        0.0900
     19  N         23.6180  -21.0020  -14.5990 N.pl3   1  UNL1       -0.1160
     20  O         22.6490  -20.2460  -14.4450 O.2     1  UNL1       -0.5320
     21  O         24.1700  -21.2300  -15.6850 O.2     1  UNL1       -0.5320
     22  O         25.5460  -23.6420  -10.0120 O.2     1  UNL1       -0.3540
     23  C         26.8410  -24.2360  -10.0080 C.3     1  UNL1        0.2100
     24  C         19.6400  -23.7970   -8.0990 C.3     1  UNL1        0.1760
     25  N         18.8290  -23.4980   -6.9320 N.am    1  UNL1       -0.2740
     26  C         18.9750  -22.3840   -6.1550 C.2     1  UNL1        0.2630
     27  O         19.7310  -21.4420   -6.2900 O.2     1  UNL1       -0.2670
     28  C         18.0050  -22.4950   -5.0740 C.2     1  UNL1        0.0670
     29  C         17.7040  -21.6670   -4.0160 C.2     1  UNL1        0.0210
     30  C         17.3250  -23.6760   -5.2420 C.2     1  UNL1        0.1400
     31  C         16.6940  -22.0980   -3.1530 C.2     1  UNL1        0.0200
     32  C         16.0540  -23.3210   -3.4030 C.2     1  UNL1        0.1170
     33  N         16.3460  -24.1370   -4.4450 N.2     1  UNL1       -0.2540
     34  C         17.8590  -24.3370   -6.4430 C.2     1  UNL1        0.2800
     35  O         17.5020  -25.4090   -6.8910 O.2     1  UNL1       -0.2650
@<TRIPOS>BOND
     1    21    19    2
     2    19    20    2
     3    19    15    1
     4    15    16    2
     5    15    14    1
     6    16    17    1
     7     4     3    1
     8    14    13    2
     9    17    18    2
    10     3     2    1
    11     3     5    2
    12    13    18    1
    13    13    11    1
    14    18    22    1
    15     2     1    2
    16     5     6    1
    17    11    12    1
    18    11     8    1
    19    22    23    1
    20     1     8    1
    21     1     7    1
    22     6     7    2
    23     9     8    2
    24     8    10    2
    25     7    24    1
    26    24    25    1
    27    25    34   am
    28    25    26   am
    29    35    34    2
    30    34    30    1
    31    27    26    2
    32    26    28    1
    33    30    28    2
    34    30    33    1
    35    28    29    1
    36    33    32    2
    37    29    31    2
    38    32    31    1
