@<TRIPOS>MOLECULE
77587_out_ligand_01.pdbqt
 34 38 0 0 0
SMALL
GASTEIGER

@<TRIPOS>ATOM
      1  C         23.4210  -20.3470  -14.0980 C.3     1  UNL1        0.2000
      2  N         23.6990  -21.4050  -13.1560 N.ar    1  UNL1       -0.1010
      3  N         24.9990  -21.6990  -12.8200 N.ar    1  UNL1       -0.1310
      4  C         24.8660  -22.3390  -11.6860 C.ar    1  UNL1        0.2120
      5  N         23.5720  -22.4430  -11.2310 N.ar    1  UNL1       -0.0820
      6  C         23.0200  -22.9180  -10.0580 C.ar    1  UNL1        0.2780
      7  O         23.6670  -23.2950   -9.0870 O.2     1  UNL1       -0.2660
      8  C         21.5220  -22.8660  -10.0110 C.ar    1  UNL1        0.0490
      9  C         20.9140  -22.1760  -11.0010 C.ar    1  UNL1        0.0990
     10  N         21.5610  -21.6200  -12.0810 N.ar    1  UNL1       -0.0610
     11  C         22.8320  -21.8050  -12.1650 C.ar    1  UNL1        0.7340
     12  C         19.4430  -21.9580  -10.9240 C.2     1  UNL1        0.0000
     13  C         18.8110  -20.9890  -11.7180 C.2     1  UNL1        0.0140
     14  C         17.4310  -20.7800  -11.6380 C.2     1  UNL1        0.0010
     15  C         16.6620  -21.5440  -10.7680 C.2     1  UNL1        0.0010
     16  C         17.2700  -22.5170   -9.9770 C.2     1  UNL1        0.0080
     17  C         18.6570  -22.7190  -10.0440 C.2     1  UNL1       -0.0440
     18  C         19.3000  -23.8120   -9.2360 C.3     1  UNL1        0.0530
     19  C         20.7760  -23.5160   -8.8420 C.3     1  UNL1       -0.0090
     20  C         20.8040  -22.5620   -7.6300 C.3     1  UNL1        0.0210
     21  C         21.3670  -24.8810   -8.4140 C.3     1  UNL1        0.0210
     22  S         26.2060  -22.9990  -10.8210 S.3     1  UNL1       -0.0800
     23  C         26.7800  -24.2680  -11.9820 C.3     1  UNL1        0.1850
     24  C         26.0240  -24.1870  -13.3030 C.2     1  UNL1        0.2310
     25  O         24.9620  -24.7810  -13.4570 O.2     1  UNL1       -0.2720
     26  N         26.6590  -23.3940  -14.2450 N.am    1  UNL1       -0.3260
     27  H         27.4680  -22.8670  -13.9160 H       1  UNL1        0.1690
     28  C         26.2430  -23.1170  -15.5630 C.2     1  UNL1        0.0360
     29  C         27.0130  -22.4210  -16.4970 C.2     1  UNL1        0.0290
     30  C         26.5240  -22.1850  -17.7870 C.2     1  UNL1        0.0040
     31  C         25.2600  -22.6420  -18.1520 C.2     1  UNL1        0.0240
     32  C         24.4880  -23.3320  -17.2230 C.2     1  UNL1        0.0360
     33 CL         22.9240  -23.9000  -17.6610 Cl      1  UNL1       -0.0840
     34  C         24.9710  -23.5700  -15.9340 C.2     1  UNL1        0.0530
@<TRIPOS>BOND
     1    31    30    2
     2    31    32    1
     3    30    29    1
     4    33    32    1
     5    32    34    2
     6    29    28    2
     7    34    28    1
     8    28    26    1
     9    26    27    1
    10    26    24   am
    11     1     2    1
    12    25    24    2
    13    24    23    1
    14     2     3   ar
    15     2    11   ar
    16     3     4   ar
    17    11    10   ar
    18    11     5   ar
    19    10     9   ar
    20    23    22    1
    21    13    14    1
    22    13    12    2
    23     4     5   ar
    24     4    22    1
    25    14    15    2
    26     5     6   ar
    27     9    12    1
    28     9     8   ar
    29    12    17    1
    30    15    16    1
    31     6     8   ar
    32     6     7    2
    33    17    16    2
    34    17    18    1
    35     8    19    1
    36    18    19    1
    37    19    21    1
    38    19    20    1
