@<TRIPOS>MOLECULE
77662_out_ligand_01.pdbqt
 33 35 0 0 0
SMALL
GASTEIGER

@<TRIPOS>ATOM
      1  C         20.5320  -22.8010  -10.4210 C.2     1  UNL1        0.1100
      2  N         21.4050  -22.4070  -11.3910 N.2     1  UNL1       -0.2460
      3  C         20.9540  -21.5250  -12.3220 C.2     1  UNL1        0.0320
      4  C         21.9260  -21.0810  -13.3750 C.3     1  UNL1        0.0700
      5  C         19.6580  -21.0150  -12.3150 C.2     1  UNL1        0.0340
      6  C         18.7600  -21.4300  -11.3260 C.2     1  UNL1       -0.0420
      7  C         17.3630  -20.8790  -11.3020 C.3     1  UNL1        0.0490
      8  C         19.2150  -22.3400  -10.3560 C.2     1  UNL1        0.0730
      9  S         21.2050  -23.9780   -9.2620 S.3     1  UNL1       -0.1000
     10  C         22.3890  -22.8890   -8.4180 C.3     1  UNL1        0.1840
     11  C         23.3630  -22.2800   -9.4110 C.2     1  UNL1        0.2310
     12  N         24.0570  -23.2280  -10.1510 N.am    1  UNL1       -0.3270
     13  H         23.9380  -24.1980   -9.8510 H       1  UNL1        0.1690
     14  O         23.4400  -21.0560   -9.5330 O.2     1  UNL1       -0.2720
     15  C         24.9460  -22.9980  -11.2210 C.2     1  UNL1        0.0350
     16  C         26.1650  -22.3780  -10.9200 C.2     1  UNL1        0.0290
     17  C         27.1210  -22.1520  -11.9120 C.2     1  UNL1        0.0030
     18  C         26.8610  -22.5330  -13.2280 C.2     1  UNL1        0.0070
     19  C         25.6380  -23.1300  -13.5580 C.2     1  UNL1       -0.0600
     20  C         25.3480  -23.5580  -14.9660 C.3     1  UNL1        0.0480
     21  C         24.6930  -23.3670  -12.5450 C.2     1  UNL1        0.0360
     22  C         18.3220  -22.7140   -9.2410 C.2     1  UNL1        0.2590
     23  O         17.5240  -23.6180   -9.4470 O.2     1  UNL1       -0.2670
     24  N         18.5320  -22.0120   -8.0730 N.am    1  UNL1       -0.3230
     25  H         19.2060  -21.2570   -8.0990 H       1  UNL1        0.1690
     26  C         17.8680  -22.1950   -6.8390 C.2     1  UNL1        0.0350
     27  C         18.5160  -22.4530   -5.6350 C.2     1  UNL1        0.0300
     28  C         17.7840  -22.6080   -4.4530 C.2     1  UNL1        0.0090
     29  C         16.3880  -22.4990   -4.4500 C.2     1  UNL1       -0.0560
     30  C         15.6420  -22.6600   -3.1540 C.3     1  UNL1        0.0490
     31  C         15.7190  -22.2450   -5.6610 C.2     1  UNL1       -0.0540
     32  C         14.2220  -22.1230   -5.7190 C.3     1  UNL1        0.0490
     33  C         16.4690  -22.0940   -6.8420 C.2     1  UNL1        0.0370
@<TRIPOS>BOND
     1    20    19    1
     2    19    18    2
     3    19    21    1
     4     4     3    1
     5    18    17    1
     6    21    15    2
     7     3     5    2
     8     3     2    1
     9     5     6    1
    10    17    16    2
    11     2     1    2
    12     6     7    1
    13     6     8    2
    14    15    16    1
    15    15    12    1
    16     1     8    1
    17     1     9    1
    18     8    22    1
    19    12    13    1
    20    12    11   am
    21    14    11    2
    22    23    22    2
    23    11    10    1
    24     9    10    1
    25    22    24   am
    26    25    24    1
    27    24    26    1
    28    33    26    2
    29    33    31    1
    30    26    27    1
    31    32    31    1
    32    31    29    2
    33    27    28    2
    34    28    29    1
    35    29    30    1
