@<TRIPOS>MOLECULE
77748_out_ligand_01.pdbqt
 34 37 0 0 0
SMALL
GASTEIGER

@<TRIPOS>ATOM
      1  C         22.8970  -22.6150  -10.6150 C.ar    1  UNL1        0.1710
      2  N         22.0040  -21.8360  -11.1280 N.ar    1  UNL1       -0.2060
      3  C         20.7060  -22.1310  -10.8310 C.ar    1  UNL1        0.1450
      4  C         20.2980  -23.1330  -10.0450 C.ar    1  UNL1        0.0700
      5  C         21.3380  -24.0220   -9.4970 C.ar    1  UNL1        0.2580
      6  O         21.0710  -25.0010   -8.8160 O.2     1  UNL1       -0.2670
      7  N         22.6150  -23.6760   -9.8160 N.ar    1  UNL1       -0.3020
      8  C         18.8590  -23.3590   -9.7080 C.3     1  UNL1        0.1290
      9  C         17.8940  -22.6910  -10.6900 C.3     1  UNL1        0.1220
     10  C         18.4300  -21.4130  -11.2980 C.2     1  UNL1        0.2240
     11  O         17.6910  -20.5490  -11.7610 O.2     1  UNL1       -0.2730
     12  N         19.7890  -21.2780  -11.3620 N.am    1  UNL1       -0.3110
     13  H         23.3670  -24.2520   -9.4650 H       1  UNL1        0.1710
     14  H         20.1420  -20.4830  -11.8810 H       1  UNL1        0.1700
     15  C         18.5660  -22.9000   -8.2700 C.2     1  UNL1        0.2310
     16  O         19.3020  -22.0790   -7.7300 O.2     1  UNL1       -0.2720
     17  N         17.4740  -23.5150   -7.6760 N.am    1  UNL1       -0.3260
     18  H         16.9690  -24.2070   -8.2150 H       1  UNL1        0.1690
     19  C         16.9730  -23.2990   -6.3730 C.2     1  UNL1        0.0370
     20  C         17.7060  -23.8550   -5.3120 C.2     1  UNL1        0.0290
     21  C         17.2880  -23.6950   -3.9880 C.2     1  UNL1        0.0050
     22  C         16.1300  -22.9760   -3.7120 C.2     1  UNL1        0.0420
     23  C         15.4040  -22.4270   -4.7630 C.2     1  UNL1        0.1180
     24  F         14.2870  -21.7370   -4.4940 F       1  UNL1       -0.2060
     25  C         15.8130  -22.5810   -6.0860 C.2     1  UNL1        0.0710
     26  S         24.5980  -22.4240  -10.8690 S.3     1  UNL1       -0.0870
     27  C         24.6020  -21.6130  -12.4930 C.3     1  UNL1        0.1210
     28  C         24.8210  -22.6100  -13.6040 C.2     1  UNL1       -0.0480
     29  C         25.2020  -23.9280  -13.3150 C.2     1  UNL1        0.0080
     30  C         25.3830  -24.8520  -14.3440 C.2     1  UNL1        0.0010
     31  C         25.1830  -24.4710  -15.6710 C.2     1  UNL1        0.0070
     32  C         24.8100  -23.1590  -15.9820 C.2     1  UNL1       -0.0610
     33  C         24.5560  -22.7590  -17.4050 C.3     1  UNL1        0.0480
     34  C         24.6180  -22.2390  -14.9430 C.2     1  UNL1        0.0140
@<TRIPOS>BOND
     1    33    32    1
     2    32    31    2
     3    32    34    1
     4    31    30    1
     5    34    28    2
     6    30    29    2
     7    28    29    1
     8    28    27    1
     9    27    26    1
    10    14    12    1
    11    11    10    2
    12    12    10   am
    13    12     3    1
    14    10     9    1
    15     2     3   ar
    16     2     1   ar
    17    26     1    1
    18     3     4   ar
    19     9     8    1
    20     1     7   ar
    21     4     8    1
    22     4     5   ar
    23     7     5   ar
    24     7    13    1
    25     8    15    1
    26     5     6    2
    27    15    16    2
    28    15    17   am
    29    18    17    1
    30    17    19    1
    31    19    25    2
    32    19    20    1
    33    25    23    1
    34    20    21    2
    35    23    24    1
    36    23    22    2
    37    21    22    1
