@<TRIPOS>MOLECULE
7784_out_ligand_01.pdbqt
 35 38 0 0 0
SMALL
GASTEIGER

@<TRIPOS>ATOM
      1  N         22.5000  -22.1620  -11.9520 N.am    1  UNL1       -0.3480
      2  C         21.2900  -21.5230  -12.1000 C.2     1  UNL1        0.2520
      3  O         21.0830  -20.6170  -12.8990 O.2     1  UNL1       -0.2680
      4  H         22.6480  -22.7540  -11.1460 H       1  UNL1        0.1630
      5  C         20.2060  -21.9620  -11.1830 C.2     1  UNL1        0.0320
      6  C         20.5200  -22.8790  -10.1740 C.2     1  UNL1        0.0190
      7  C         19.5280  -23.3260   -9.2990 C.2     1  UNL1        0.0250
      8  C         18.2240  -22.8320   -9.4090 C.2     1  UNL1        0.0250
      9  C         17.9100  -21.9180  -10.4190 C.2     1  UNL1        0.0250
     10  C         18.8980  -21.4770  -11.3020 C.2     1  UNL1        0.0190
     11  N         17.1560  -23.3000   -8.5630 N.pl3   1  UNL1       -0.1760
     12  C         16.1140  -22.2910   -8.2520 C.3     1  UNL1        0.1360
     13  S         17.7420  -24.1750   -7.1970 S.O2    1  UNL1        0.2470
     14  O         16.6690  -24.9800   -6.6490 O.2     1  UNL1       -0.2050
     15  O         19.0120  -24.7700   -7.5640 O.2     1  UNL1       -0.2050
     16  C         18.0590  -22.8790   -6.0220 C.2     1  UNL1        0.0750
     17  C         19.0220  -21.9030   -6.2960 C.2     1  UNL1        0.0250
     18  C         19.2550  -20.8920   -5.3640 C.2     1  UNL1        0.0020
     19  C         18.5330  -20.8640   -4.1680 C.2     1  UNL1        0.0000
     20  C         17.5800  -21.8480   -3.8960 C.2     1  UNL1        0.0020
     21  C         17.3420  -22.8630   -4.8220 C.2     1  UNL1        0.0250
     22  C         23.6900  -21.7530  -12.6880 C.3     1  UNL1        0.1230
     23  C         23.4110  -21.8760  -14.1830 C.3     1  UNL1        0.0680
     24  C         24.7030  -21.7560  -15.0120 C.3     1  UNL1        0.0690
     25  O         25.6250  -22.8030  -14.6320 O.2     1  UNL1       -0.3400
     26  C         25.7640  -23.0590  -13.2960 C.2     1  UNL1        0.0780
     27  C         26.8640  -23.8470  -12.9500 C.2     1  UNL1        0.0370
     28  C         24.8860  -22.5930  -12.3110 C.2     1  UNL1       -0.0020
     29  C         27.1200  -24.1490  -11.6150 C.2     1  UNL1        0.0030
     30  C         26.2790  -23.6590  -10.6200 C.2     1  UNL1        0.0010
     31  C         25.1730  -22.8790  -10.9660 C.2     1  UNL1        0.0120
     32  C         24.3350  -22.0490  -16.4940 C.3     1  UNL1        0.0340
     33  C         24.4170  -23.5150  -16.9040 C.3     1  UNL1        0.0080
     34  C         25.4270  -20.3920  -14.8550 C.3     1  UNL1        0.0340
     35  C         26.8020  -20.3050  -15.5000 C.3     1  UNL1        0.0080
@<TRIPOS>BOND
     1    33    32    1
     2    32    24    1
     3    35    34    1
     4    24    34    1
     5    24    25    1
     6    24    23    1
     7    25    26    1
     8    23    22    1
     9    26    27    2
    10    26    28    1
    11    27    29    1
    12     3     2    2
    13    22    28    1
    14    22     1    1
    15    28    31    2
    16     2     1   am
    17     2     5    1
    18     1     4    1
    19    29    30    2
    20    10     5    2
    21    10     9    1
    22     5     6    1
    23    31    30    1
    24     9     8    2
    25     6     7    2
    26     8     7    1
    27     8    11    1
    28    11    12    1
    29    11    13    1
    30    15    13    2
    31    13    14    2
    32    13    16    1
    33    17    16    2
    34    17    18    1
    35    16    21    1
    36    18    19    2
    37    21    20    2
    38    19    20    1
