@<TRIPOS>MOLECULE
78307_out_ligand_01.pdbqt
 37 41 0 0 0
SMALL
GASTEIGER

@<TRIPOS>ATOM
      1  C         21.2600  -21.7350  -10.6550 C.2     1  UNL1        0.0760
      2  C         20.4260  -21.0040  -11.5220 C.2     1  UNL1        0.1590
      3  N         19.1320  -21.1550  -11.2500 N.2     1  UNL1       -0.1640
      4  N         19.0980  -21.9780  -10.1520 N.pl3   1  UNL1       -0.0630
      5  C         20.3840  -22.3740   -9.7970 C.2     1  UNL1        0.0760
      6  C         22.7030  -21.7910  -10.6720 C.2     1  UNL1        0.2550
      7  N         23.1870  -22.6120  -11.6630 N.am    1  UNL1       -0.3530
      8  H         22.5320  -23.0510  -12.2950 H       1  UNL1        0.1630
      9  O         23.4040  -21.1500   -9.8970 O.2     1  UNL1       -0.2680
     10  C         24.5910  -22.6960  -11.9730 C.3     1  UNL1        0.1610
     11  C         24.9690  -21.6160  -12.9530 C.2     1  UNL1       -0.0380
     12  C         25.8270  -20.5760  -12.5760 C.2     1  UNL1        0.0120
     13  C         26.2140  -19.6080  -13.5040 C.2     1  UNL1        0.0400
     14  C         25.7510  -19.6620  -14.8240 C.2     1  UNL1        0.1010
     15  C         24.8910  -20.7080  -15.2170 C.2     1  UNL1        0.1020
     16  C         24.5110  -21.6780  -14.2800 C.2     1  UNL1        0.0480
     17  O         26.0820  -18.7550  -15.7990 O.2     1  UNL1       -0.3530
     18  C         26.8140  -17.6020  -15.4060 C.3     1  UNL1        0.2100
     19  O         24.5060  -20.7090  -16.5370 O.2     1  UNL1       -0.3530
     20  C         24.8760  -21.8310  -17.3290 C.3     1  UNL1        0.2100
     21  C         20.7980  -23.3280   -8.6340 C.3     1  UNL1        0.0390
     22  C         21.8500  -24.3850   -8.8620 C.3     1  UNL1        0.0110
     23  C         20.4180  -24.7870   -8.7080 C.3     1  UNL1        0.0110
     24  C         17.8430  -22.3400   -9.5390 C.cat   1  UNL1        0.7500
     25  N         16.8530  -22.7850  -10.3470 N.2     1  UNL1       -0.0730
     26  C         15.7010  -23.1420   -9.7600 C.2     1  UNL1        0.1390
     27  C         15.4970  -23.0880   -8.4040 C.2     1  UNL1        0.0530
     28  C         16.5560  -22.6390   -7.6390 C.2     1  UNL1        0.0900
     29  N         17.7210  -22.2360   -8.1980 N.2     1  UNL1       -0.0600
     30  C         16.4980  -22.5540   -6.1680 C.2     1  UNL1        0.0270
     31  C         15.2930  -22.8580   -5.5030 C.2     1  UNL1        0.0160
     32  C         15.1920  -22.7980   -4.1100 C.2     1  UNL1        0.0010
     33  C         16.2960  -22.4260   -3.3500 C.2     1  UNL1        0.0030
     34  C         17.4980  -22.1070   -3.9800 C.2     1  UNL1        0.0370
     35  C         17.5960  -22.1480   -5.3780 C.2     1  UNL1        0.0800
     36  O         18.7750  -21.8440   -6.0210 O.2     1  UNL1       -0.3550
     37  C         19.4770  -20.7360   -5.4600 C.3     1  UNL1        0.2100
@<TRIPOS>BOND
     1    20    19    1
     2    19    15    1
     3    17    18    1
     4    17    14    1
     5    15    14    2
     6    15    16    1
     7    14    13    1
     8    16    11    2
     9    13    12    2
    10    11    12    1
    11    11    10    1
    12     8     7    1
    13    10     7    1
    14     7     6   am
    15     2     3    2
    16     2     1    1
    17     3     4    1
    18     6     1    1
    19     6     9    2
    20     1     5    2
    21    25    26    1
    22    25    24    2
    23     4     5    1
    24     4    24    1
    25     5    21    1
    26    26    27    2
    27    24    29    1
    28    22    23    1
    29    22    21    1
    30    23    21    1
    31    27    28    1
    32    29    28    2
    33    28    30    1
    34    30    31    2
    35    30    35    1
    36    36    37    1
    37    36    35    1
    38    31    32    1
    39    35    34    2
    40    32    33    2
    41    34    33    1
