@<TRIPOS>MOLECULE
78359_out_ligand_01.pdbqt
 38 43 0 0 0
SMALL
GASTEIGER

@<TRIPOS>ATOM
      1  C         19.2010  -21.8270  -10.7250 C.2     1  UNL1        0.1440
      2  C         20.0450  -21.8460  -11.8240 C.2     1  UNL1        0.0570
      3  C         21.3430  -22.1650  -11.3530 C.2     1  UNL1        0.0010
      4  C         22.6190  -22.3130  -11.9250 C.2     1  UNL1        0.0240
      5  C         23.7320  -22.6320  -11.1080 C.2     1  UNL1       -0.0230
      6  C         23.5190  -22.8360   -9.7310 C.2     1  UNL1        0.0130
      7  C         22.2530  -22.7040   -9.1420 C.2     1  UNL1        0.0390
      8  C         21.2050  -22.3650   -9.9890 C.2     1  UNL1        0.0860
      9  O         19.9130  -22.1830   -9.6120 O.2     1  UNL1       -0.3040
     10  C         17.7730  -21.5660  -10.6610 C.2     1  UNL1        0.2770
     11  N         16.8880  -22.5530  -10.1880 N.am    1  UNL1       -0.3460
     12  C         15.4760  -22.2050  -10.1810 C.3     1  UNL1        0.1530
     13  O         17.3370  -20.4680  -11.0140 O.2     1  UNL1       -0.2650
     14  C         17.2740  -23.6830   -9.3400 C.3     1  UNL1        0.1640
     15  C         17.1080  -23.4010   -7.8640 C.2     1  UNL1       -0.0390
     16  C         16.0800  -23.9980   -7.1300 C.2     1  UNL1        0.0110
     17  C         15.9370  -23.7330   -5.7630 C.2     1  UNL1        0.0330
     18  C         16.7950  -22.8770   -5.0910 C.2     1  UNL1        0.0660
     19  N         16.6100  -22.6510   -3.7780 N.2     1  UNL1       -0.2600
     20  C         17.8340  -22.2680   -5.8230 C.2     1  UNL1       -0.0070
     21  C         17.4600  -21.8070   -3.1540 C.2     1  UNL1        0.1170
     22  C         18.5060  -21.1620   -3.7850 C.2     1  UNL1        0.0200
     23  C         18.6950  -21.3980   -5.1410 C.2     1  UNL1        0.0150
     24  C         17.9860  -22.5350   -7.1970 C.2     1  UNL1        0.0220
     25  C         25.1130  -22.7970  -11.7580 C.3     1  UNL1        0.0880
     26  C         25.1190  -23.4330  -13.1650 C.3     1  UNL1        0.0730
     27  C         25.2300  -22.3760  -14.2640 C.3     1  UNL1        0.2760
     28  N         26.5030  -21.6560  -14.1770 N.3     1  UNL1        0.0930
     29  C         26.9520  -21.4000  -12.7990 C.3     1  UNL1        0.2760
     30  C         25.8320  -21.4360  -11.7620 C.3     1  UNL1        0.0730
     31  O         25.8720  -23.6920  -10.9230 O.3     1  UNL1       -0.3850
     32  H         25.2290  -24.2150  -10.4130 H       1  UNL1        0.2110
     33  C         26.6570  -20.4960  -15.0730 C.3     1  UNL1        0.2230
     34  C         26.0840  -20.7660  -16.4850 C.3     1  UNL1        0.0360
     35  C         25.8890  -19.4970  -17.3230 C.3     1  UNL1        0.0020
     36  C         26.7820  -18.3540  -16.8660 C.3     1  UNL1        0.0000
     37  C         26.5190  -17.9790  -15.4070 C.3     1  UNL1        0.0020
     38  C         26.1140  -19.1670  -14.5250 C.3     1  UNL1        0.0360
@<TRIPOS>BOND
     1    35    36    1
     2    35    34    1
     3    36    37    1
     4    34    33    1
     5    37    38    1
     6    33    38    1
     7    33    28    1
     8    27    28    1
     9    27    26    1
    10    28    29    1
    11    26    25    1
    12    29    30    1
    13     4     3    2
    14     4     5    1
    15     2     3    1
    16     2     1    2
    17    30    25    1
    18    25     5    1
    19    25    31    1
    20     3     8    1
    21     5     6    2
    22    13    10    2
    23    31    32    1
    24     1    10    1
    25     1     9    1
    26    10    11   am
    27    11    12    1
    28    11    14    1
    29     8     9    1
    30     8     7    2
    31     6     7    1
    32    14    15    1
    33    15    24    2
    34    15    16    1
    35    24    20    1
    36    16    17    2
    37    20    23    1
    38    20    18    2
    39    17    18    1
    40    23    22    2
    41    18    19    1
    42    22    21    1
    43    19    21    2
