@<TRIPOS>MOLECULE
78647_out_ligand_01.pdbqt
 38 41 0 0 0
SMALL
GASTEIGER

@<TRIPOS>ATOM
      1  C         20.3730  -24.8280   -8.4370 C.3     1  UNL1        0.0790
      2  C         21.4790  -23.8790   -8.6580 C.ar    1  UNL1        0.0780
      3  O         22.5100  -24.2810   -9.4600 O.2     1  UNL1       -0.2940
      4  C         23.3890  -23.2260   -9.4550 C.ar    1  UNL1        0.1820
      5  N         22.9850  -22.2040   -8.7220 N.ar    1  UNL1       -0.2240
      6  C         21.7620  -22.6020   -8.2180 C.ar    1  UNL1        0.0840
      7  C         24.6360  -23.3860  -10.2120 C.2     1  UNL1        0.0440
      8  C         25.7380  -23.9210   -9.5110 C.2     1  UNL1        0.0180
      9  C         26.9680  -24.1240  -10.1350 C.2     1  UNL1        0.0010
     10  C         27.1190  -23.7840  -11.4730 C.2     1  UNL1        0.0020
     11  C         26.0470  -23.2360  -12.1840 C.2     1  UNL1        0.0300
     12  C         24.7980  -23.0290  -11.5750 C.2     1  UNL1        0.0490
     13  N         23.7060  -22.4750  -12.2910 N.am    1  UNL1       -0.3260
     14  C         23.7160  -21.4870  -13.2630 C.2     1  UNL1        0.2240
     15  O         24.6960  -20.8640  -13.6540 O.2     1  UNL1       -0.2730
     16  H         22.8060  -22.8870  -12.0740 H       1  UNL1        0.1690
     17  C         22.3110  -21.1680  -13.7510 C.3     1  UNL1        0.1300
     18  C         21.3810  -20.7640  -12.6120 C.3     1  UNL1        0.1850
     19  O         20.8670  -21.9230  -11.9490 O.2     1  UNL1       -0.3510
     20  C         19.5870  -21.9050  -11.4680 C.2     1  UNL1        0.0680
     21  C         18.9480  -22.9300  -10.7680 C.2     1  UNL1        0.0370
     22  C         17.6250  -22.7670  -10.3370 C.2     1  UNL1        0.0030
     23  C         16.9390  -21.5840  -10.6050 C.2     1  UNL1        0.0000
     24  C         17.5690  -20.5620  -11.3090 C.2     1  UNL1        0.0030
     25  C         18.8860  -20.7260  -11.7390 C.2     1  UNL1        0.0370
     26  C         20.9680  -21.7170   -7.3270 C.3     1  UNL1        0.1840
     27  N         19.7400  -22.3940   -6.9790 N.am    1  UNL1       -0.3510
     28  C         18.8240  -21.8360   -6.1170 C.2     1  UNL1        0.2550
     29  O         19.0450  -20.8000   -5.4920 O.2     1  UNL1       -0.2680
     30  H         19.4460  -23.1340   -7.6100 H       1  UNL1        0.1630
     31  C         17.5200  -22.5360   -5.9520 C.2     1  UNL1        0.0730
     32  C         17.0780  -23.3660   -6.9920 C.2     1  UNL1        0.0620
     33  C         15.8590  -24.0290   -6.8780 C.2     1  UNL1        0.1170
     34  F         15.4380  -24.8120   -7.8800 F       1  UNL1       -0.2060
     35  C         15.0670  -23.8940   -5.7420 C.2     1  UNL1        0.0450
     36  C         15.5010  -23.0750   -4.7010 C.2     1  UNL1        0.0460
     37  C         16.7200  -22.4010   -4.8110 C.2     1  UNL1        0.1320
     38  F         17.0990  -21.6240   -3.7850 F       1  UNL1       -0.2050
@<TRIPOS>BOND
     1    17    14    1
     2    17    18    1
     3    15    14    2
     4    14    13   am
     5    18    19    1
     6    13    16    1
     7    13    12    1
     8    11    12    1
     9    11    10    2
    10    19    20    1
    11    25    20    2
    12    25    24    1
    13    12     7    2
    14    10     9    1
    15    20    21    1
    16    24    23    2
    17    21    22    2
    18    23    22    1
    19     7     8    1
    20     7     4    1
    21     9     8    2
    22     3     4   ar
    23     3     2   ar
    24     4     5   ar
    25     5     6   ar
    26     2     1    1
    27     2     6   ar
    28     6    26    1
    29    34    33    1
    30    30    27    1
    31    26    27    1
    32    32    33    1
    33    32    31    2
    34    27    28   am
    35    33    35    2
    36    28    31    1
    37    28    29    2
    38    31    37    1
    39    35    36    1
    40    37    36    2
    41    37    38    1
