@<TRIPOS>MOLECULE
79499_out_ligand_01.pdbqt
 31 36 0 0 0
SMALL
GASTEIGER

@<TRIPOS>ATOM
      1  C         19.0420  -22.3590   -7.2010 C.ar    1  UNL1        0.0750
      2  N         20.3890  -22.3310   -7.2440 N.ar    1  UNL1       -0.2390
      3  C         20.9240  -22.1930   -8.4700 C.ar    1  UNL1        0.1120
      4  S         22.6130  -22.1300   -8.6370 S.2     1  UNL1       -0.0630
      5  C         22.5090  -21.9380  -10.3380 C.ar    1  UNL1        0.0820
      6  C         23.5440  -21.7960  -11.2760 C.2     1  UNL1        0.1440
      7  N         23.1930  -21.6600  -12.5720 N.2     1  UNL1       -0.2230
      8  C         21.8950  -21.6610  -12.8950 C.2     1  UNL1        0.2360
      9  N         20.8530  -21.7910  -12.0730 N.2     1  UNL1       -0.2400
     10  C         21.1840  -21.9330  -10.7630 C.ar    1  UNL1        0.0920
     11  C         20.2440  -22.0880   -9.6760 C.ar    1  UNL1        0.0370
     12  C         18.8260  -22.1410   -9.6090 C.ar    1  UNL1       -0.0340
     13  C         18.2270  -22.2790   -8.3340 C.ar    1  UNL1       -0.0210
     14  C         16.7180  -22.2720   -8.2750 C.3     1  UNL1        0.0410
     15  C         16.1130  -23.1770   -9.3500 C.3     1  UNL1        0.0050
     16  C         16.7830  -23.0660  -10.7240 C.3     1  UNL1        0.0050
     17  C         17.8960  -22.0210  -10.7960 C.3     1  UNL1        0.0400
     18  N         24.8830  -21.7770  -10.8940 N.pl3   1  UNL1       -0.3690
     19  H         25.0060  -21.4850   -9.9300 H       1  UNL1        0.1610
     20  C         25.7550  -22.8530  -11.3700 C.3     1  UNL1        0.0830
     21  C         27.1180  -22.2570  -11.7810 C.3     1  UNL1        0.0250
     22  C         27.1210  -21.7890  -13.2320 C.3     1  UNL1        0.0020
     23  C         26.8560  -22.9420  -14.2020 C.3     1  UNL1        0.0000
     24  C         26.0620  -24.0900  -13.5800 C.3     1  UNL1        0.0020
     25  C         25.0680  -23.5910  -12.5380 C.3     1  UNL1        0.0250
     26  C         18.5040  -22.4780   -5.8410 C.2     1  UNL1       -0.0070
     27  C         18.6190  -21.4170   -4.9280 C.2     1  UNL1        0.0140
     28  C         18.1200  -21.5350   -3.6290 C.2     1  UNL1        0.0010
     29  C         17.4940  -22.7150   -3.2280 C.2     1  UNL1        0.0000
     30  C         17.3630  -23.7740   -4.1250 C.2     1  UNL1        0.0010
     31  C         17.8620  -23.6560   -5.4240 C.2     1  UNL1        0.0140
@<TRIPOS>BOND
     1    23    24    1
     2    23    22    1
     3    24    25    1
     4    22    21    1
     5     8     7    2
     6     8     9    1
     7     7     6    1
     8    25    20    1
     9     9    10    2
    10    21    20    1
    11    20    18    1
    12     6    18    1
    13     6     5    2
    14    18    19    1
    15    17    16    1
    16    17    12    1
    17    10     5   ar
    18    10    11   ar
    19    16    15    1
    20     5     4   ar
    21    11    12   ar
    22    11     3   ar
    23    12    13   ar
    24    15    14    1
    25     4     3   ar
    26     3     2   ar
    27    13    14    1
    28    13     1   ar
    29     2     1   ar
    30     1    26    1
    31    26    31    2
    32    26    27    1
    33    31    30    1
    34    27    28    2
    35    30    29    2
    36    28    29    1
