@<TRIPOS>MOLECULE
79516_out_ligand_01.pdbqt
 42 46 0 0 0
SMALL
GASTEIGER

@<TRIPOS>ATOM
      1  N         20.8100  -22.1160   -9.7780 N.am    1  UNL1       -0.2440
      2  C         19.6420  -22.1640  -10.5580 C.2     1  UNL1        0.2660
      3  O         19.5910  -22.0250  -11.7790 O.2     1  UNL1       -0.2670
      4  C         18.3480  -22.3250   -9.8530 C.2     1  UNL1        0.0450
      5  C         17.1790  -22.4640  -10.6130 C.2     1  UNL1        0.0180
      6  C         15.9490  -22.5900   -9.9840 C.2     1  UNL1        0.0020
      7  C         15.8810  -22.5640   -8.5930 C.2     1  UNL1        0.0140
      8  C         17.0360  -22.4130   -7.7940 C.2     1  UNL1       -0.0000
      9  C         16.9720  -22.3860   -6.3680 C.2     1  UNL1        0.0530
     10  C         18.1810  -22.2640   -5.6530 C.2     1  UNL1        0.1260
     11  C         19.4140  -22.1710   -6.3050 C.2     1  UNL1        0.0560
     12  C         19.4630  -22.1920   -7.7040 C.2     1  UNL1        0.0470
     13  C         18.2930  -22.3090   -8.4550 C.2     1  UNL1        0.0070
     14  C         20.7850  -22.1280   -8.3730 C.2     1  UNL1        0.2660
     15  O         21.7670  -22.1380   -7.6340 O.2     1  UNL1       -0.2670
     16  C         22.0910  -22.0270  -10.4530 C.2     1  UNL1        0.0460
     17  C         22.2400  -22.4560  -11.7840 C.2     1  UNL1        0.0320
     18  C         23.4700  -22.3720  -12.4460 C.2     1  UNL1        0.0270
     19  C         24.5730  -21.8340  -11.7860 C.2     1  UNL1        0.0800
     20  C         24.4640  -21.4200  -10.4600 C.2     1  UNL1        0.0270
     21  C         23.2300  -21.5160   -9.8050 C.2     1  UNL1        0.0320
     22  S         26.1410  -21.7150  -12.6200 S.O2    1  UNL1        0.2630
     23  O         27.0270  -20.9430  -11.7720 O.2     1  UNL1       -0.2000
     24  O         26.5080  -23.0400  -13.0770 O.2     1  UNL1       -0.2000
     25  N         25.7940  -20.7290  -13.9480 N.pl3   1  UNL1       -0.2810
     26  H         25.0310  -20.0820  -13.7550 H       1  UNL1        0.1790
     27  C         25.8790  -21.2820  -15.2550 C.2     1  UNL1        0.0430
     28  C         27.0280  -21.1100  -16.0250 C.2     1  UNL1        0.0300
     29  C         27.1210  -21.7090  -17.2790 C.2     1  UNL1        0.0030
     30  C         26.0630  -22.4820  -17.7630 C.2     1  UNL1        0.0070
     31  C         24.8970  -22.6460  -17.0050 C.2     1  UNL1       -0.0600
     32  C         23.7800  -23.5110  -17.5140 C.3     1  UNL1        0.0480
     33  C         24.8160  -22.0490  -15.7400 C.2     1  UNL1        0.0370
     34  N         18.1960  -22.2420   -4.1950 N.pl3   1  UNL1       -0.1140
     35  O         17.9940  -23.3120   -3.6050 O.2     1  UNL1       -0.5320
     36  O         18.4230  -21.1540   -3.6470 O.2     1  UNL1       -0.5320
     37  N         15.6970  -22.3680   -5.7330 N.pl3   1  UNL1       -0.2880
     38  H         15.0220  -21.8180   -6.2870 H       1  UNL1        0.1270
     39  C         15.1280  -23.7260   -5.5760 C.3     1  UNL1        0.1180
     40  C         14.9140  -24.0160   -4.0860 C.3     1  UNL1        0.1780
     41  O         15.0940  -22.8120   -3.3440 O.3     1  UNL1       -0.4000
     42  H         15.5080  -23.0550   -2.4980 H       1  UNL1        0.2090
@<TRIPOS>BOND
     1    30    29    2
     2    30    31    1
     3    32    31    1
     4    29    28    1
     5    31    33    2
     6    28    27    2
     7    33    27    1
     8    27    25    1
     9    25    26    1
    10    25    22    1
    11    24    22    2
    12    22    19    1
    13    22    23    2
    14    18    19    2
    15    18    17    1
    16    19    20    1
    17    17    16    2
    18     3     2    2
    19     5     6    1
    20     5     4    2
    21     2     4    1
    22     2     1   am
    23    20    21    2
    24    16    21    1
    25    16     1    1
    26     6     7    2
    27     4    13    1
    28     1    14   am
    29     7     8    1
    30    13     8    2
    31    13    12    1
    32    14    12    1
    33    14    15    2
    34     8     9    1
    35    12    11    2
    36     9    37    1
    37     9    10    2
    38    11    10    1
    39    38    37    1
    40    37    39    1
    41    10    34    1
    42    39    40    1
    43    34    36    2
    44    34    35    2
    45    40    41    1
    46    41    42    1
