@<TRIPOS>MOLECULE
79521_out_ligand_01.pdbqt
 32 37 0 0 0
SMALL
GASTEIGER

@<TRIPOS>ATOM
      1  C         24.1470  -21.7800  -11.8740 C.2     1  UNL1        0.1240
      2  N         23.9160  -21.4630  -13.1670 N.2     1  UNL1       -0.2290
      3  C         22.6530  -21.3190  -13.5860 C.2     1  UNL1        0.2350
      4  N         21.5370  -21.4580  -12.8690 N.2     1  UNL1       -0.2400
      5  C         21.7520  -21.7780  -11.5660 C.ar    1  UNL1        0.0920
      6  C         23.0310  -21.9440  -11.0420 C.ar    1  UNL1        0.0770
      7  S         22.9680  -22.3450   -9.3710 S.2     1  UNL1       -0.0640
      8  C         21.2690  -22.3040   -9.3490 C.ar    1  UNL1        0.1120
      9  N         20.5990  -22.5720   -8.2070 N.ar    1  UNL1       -0.2390
     10  C         19.2490  -22.5320   -8.2910 C.ar    1  UNL1        0.0750
     11  C         18.5910  -22.1970   -9.4660 C.ar    1  UNL1       -0.0210
     12  C         19.3230  -21.9190  -10.6280 C.ar    1  UNL1       -0.0340
     13  C         20.7240  -21.9820  -10.5850 C.ar    1  UNL1        0.0370
     14  C         18.4020  -21.6110  -11.7760 C.3     1  UNL1        0.0400
     15  C         17.1110  -21.2600  -11.0320 C.3     1  UNL1        0.0090
     16  C         17.1220  -22.0810   -9.7370 C.3     1  UNL1        0.0420
     17  N         25.4500  -21.9190  -11.3980 N.pl3   1  UNL1       -0.2760
     18  H         25.6210  -21.3310  -10.5880 H       1  UNL1        0.1290
     19  C         25.9810  -23.2750  -11.2960 C.3     1  UNL1        0.0980
     20  C         27.1210  -23.5040  -12.2930 C.3     1  UNL1        0.0530
     21  C         26.6320  -23.4470  -13.7210 C.2     1  UNL1       -0.0570
     22  C         27.0750  -22.4310  -14.5780 C.2     1  UNL1        0.0070
     23  C         26.6090  -22.3610  -15.8920 C.2     1  UNL1        0.0010
     24  C         25.6950  -23.3040  -16.3590 C.2     1  UNL1        0.0000
     25  C         25.2460  -24.3170  -15.5120 C.2     1  UNL1        0.0010
     26  C         25.7100  -24.3880  -14.1980 C.2     1  UNL1        0.0070
     27  C         18.5470  -22.8500   -7.0370 C.2     1  UNL1       -0.0070
     28  C         17.9890  -24.1180   -6.8000 C.2     1  UNL1        0.0140
     29  C         17.3240  -24.4030   -5.6040 C.2     1  UNL1        0.0010
     30  C         17.2100  -23.4250   -4.6190 C.2     1  UNL1        0.0000
     31  C         17.7670  -22.1660   -4.8260 C.2     1  UNL1        0.0010
     32  C         18.4330  -21.8840   -6.0210 C.2     1  UNL1        0.0140
@<TRIPOS>BOND
     1    24    23    2
     2    24    25    1
     3    23    22    1
     4    25    26    2
     5    22    21    2
     6    26    21    1
     7    21    20    1
     8     3     2    1
     9     3     4    2
    10     2     1    2
    11     4     5    1
    12    20    19    1
    13     1    17    1
    14     1     6    1
    15    14    15    1
    16    14    12    1
    17     5     6   ar
    18     5    13   ar
    19    17    19    1
    20    17    18    1
    21     6     7   ar
    22    15    16    1
    23    12    13   ar
    24    12    11   ar
    25    13     8   ar
    26    16    11    1
    27    11    10   ar
    28     7     8   ar
    29     8     9   ar
    30    10     9   ar
    31    10    27    1
    32    27    28    2
    33    27    32    1
    34    28    29    1
    35    32    31    2
    36    29    30    2
    37    31    30    1
