@<TRIPOS>MOLECULE
7988_out_ligand_01.pdbqt
 33 35 0 0 0
SMALL
GASTEIGER

@<TRIPOS>ATOM
      1  C         18.7980  -22.3600  -10.1470 C.2     1  UNL1       -0.0580
      2  C         19.5950  -21.3890  -10.7710 C.2     1  UNL1        0.0090
      3  C         20.9870  -21.4940  -10.7480 C.2     1  UNL1        0.0260
      4  C         21.5840  -22.5770  -10.1010 C.2     1  UNL1        0.0790
      5  C         20.8030  -23.5640   -9.4940 C.2     1  UNL1        0.0260
      6  C         19.4120  -23.4510   -9.5170 C.2     1  UNL1        0.0090
      7  C         17.2900  -22.2460  -10.1780 C.3     1  UNL1        0.0480
      8  C         16.6060  -23.4950   -9.6300 C.3     1  UNL1        0.1080
      9  C         16.7970  -23.6400   -8.1290 C.2     1  UNL1        0.2220
     10  N         16.9300  -22.4150   -7.4940 N.am    1  UNL1       -0.3260
     11  H         16.4820  -21.6450   -7.9730 H       1  UNL1        0.1690
     12  O         16.8370  -24.7430   -7.5920 O.2     1  UNL1       -0.2730
     13  C         17.1400  -22.2430   -6.1020 C.2     1  UNL1        0.0470
     14  C         16.0260  -22.3820   -5.2260 C.2     1  UNL1       -0.0270
     15  C         16.2210  -22.1600   -3.8480 C.2     1  UNL1        0.0100
     16  C         17.4740  -21.8450   -3.3370 C.2     1  UNL1        0.0010
     17  C         18.5550  -21.7010   -4.1960 C.2     1  UNL1        0.0090
     18  C         18.4000  -21.8590   -5.5850 C.2     1  UNL1       -0.0350
     19  C         19.6100  -21.5530   -6.4300 C.3     1  UNL1        0.0500
     20  C         14.6370  -22.7800   -5.7270 C.3     1  UNL1        0.0130
     21  C         14.0600  -24.0480   -5.0820 C.3     1  UNL1        0.0150
     22  C         13.6630  -21.6120   -5.5560 C.3     1  UNL1        0.0150
     23  S         23.3500  -22.7140  -10.0450 S.O2    1  UNL1        0.2590
     24  O         23.8840  -21.3770   -9.9040 O.2     1  UNL1       -0.2010
     25  O         23.7100  -23.7780   -9.1340 O.2     1  UNL1       -0.2010
     26  N         23.7170  -23.2130  -11.6000 N.3     1  UNL1       -0.3110
     27  H         23.0910  -23.9210  -11.9790 H       1  UNL1        0.1720
     28  C         24.4890  -22.3510  -12.5020 C.3     1  UNL1        0.0930
     29  C         23.5470  -21.7600  -13.5620 C.3     1  UNL1        0.0260
     30  C         24.2820  -21.4640  -14.8640 C.3     1  UNL1        0.0020
     31  C         24.8660  -22.7330  -15.4850 C.3     1  UNL1        0.0000
     32  C         25.2480  -23.7970  -14.4530 C.3     1  UNL1        0.0020
     33  C         25.6330  -23.1800  -13.1120 C.3     1  UNL1        0.0260
@<TRIPOS>BOND
     1    31    30    1
     2    31    32    1
     3    30    29    1
     4    32    33    1
     5    29    28    1
     6    33    28    1
     7    28    26    1
     8    27    26    1
     9    26    23    1
    10     2     3    1
    11     2     1    2
    12     3     4    2
    13     7     1    1
    14     7     8    1
    15     1     6    1
    16     4    23    1
    17     4     5    1
    18    23    24    2
    19    23    25    2
    20     8     9    1
    21     6     5    2
    22     9    12    2
    23     9    10   am
    24    11    10    1
    25    10    13    1
    26    19    18    1
    27    13    18    2
    28    13    14    1
    29    20    22    1
    30    20    14    1
    31    20    21    1
    32    18    17    1
    33    14    15    2
    34    17    16    2
    35    15    16    1
