@<TRIPOS>MOLECULE
7991_out_ligand_01.pdbqt
 36 39 0 0 0
SMALL
GASTEIGER

@<TRIPOS>ATOM
      1  C         22.9340  -23.6580   -9.1500 C.3     1  UNL1        0.1070
      2  C         21.5120  -24.0950   -8.8490 C.2     1  UNL1        0.2180
      3  O         21.1290  -25.2580   -8.9110 O.2     1  UNL1       -0.2740
      4  N         20.7170  -23.0500   -8.4350 N.am    1  UNL1       -0.3480
      5  H         21.0280  -22.1080   -8.6150 H       1  UNL1        0.1630
      6  C         19.2830  -23.2110   -8.2330 C.3     1  UNL1        0.1510
      7  C         18.8390  -22.7740   -6.8320 C.2     1  UNL1       -0.0310
      8  C         19.2180  -21.5090   -6.3420 C.2     1  UNL1        0.0090
      9  C         18.8110  -21.0730   -5.0780 C.2     1  UNL1        0.0010
     10  C         18.0020  -21.8860   -4.2870 C.2     1  UNL1        0.0000
     11  C         17.5930  -23.1280   -4.7630 C.2     1  UNL1        0.0010
     12  C         18.0020  -23.5670   -6.0270 C.2     1  UNL1        0.0090
     13  C         18.5820  -22.4850   -9.3810 C.2     1  UNL1       -0.0310
     14  C         19.3520  -21.9060  -10.4020 C.2     1  UNL1        0.0090
     15  C         18.7430  -21.1920  -11.4370 C.2     1  UNL1        0.0010
     16  C         17.3580  -21.0440  -11.4610 C.2     1  UNL1        0.0000
     17  C         16.5800  -21.6000  -10.4480 C.2     1  UNL1        0.0010
     18  C         17.1870  -22.3050   -9.4070 C.2     1  UNL1        0.0090
     19  C         23.0260  -22.2490   -9.7320 C.3     1  UNL1        0.0470
     20  C         23.4590  -22.2330  -11.1800 C.2     1  UNL1       -0.0580
     21  C         22.6960  -21.5500  -12.1380 C.2     1  UNL1        0.0090
     22  C         23.0820  -21.5450  -13.4790 C.2     1  UNL1        0.0260
     23  C         24.2370  -22.2290  -13.8650 C.2     1  UNL1        0.0790
     24  C         25.0240  -22.8890  -12.9190 C.2     1  UNL1        0.0260
     25  C         24.6300  -22.8940  -11.5800 C.2     1  UNL1        0.0090
     26  S         24.7110  -22.2340  -15.5750 S.O2    1  UNL1        0.2590
     27  O         26.1090  -22.5960  -15.6490 O.2     1  UNL1       -0.2010
     28  O         23.7010  -22.9330  -16.3390 O.2     1  UNL1       -0.2010
     29  N         24.6280  -20.6080  -15.9570 N.3     1  UNL1       -0.3110
     30  H         23.7110  -20.1800  -15.8420 H       1  UNL1        0.1720
     31  C         25.8350  -19.7800  -15.9880 C.3     1  UNL1        0.0930
     32  C         25.9450  -18.9890  -14.6820 C.3     1  UNL1        0.0260
     33  C         27.1210  -18.0170  -14.7140 C.3     1  UNL1        0.0020
     34  C         27.0450  -17.0820  -15.9190 C.3     1  UNL1        0.0000
     35  C         26.9160  -17.8590  -17.2280 C.3     1  UNL1        0.0020
     36  C         25.7460  -18.8380  -17.1940 C.3     1  UNL1        0.0260
@<TRIPOS>BOND
     1    35    36    1
     2    35    34    1
     3    36    31    1
     4    28    26    2
     5    31    29    1
     6    31    32    1
     7    29    30    1
     8    29    26    1
     9    34    33    1
    10    27    26    2
    11    26    23    1
    12    33    32    1
    13    23    22    2
    14    23    24    1
    15    22    21    1
    16    24    25    2
    17    21    20    2
    18    25    20    1
    19    16    15    2
    20    16    17    1
    21    15    14    1
    22    20    19    1
    23    17    18    2
    24    14    13    2
    25    19     1    1
    26    18    13    1
    27    13     6    1
    28     1     2    1
    29     3     2    2
    30     2     4   am
    31     5     4    1
    32     4     6    1
    33     6     7    1
    34     7     8    2
    35     7    12    1
    36     8     9    1
    37    12    11    2
    38     9    10    2
    39    11    10    1
