@<TRIPOS>MOLECULE
80006_out_ligand_01.pdbqt
 34 38 0 0 0
SMALL
GASTEIGER

@<TRIPOS>ATOM
      1  C         22.2460  -22.1510  -10.3500 C.2     1  UNL1       -0.0070
      2  C         22.0500  -23.3180   -9.6490 C.2     1  UNL1        0.1030
      3  N         20.6990  -23.5590   -9.6150 N.pl3   1  UNL1       -0.3530
      4  C         20.0170  -22.5860  -10.3190 C.2     1  UNL1        0.0450
      5  C         18.6470  -22.4210  -10.5790 C.2     1  UNL1        0.0300
      6  C         18.2480  -21.3200  -11.3440 C.2     1  UNL1        0.0020
      7  C         19.1830  -20.4130  -11.8340 C.2     1  UNL1        0.0010
      8  C         20.5460  -20.5840  -11.5690 C.2     1  UNL1        0.0140
      9  C         20.9760  -21.6840  -10.7970 C.2     1  UNL1        0.0020
     10  C         23.5280  -21.5900  -10.6120 C.3     1  UNL1        0.0340
     11  C         24.1550  -21.4620  -11.7990 C.ar    1  UNL1        0.0820
     12  C         23.5910  -21.8540  -13.1350 C.ar    1  UNL1        0.1620
     13  C         25.5570  -20.8880  -11.7600 C.ar    1  UNL1        0.2830
     14  N         24.4760  -21.7760  -14.1930 N.ar    1  UNL1       -0.1890
     15  N         22.3570  -22.2210  -13.3140 N.pl3   1  UNL1       -0.2810
     16  N         24.1260  -22.1380  -15.4860 N.ar    1  UNL1       -0.1610
     17  C         25.7540  -21.3150  -14.0060 C.ar    1  UNL1        0.2010
     18  C         25.1600  -21.9640  -16.2530 C.ar    1  UNL1        0.0990
     19  S         26.6300  -21.3460  -15.5180 S.2     1  UNL1       -0.0330
     20  N         26.3030  -20.9000  -12.9220 N.ar    1  UNL1       -0.1820
     21  H         22.2530  -22.4280  -14.3180 H       1  UNL1        0.1880
     22  O         26.0170  -20.4320  -10.7200 O.2     1  UNL1       -0.2650
     23  C         25.1510  -22.2400  -17.7260 C.3     1  UNL1        0.0640
     24  C         24.1300  -23.3130  -18.0600 C.3     1  UNL1        0.0120
     25  C         20.0960  -24.6910   -8.9370 C.3     1  UNL1        0.1550
     26  C         19.4240  -24.2840   -7.6310 C.3     1  UNL1        0.1960
     27  O         18.0020  -24.3510   -7.7480 O.2     1  UNL1       -0.3490
     28  C         17.2220  -23.8050   -6.7630 C.2     1  UNL1        0.0740
     29  C         17.4760  -23.8880   -5.3910 C.2     1  UNL1        0.0370
     30  C         16.6120  -23.2850   -4.4730 C.2     1  UNL1        0.0030
     31  C         15.4900  -22.5930   -4.9170 C.2     1  UNL1        0.0010
     32  C         15.2270  -22.5040   -6.2810 C.2     1  UNL1        0.0090
     33  C         16.0860  -23.1070   -7.2140 C.2     1  UNL1       -0.0290
     34  C         15.7840  -22.9940   -8.6840 C.3     1  UNL1        0.0510
@<TRIPOS>BOND
     1    24    23    1
     2    23    18    1
     3    18    19   ar
     4    18    16   ar
     5    19    17   ar
     6    16    14   ar
     7    21    15    1
     8    14    17   ar
     9    14    12   ar
    10    17    20   ar
    11    15    12    1
    12    12    11   ar
    13    20    13   ar
    14     7     8    2
    15     7     6    1
    16    11    13   ar
    17    11    10    1
    18    13    22    2
    19     8     9    1
    20     6     5    2
    21     9     1    1
    22     9     4    2
    23    10     1    1
    24     5     4    1
    25     1     2    2
    26     4     3    1
    27     2     3    1
    28     3    25    1
    29    25    26    1
    30    34    33    1
    31    27    26    1
    32    27    28    1
    33    33    28    2
    34    33    32    1
    35    28    29    1
    36    32    31    2
    37    29    30    2
    38    31    30    1
