@<TRIPOS>MOLECULE
80107_out_ligand_01.pdbqt
 34 37 0 0 0
SMALL
GASTEIGER

@<TRIPOS>ATOM
      1  C         22.8830  -23.2510   -8.6610 C.3     1  UNL1        0.2820
      2  C         23.4060  -22.4690   -9.8710 C.2     1  UNL1        0.2460
      3  N         23.5090  -23.2590  -11.0070 N.am    1  UNL1       -0.3250
      4  H         23.2330  -24.2290  -10.8870 H       1  UNL1        0.1690
      5  O         23.6350  -21.2660   -9.7940 O.2     1  UNL1       -0.2710
      6  C         23.9130  -22.8770  -12.3000 C.2     1  UNL1        0.0340
      7  C         24.9140  -23.6480  -12.9080 C.2     1  UNL1        0.0310
      8  C         25.3570  -23.3550  -14.1990 C.2     1  UNL1        0.0270
      9  C         24.8030  -22.2730  -14.8850 C.2     1  UNL1        0.0740
     10  C         23.8090  -21.4930  -14.2920 C.2     1  UNL1        0.0270
     11  C         23.3710  -21.7950  -12.9990 C.2     1  UNL1        0.0310
     12  S         25.3150  -21.9420  -16.5440 S.O2    1  UNL1        0.2390
     13  O         26.7470  -21.7570  -16.5780 O.2     1  UNL1       -0.2060
     14  O         24.3970  -20.9970  -17.1350 O.2     1  UNL1       -0.2060
     15  N         25.0220  -23.4080  -17.3040 N.3     1  UNL1       -0.2250
     16  H         25.9040  -23.8880  -17.4770 H       1  UNL1        0.1360
     17  H         24.3620  -23.9560  -16.7520 H       1  UNL1        0.1360
     18  O         21.5070  -22.9740   -8.3790 O.3     1  UNL1       -0.3080
     19  C         20.6450  -23.9530   -8.7500 C.2     1  UNL1        0.2950
     20  O         20.8950  -25.1290   -8.9320 O.2     1  UNL1       -0.2590
     21  C         19.3360  -23.3210   -8.9920 C.ar    1  UNL1        0.0600
     22  C         18.2830  -23.5480   -8.0900 C.ar    1  UNL1       -0.0160
     23  C         17.0980  -22.8640   -8.3380 C.ar    1  UNL1        0.0420
     24  C         18.4440  -24.4280   -6.8750 C.3     1  UNL1        0.0420
     25  N         16.9340  -22.0410   -9.4020 N.ar    1  UNL1       -0.2520
     26  C         15.8920  -23.0200   -7.4480 C.3     1  UNL1        0.0600
     27  C         17.9460  -21.8450  -10.2580 C.ar    1  UNL1        0.0680
     28  C         17.7490  -20.9770  -11.3250 C.2     1  UNL1        0.0320
     29  C         19.1960  -22.4690  -10.1140 C.ar    1  UNL1        0.0090
     30  C         18.7570  -20.7030  -12.2540 C.2     1  UNL1        0.0020
     31  C         19.9940  -21.3150  -12.1240 C.2     1  UNL1        0.0010
     32  C         20.2140  -22.1960  -11.0660 C.2     1  UNL1        0.0150
     33  C         16.2360  -23.5510   -6.0630 C.3     1  UNL1        0.0060
     34  C         17.1270  -24.7790   -6.1800 C.3     1  UNL1        0.0050
@<TRIPOS>BOND
     1    16    15    1
     2    15    17    1
     3    15    12    1
     4    14    12    2
     5    13    12    2
     6    12     9    1
     7     9    10    2
     8     9     8    1
     9    10    11    1
    10     8     7    2
    11    11     6    2
    12     7     6    1
    13     6     3    1
    14    30    31    1
    15    30    28    2
    16    31    32    2
    17    28    27    1
    18    32    29    1
    19     3     4    1
    20     3     2   am
    21    27    29   ar
    22    27    25   ar
    23    29    21   ar
    24     2     5    2
    25     2     1    1
    26    25    23   ar
    27    21    19    1
    28    21    22   ar
    29    20    19    2
    30    19    18    1
    31     1    18    1
    32    23    22   ar
    33    23    26    1
    34    22    24    1
    35    26    33    1
    36    24    34    1
    37    34    33    1
