@<TRIPOS>MOLECULE
80224_out_ligand_01.pdbqt
 37 40 0 0 0
SMALL
GASTEIGER

@<TRIPOS>ATOM
      1  C         25.1980  -20.9210  -17.5350 C.3     1  UNL1        0.1630
      2  N         25.4090  -21.8730  -16.4610 N.ar    1  UNL1       -0.2860
      3  C         26.3630  -22.8770  -16.5770 C.ar    1  UNL1        0.3300
      4  O         27.0770  -23.0380  -17.5670 O.2     1  UNL1       -0.2460
      5  N         26.5020  -23.7400  -15.5060 N.ar    1  UNL1       -0.2730
      6  C         25.7860  -23.7340  -14.3310 C.ar    1  UNL1        0.2800
      7  O         25.9540  -24.5750  -13.4550 O.2     1  UNL1       -0.2650
      8  C         24.8410  -22.6750  -14.2750 C.ar    1  UNL1        0.1660
      9  C         24.6640  -21.7990  -15.3030 C.ar    1  UNL1        0.1860
     10  N         23.6870  -20.8960  -15.0370 N.ar    1  UNL1       -0.0420
     11  C         23.2220  -21.2230  -13.8420 C.ar    1  UNL1        0.7250
     12  N         23.9630  -22.2660  -13.3070 N.ar    1  UNL1       -0.1680
     13  H         27.1880  -24.4710  -15.6190 H       1  UNL1        0.1730
     14  C         23.9100  -22.7590  -11.9390 C.3     1  UNL1        0.1820
     15  C         24.3970  -21.7260  -10.9270 C.3     1  UNL1        0.1610
     16  O         25.6590  -22.1720  -10.3980 O.3     1  UNL1       -0.3920
     17  H         25.8090  -21.6480   -9.5850 H       1  UNL1        0.2100
     18  C         23.4030  -21.5760   -9.7670 C.3     1  UNL1        0.2090
     19  O         23.1700  -22.8860   -9.2390 O.2     1  UNL1       -0.3490
     20  C         21.9480  -23.1220   -8.6750 C.2     1  UNL1        0.0690
     21  C         21.4330  -24.4010   -8.9100 C.2     1  UNL1        0.0380
     22  C         20.1900  -24.7750   -8.3940 C.2     1  UNL1        0.0260
     23  C         19.4580  -23.8650   -7.6390 C.2     1  UNL1        0.0340
     24 CL         17.9280  -24.3180   -6.9990 Cl      1  UNL1       -0.0840
     25  C         19.9590  -22.5870   -7.3990 C.2     1  UNL1        0.0260
     26  C         21.2050  -22.2140   -7.9170 C.2     1  UNL1        0.0380
     27  N         22.1720  -20.6880  -13.1610 N.pl3   1  UNL1       -0.1070
     28  H         22.0120  -19.6770  -13.2370 H       1  UNL1        0.2080
     29  N         21.1170  -21.3720  -12.6250 N.2     1  UNL1       -0.1720
     30  C         20.1690  -20.6580  -12.1040 C.2     1  UNL1        0.1500
     31  C         18.9930  -21.2770  -11.4620 C.2     1  UNL1       -0.0170
     32  C         19.0620  -22.6220  -11.0840 C.2     1  UNL1        0.0140
     33  C         17.9630  -23.2290  -10.4720 C.2     1  UNL1        0.0200
     34  C         16.8010  -22.4900  -10.2460 C.2     1  UNL1        0.0110
     35 BR         15.3140  -23.3140   -9.4180 Br      1  UNL1       -0.0510
     36  C         16.7280  -21.1490  -10.6230 C.2     1  UNL1        0.0200
     37  C         17.8270  -20.5410  -11.2330 C.2     1  UNL1        0.0140
@<TRIPOS>BOND
     1     4     3    2
     2     1     2    1
     3     3     2   ar
     4     3     5   ar
     5     2     9   ar
     6    13     5    1
     7     5     6   ar
     8     9    10   ar
     9     9     8   ar
    10    10    11   ar
    11     6     8   ar
    12     6     7    2
    13     8    12   ar
    14    11    12   ar
    15    11    27    1
    16    12    14    1
    17    28    27    1
    18    27    29    1
    19    29    30    2
    20    30    31    1
    21    14    15    1
    22    31    37    2
    23    31    32    1
    24    37    36    1
    25    32    33    2
    26    15    16    1
    27    15    18    1
    28    36    34    2
    29    33    34    1
    30    16    17    1
    31    34    35    1
    32    18    19    1
    33    19    20    1
    34    21    20    2
    35    21    22    1
    36    20    26    1
    37    22    23    2
    38    26    25    2
    39    23    25    1
    40    23    24    1
