@<TRIPOS>MOLECULE
80324_out_ligand_01.pdbqt
 35 38 0 0 0
SMALL
GASTEIGER

@<TRIPOS>ATOM
      1  O         19.6260  -21.3570   -5.9680 O.2     1  UNL1       -0.2670
      2  C         19.6150  -22.3620   -6.6710 C.2     1  UNL1        0.2560
      3  N         18.6850  -23.3800   -6.6290 N.am    1  UNL1       -0.3220
      4  H         18.8590  -24.2030   -7.2100 H       1  UNL1        0.1690
      5  C         17.4960  -23.4640   -5.8610 C.2     1  UNL1        0.0500
      6  C         17.5150  -23.5490   -4.4630 C.2     1  UNL1        0.0300
      7  C         16.3270  -23.6000   -3.7280 C.2     1  UNL1        0.0020
      8  C         15.0980  -23.5580   -4.3780 C.2     1  UNL1        0.0010
      9  C         15.0530  -23.4770   -5.7690 C.2     1  UNL1        0.0190
     10  C         16.2420  -23.4460   -6.5200 C.2     1  UNL1        0.0580
     11  C         16.1680  -23.3770   -8.0130 C.2     1  UNL1        0.2540
     12  O         15.8430  -24.3660   -8.6660 O.2     1  UNL1       -0.2680
     13  N         16.4230  -22.1520   -8.5940 N.am    1  UNL1       -0.3540
     14  H         16.3390  -21.3240   -8.0170 H       1  UNL1        0.1620
     15  C         16.1950  -21.9420  -10.0150 C.3     1  UNL1        0.1550
     16  C         17.4840  -22.1070  -10.8210 C.3     1  UNL1        0.1390
     17  C         18.7350  -21.7850  -10.0220 C.3     1  UNL1        0.0350
     18  C         19.7040  -21.4160  -11.1180 C.3     1  UNL1        0.0290
     19  C         18.8160  -20.6620  -12.0840 C.3     1  UNL1        0.1680
     20  O         17.4860  -21.1870  -11.9370 O.3     1  UNL1       -0.3840
     21  C         20.7290  -22.5500   -7.6500 C.2     1  UNL1        0.0320
     22  C         21.7630  -21.6210   -7.8080 C.2     1  UNL1        0.0190
     23  C         22.7850  -21.8490   -8.7410 C.2     1  UNL1        0.0300
     24  C         22.7930  -23.0080   -9.5210 C.2     1  UNL1        0.0350
     25  C         21.7690  -23.9460   -9.3440 C.2     1  UNL1        0.0300
     26  C         20.7460  -23.7220   -8.4160 C.2     1  UNL1        0.0190
     27  N         23.7850  -23.3160  -10.4750 N.am    1  UNL1       -0.3230
     28  C         23.8330  -22.9370  -11.8110 C.2     1  UNL1        0.2630
     29  O         22.9440  -22.3070  -12.3760 O.2     1  UNL1       -0.2670
     30  H         24.5140  -23.9390  -10.1580 H       1  UNL1        0.1690
     31  C         25.0440  -23.3850  -12.5040 C.2     1  UNL1        0.0720
     32  C         26.1460  -24.0790  -12.0300 C.2     1  UNL1        0.0250
     33  C         27.1210  -24.3250  -13.0430 C.2     1  UNL1        0.0090
     34  C         26.7410  -23.8030  -14.2580 C.2     1  UNL1        0.0500
     35  S         25.2270  -23.0180  -14.1740 S.3     1  UNL1       -0.0970
@<TRIPOS>BOND
     1    34    35    1
     2    34    33    2
     3    35    31    1
     4    33    32    1
     5    31    32    2
     6    31    28    1
     7    29    28    2
     8    19    20    1
     9    19    18    1
    10    20    16    1
    11    28    27   am
    12    18    17    1
    13    16    17    1
    14    16    15    1
    15    27    30    1
    16    27    24    1
    17    15    13    1
    18    24    25    2
    19    24    23    1
    20    25    26    1
    21    23    22    2
    22    12    11    2
    23    13    14    1
    24    13    11   am
    25    26    21    2
    26    11    10    1
    27    22    21    1
    28    21     2    1
    29     4     3    1
    30     2     3   am
    31     2     1    2
    32     3     5    1
    33    10     5    2
    34    10     9    1
    35     5     6    1
    36     9     8    2
    37     6     7    2
    38     8     7    1
