@<TRIPOS>MOLECULE
80406_out_ligand_01.pdbqt
 39 44 0 0 0
SMALL
GASTEIGER

@<TRIPOS>ATOM
      1  C         21.5100  -21.9650  -11.4280 C.2     1  UNL1        0.1030
      2  C         20.8650  -22.1970  -10.2120 C.2     1  UNL1        0.0500
      3  C         21.4860  -22.9540   -9.1960 C.2     1  UNL1       -0.0120
      4  C         22.7690  -23.4850   -9.4250 C.2     1  UNL1        0.0140
      5  C         23.4290  -23.2490  -10.6270 C.2     1  UNL1        0.0410
      6  C         22.7890  -22.5040  -11.6160 C.2     1  UNL1        0.1120
      7  C         20.7550  -23.2300   -7.8880 C.3     1  UNL1        0.2430
      8  N         20.7220  -22.0010   -7.0770 N.2     1  UNL1       -0.2350
      9  C         19.6650  -21.8230   -6.3750 C.2     1  UNL1        0.1730
     10  C         18.5210  -22.6970   -6.3570 C.ar    1  UNL1        0.0570
     11  C         18.4960  -23.7030   -7.2930 C.ar    1  UNL1        0.0870
     12  C         17.3490  -22.7120   -5.5320 C.ar    1  UNL1       -0.0280
     13  S         17.0990  -24.6590   -7.2040 S.2     1  UNL1       -0.0760
     14  N         19.4870  -23.8740   -8.1890 N.pl3   1  UNL1       -0.3570
     15  C         16.4930  -23.7340   -5.9080 C.ar    1  UNL1       -0.0080
     16  C         15.1790  -24.0520   -5.2610 C.3     1  UNL1        0.0510
     17  C         14.6830  -22.8740   -4.3920 C.3     1  UNL1       -0.0140
     18  C         15.8400  -22.2750   -3.5620 C.3     1  UNL1        0.0090
     19  C         13.9810  -21.8070   -5.2390 C.3     1  UNL1        0.0100
     20  C         17.0090  -21.7620   -4.4210 C.3     1  UNL1        0.0410
     21  H         19.5480  -24.7390   -8.7150 H       1  UNL1        0.1620
     22  O         19.6120  -20.7300   -5.5930 O.2     1  UNL1       -0.3440
     23  H         19.0170  -20.1030   -6.0360 H       1  UNL1        0.2190
     24  O         21.0140  -21.2240  -12.4670 O.2     1  UNL1       -0.3490
     25  C         19.9020  -20.3650  -12.2290 C.3     1  UNL1        0.1710
     26  C         18.6340  -21.1820  -12.0560 C.3     1  UNL1        0.0340
     27  O         23.4760  -22.2600  -12.8100 O.3     1  UNL1       -0.2720
     28  C         24.8230  -22.5390  -12.6920 C.2     1  UNL1        0.2990
     29  O         25.3640  -23.6340  -12.6800 O.2     1  UNL1       -0.2590
     30  C         25.5510  -21.2490  -12.5860 C.2     1  UNL1        0.0510
     31  C         25.9770  -20.8350  -11.3110 C.2     1  UNL1        0.0180
     32  C         26.6890  -19.6500  -11.1640 C.2     1  UNL1        0.0020
     33  C         26.9860  -18.8780  -12.2860 C.2     1  UNL1        0.0120
     34  C         26.5720  -19.2710  -13.5700 C.2     1  UNL1       -0.0250
     35  C         26.8850  -18.4710  -14.6830 C.2     1  UNL1        0.0120
     36  C         25.8360  -20.4710  -13.7430 C.2     1  UNL1       -0.0100
     37  C         26.4790  -18.8310  -15.9670 C.2     1  UNL1        0.0010
     38  C         25.7460  -19.9950  -16.1550 C.2     1  UNL1        0.0010
     39  C         25.4250  -20.8020  -15.0590 C.2     1  UNL1        0.0130
@<TRIPOS>BOND
     1    38    37    1
     2    38    39    2
     3    37    35    2
     4    39    36    1
     5    35    34    1
     6    36    34    1
     7    36    30    2
     8    34    33    2
     9    27    28    1
    10    27     6    1
    11    28    29    2
    12    28    30    1
    13    30    31    1
    14    24    25    1
    15    24     1    1
    16    33    32    1
    17    25    26    1
    18     6     1    2
    19     6     5    1
    20     1     2    1
    21    31    32    2
    22     5     4    2
    23     2     3    2
    24     4     3    1
    25     3     7    1
    26    21    14    1
    27    14     7    1
    28    14    11    1
    29     7     8    1
    30    11    13   ar
    31    11    10   ar
    32    13    15   ar
    33     8     9    2
    34     9    10    1
    35     9    22    1
    36    10    12   ar
    37    23    22    1
    38    15    12   ar
    39    15    16    1
    40    12    20    1
    41    16    17    1
    42    19    17    1
    43    20    18    1
    44    17    18    1
