@<TRIPOS>MOLECULE
80466_out_ligand_01.pdbqt
 33 36 0 0 0
SMALL
GASTEIGER

@<TRIPOS>ATOM
      1  N         21.0250  -23.6910   -8.9800 N.am    1  UNL1       -0.3570
      2  C         20.4330  -22.7610   -8.1560 C.2     1  UNL1        0.2530
      3  O         21.0020  -22.1550   -7.2590 O.2     1  UNL1       -0.2680
      4  H         20.4410  -24.2150   -9.6200 H       1  UNL1        0.1620
      5  C         18.9870  -22.5520   -8.4080 C.ar    1  UNL1        0.0520
      6  C         18.0610  -22.8940   -7.3940 C.ar    1  UNL1       -0.0170
      7  C         16.7200  -22.6530   -7.6930 C.ar    1  UNL1        0.0420
      8  C         18.5640  -23.4330   -6.0710 C.3     1  UNL1        0.0420
      9  N         16.3160  -22.1930   -8.9080 N.ar    1  UNL1       -0.2520
     10  C         15.5710  -22.8750   -6.7390 C.3     1  UNL1        0.0600
     11  C         17.2110  -21.8820   -9.8550 C.ar    1  UNL1        0.0680
     12  C         16.7440  -21.3930  -11.0680 C.2     1  UNL1        0.0320
     13  C         18.5910  -22.0230   -9.6630 C.ar    1  UNL1        0.0090
     14  C         17.6100  -21.0240  -12.1000 C.2     1  UNL1        0.0020
     15  C         18.9780  -21.1370  -11.9180 C.2     1  UNL1        0.0010
     16  C         19.4680  -21.6280  -10.7090 C.2     1  UNL1        0.0150
     17  C         15.8480  -22.4650   -5.2980 C.3     1  UNL1        0.0060
     18  C         16.5550  -23.5520   -4.4980 C.3     1  UNL1        0.0010
     19  C         17.6140  -24.3250   -5.2750 C.3     1  UNL1        0.0050
     20  C         22.4280  -24.0360   -8.8560 C.3     1  UNL1        0.1270
     21  C         23.3500  -22.8390   -9.1070 C.3     1  UNL1        0.0580
     22  C         23.6400  -22.6100  -10.5740 C.2     1  UNL1       -0.0570
     23  C         24.8890  -22.9530  -11.1130 C.2     1  UNL1        0.0090
     24  C         25.1750  -22.7060  -12.4570 C.2     1  UNL1        0.0250
     25  C         24.2020  -22.1200  -13.2680 C.2     1  UNL1        0.0740
     26  C         22.9520  -21.7740  -12.7480 C.2     1  UNL1        0.0250
     27  C         22.6720  -22.0250  -11.4040 C.2     1  UNL1        0.0090
     28  S         24.5650  -21.7470  -14.9570 S.O2    1  UNL1        0.2390
     29  O         23.8700  -22.6770  -15.8170 O.2     1  UNL1       -0.2060
     30  O         25.9810  -21.4890  -15.0790 O.2     1  UNL1       -0.2060
     31  N         23.7950  -20.2710  -15.1690 N.3     1  UNL1       -0.2250
     32  H         24.1330  -19.6000  -14.4780 H       1  UNL1        0.1360
     33  H         23.9090  -19.9600  -16.1340 H       1  UNL1        0.1360
@<TRIPOS>BOND
     1    33    31    1
     2    29    28    2
     3    31    28    1
     4    31    32    1
     5    30    28    2
     6    28    25    1
     7    25    26    2
     8    25    24    1
     9    26    27    1
    10    24    23    2
    11    14    15    1
    12    14    12    2
    13    15    16    2
    14    27    22    2
    15    23    22    1
    16    12    11    1
    17    16    13    1
    18    22    21    1
    19    11    13   ar
    20    11     9   ar
    21    13     5   ar
    22     4     1    1
    23    21    20    1
    24     1    20    1
    25     1     2   am
    26     9     7   ar
    27     5     2    1
    28     5     6   ar
    29     2     3    2
    30     7     6   ar
    31     7    10    1
    32     6     8    1
    33    10    17    1
    34     8    19    1
    35    17    18    1
    36    19    18    1
