@<TRIPOS>MOLECULE
81379_out_ligand_01.pdbqt
 30 34 0 0 0
SMALL
GASTEIGER

@<TRIPOS>ATOM
      1  C         24.4700  -22.0100  -12.0470 C.2     1  UNL1        0.1440
      2  N         24.2820  -21.5800  -13.3090 N.2     1  UNL1       -0.2230
      3  C         23.0390  -21.3140  -13.7330 C.2     1  UNL1        0.2360
      4  N         21.9040  -21.4210  -13.0400 N.2     1  UNL1       -0.2400
      5  C         22.0750  -21.8470  -11.7620 C.ar    1  UNL1        0.0920
      6  C         23.3300  -22.1460  -11.2390 C.ar    1  UNL1        0.0820
      7  S         23.2120  -22.6590   -9.6010 S.2     1  UNL1       -0.0630
      8  C         21.5220  -22.4910   -9.5940 C.ar    1  UNL1        0.1120
      9  N         20.8170  -22.7880   -8.4800 N.ar    1  UNL1       -0.2390
     10  C         19.4730  -22.6410   -8.5750 C.ar    1  UNL1        0.0750
     11  C         18.8620  -22.1760   -9.7290 C.ar    1  UNL1       -0.0210
     12  C         19.6290  -21.8730  -10.8610 C.ar    1  UNL1       -0.0340
     13  C         21.0200  -22.0420  -10.8090 C.ar    1  UNL1        0.0370
     14  C         18.7510  -21.4170  -11.9940 C.3     1  UNL1        0.0400
     15  C         17.4780  -21.0240  -11.2390 C.3     1  UNL1        0.0090
     16  C         17.4080  -21.9330  -10.0050 C.3     1  UNL1        0.0420
     17  N         25.7400  -22.2820  -11.5650 N.pl3   1  UNL1       -0.3670
     18  H         25.9570  -21.7470  -10.7290 H       1  UNL1        0.1610
     19  CA        26.3370  -23.6210  -11.5910 C.3     1  UNL1        0.1060
     20  C         27.1210  -23.8900  -12.8900 C.3     1  UNL1        0.0230
     21  C         26.3160  -24.4050  -14.0730 C.3     1  UNL1        0.0070
     22  C         27.0680  -24.0370  -10.3000 C.3     1  UNL1        0.1890
     23  O         26.1490  -24.5990   -9.3570 O.3     1  UNL1       -0.3990
     24  H         26.6250  -24.6840   -8.5140 H       1  UNL1        0.2090
     25  C         18.7320  -22.9940   -7.3530 C.2     1  UNL1       -0.0070
     26  C         18.5850  -22.0880   -6.2890 C.2     1  UNL1        0.0140
     27  C         17.8820  -22.4380   -5.1330 C.2     1  UNL1        0.0010
     28  C         17.3050  -23.7020   -5.0240 C.2     1  UNL1        0.0000
     29  C         17.4250  -24.6110   -6.0710 C.2     1  UNL1        0.0010
     30  C         18.1290  -24.2570   -7.2260 C.2     1  UNL1        0.0140
@<TRIPOS>BOND
     1    21    20    1
     2     3     2    1
     3     3     4    2
     4     2     1    2
     5     4     5    1
     6    20    19    1
     7     1    17    1
     8     1     6    1
     9    14    15    1
    10    14    12    1
    11     5     6   ar
    12     5    13   ar
    13    19    17    1
    14    19    22    1
    15    17    18    1
    16     6     7   ar
    17    15    16    1
    18    12    13   ar
    19    12    11   ar
    20    13     8   ar
    21    22    23    1
    22    16    11    1
    23    11    10   ar
    24     7     8   ar
    25     8     9   ar
    26    23    24    1
    27    10     9   ar
    28    10    25    1
    29    25    30    2
    30    25    26    1
    31    30    29    1
    32    26    27    2
    33    29    28    2
    34    27    28    1
