@<TRIPOS>MOLECULE
81516_out_ligand_01.pdbqt
 37 41 0 0 0
SMALL
GASTEIGER

@<TRIPOS>ATOM
      1  C         18.3090  -23.0850   -9.1770 C.2     1  UNL1        0.0800
      2  C         18.8260  -24.0330   -8.2870 C.2     1  UNL1        0.0250
      3  C         20.1970  -24.2890   -8.2770 C.2     1  UNL1        0.0030
      4  C         21.0480  -23.5850   -9.1350 C.2     1  UNL1        0.0170
      5  C         20.5300  -22.6040   -9.9950 C.2     1  UNL1        0.0330
      6  C         19.1530  -22.3590  -10.0210 C.2     1  UNL1        0.0420
      7  S         16.5590  -22.7640   -9.1950 S.O2    1  UNL1        0.2630
      8  O         15.8690  -24.0220   -9.0150 O.2     1  UNL1       -0.2000
      9  O         16.2890  -21.9170  -10.3380 O.2     1  UNL1       -0.2000
     10  N         16.3220  -21.7960   -7.8360 N.pl3   1  UNL1       -0.2800
     11  H         16.8470  -20.9250   -7.8690 H       1  UNL1        0.1790
     12  C         16.0770  -22.4030   -6.5630 C.2     1  UNL1        0.0570
     13  C         15.0010  -23.2780   -6.4400 C.2     1  UNL1        0.0570
     14  C         14.7850  -23.8860   -5.2170 C.2     1  UNL1        0.0330
     15  C         13.6460  -24.8440   -5.0430 C.3     1  UNL1        0.0700
     16  N         15.5720  -23.6560   -4.1430 N.2     1  UNL1       -0.2530
     17  C         16.6180  -22.8220   -4.2630 C.2     1  UNL1        0.0690
     18  C         17.4260  -22.6170   -3.1530 C.2     1  UNL1        0.0320
     19  C         16.9300  -22.1530   -5.4640 C.2     1  UNL1        0.0200
     20  C         18.5370  -21.7720   -3.1920 C.2     1  UNL1        0.0020
     21  C         18.8560  -21.1110   -4.3680 C.2     1  UNL1        0.0010
     22  C         18.0610  -21.2990   -5.4970 C.2     1  UNL1        0.0160
     23  C         21.4060  -21.8250  -10.9160 C.2     1  UNL1        0.2560
     24  O         20.9620  -20.7850  -11.3870 O.2     1  UNL1       -0.2670
     25  N         22.6670  -22.3560  -11.1100 N.am    1  UNL1       -0.3230
     26  H         22.9280  -23.1490  -10.5400 H       1  UNL1        0.1690
     27  C         23.6830  -21.8590  -11.9550 C.2     1  UNL1        0.0370
     28  C         24.9500  -21.4770  -11.5130 C.2     1  UNL1        0.0320
     29  C         25.8930  -20.9740  -12.4150 C.2     1  UNL1        0.0420
     30  C         25.5810  -20.8390  -13.7680 C.2     1  UNL1        0.1020
     31  C         24.3300  -21.2650  -14.2290 C.2     1  UNL1        0.1040
     32  O         26.5720  -20.2890  -14.5410 O.2     1  UNL1       -0.3480
     33  C         23.3810  -21.7440  -13.3180 C.2     1  UNL1        0.0690
     34  O         23.9160  -21.2530  -15.5380 O.2     1  UNL1       -0.3480
     35  C         24.9640  -21.5410  -16.4670 C.3     1  UNL1        0.1780
     36  C         25.7390  -20.2850  -16.8240 C.3     1  UNL1        0.0530
     37  C         26.0770  -19.4610  -15.5940 C.3     1  UNL1        0.1780
@<TRIPOS>BOND
     1    36    35    1
     2    36    37    1
     3    35    34    1
     4    37    32    1
     5    34    31    1
     6    32    30    1
     7    31    30    2
     8    31    33    1
     9    30    29    1
    10    33    27    2
    11    29    28    2
    12    27    28    1
    13    27    25    1
    14    24    23    2
    15    25    23   am
    16    25    26    1
    17    23     5    1
    18     9     7    2
    19     6     5    1
    20     6     1    2
    21     5     4    2
    22     7     1    1
    23     7     8    2
    24     7    10    1
    25     1     2    1
    26     4     3    1
    27     2     3    2
    28    11    10    1
    29    10    12    1
    30    12    13    2
    31    12    19    1
    32    13    14    1
    33    22    19    1
    34    22    21    2
    35    19    17    2
    36    14    15    1
    37    14    16    2
    38    21    20    1
    39    17    16    1
    40    17    18    1
    41    20    18    2
