@<TRIPOS>MOLECULE
81522_out_ligand_01.pdbqt
 35 39 0 0 0
SMALL
GASTEIGER

@<TRIPOS>ATOM
      1  C         18.3810  -21.7620  -10.5040 C.2     1  UNL1        0.0330
      2  C         17.1600  -21.2920  -11.0130 C.2     1  UNL1        0.0170
      3  C         15.9530  -21.7330  -10.4640 C.2     1  UNL1        0.0030
      4  C         15.9580  -22.6460   -9.4100 C.2     1  UNL1        0.0250
      5  C         17.1750  -23.1180   -8.9090 C.2     1  UNL1        0.0810
      6  C         18.3880  -22.6970   -9.4610 C.2     1  UNL1        0.0420
      7  C         19.6910  -21.3170  -11.0630 C.2     1  UNL1        0.2560
      8  O         19.7000  -20.3260  -11.7810 O.2     1  UNL1       -0.2670
      9  N         20.7730  -22.1130  -10.7300 N.am    1  UNL1       -0.3230
     10  H         20.5850  -22.9550  -10.2040 H       1  UNL1        0.1690
     11  C         22.1210  -21.9260  -11.1060 C.2     1  UNL1        0.0370
     12  C         23.0510  -21.7540  -10.0710 C.2     1  UNL1        0.0320
     13  C         24.4070  -21.5660  -10.3530 C.2     1  UNL1        0.0420
     14  C         24.8440  -21.5220  -11.6740 C.2     1  UNL1        0.1020
     15  C         23.9260  -21.6980  -12.7110 C.2     1  UNL1        0.1040
     16  O         26.1920  -21.4010  -11.8710 O.2     1  UNL1       -0.3480
     17  C         22.5730  -21.9090  -12.4270 C.2     1  UNL1        0.0690
     18  O         24.2990  -21.7820  -14.0260 O.2     1  UNL1       -0.3480
     19  C         24.8820  -20.5700  -14.5010 C.3     1  UNL1        0.1780
     20  C         26.3530  -20.4670  -14.1290 C.3     1  UNL1        0.0530
     21  C         26.5250  -20.2410  -12.6340 C.3     1  UNL1        0.1780
     22  S         17.1560  -24.3120   -7.5880 S.O2    1  UNL1        0.2650
     23  O         16.1190  -25.2660   -7.9230 O.2     1  UNL1       -0.2000
     24  O         18.5180  -24.7430   -7.3520 O.2     1  UNL1       -0.2000
     25  N         16.6600  -23.3750   -6.2540 N.pl3   1  UNL1       -0.2700
     26  C         15.2590  -22.8960   -6.2410 C.3     1  UNL1        0.1430
     27  C         14.5030  -23.6140   -5.1280 C.3     1  UNL1        0.0310
     28  C         15.3490  -23.9330   -3.8980 C.3     1  UNL1        0.0810
     29  S         16.1280  -22.4720   -3.1530 S.3     1  UNL1       -0.1280
     30  C         17.4480  -22.0300   -4.3040 C.2     1  UNL1        0.0280
     31  C         18.3620  -21.1010   -3.7670 C.2     1  UNL1        0.0210
     32  C         17.6130  -22.4600   -5.6430 C.2     1  UNL1        0.0610
     33  C         19.4060  -20.5840   -4.5310 C.2     1  UNL1        0.0020
     34  C         19.5420  -20.9710   -5.8560 C.2     1  UNL1        0.0020
     35  C         18.6450  -21.8880   -6.4090 C.2     1  UNL1        0.0310
@<TRIPOS>BOND
     1    19    20    1
     2    19    18    1
     3    20    21    1
     4    18    15    1
     5    15    17    1
     6    15    14    2
     7    21    16    1
     8    17    11    2
     9    16    14    1
    10     8     7    2
    11    14    13    1
    12    11     9    1
    13    11    12    1
    14     7     9   am
    15     7     1    1
    16     2     1    2
    17     2     3    1
    18     9    10    1
    19     1     6    1
    20     3     4    2
    21    13    12    2
    22     6     5    2
    23     4     5    1
    24     5    22    1
    25    23    22    2
    26    22    24    2
    27    22    25    1
    28    35    34    2
    29    35    32    1
    30    25    26    1
    31    25    32    1
    32    26    27    1
    33    34    33    1
    34    32    30    2
    35    27    28    1
    36    33    31    2
    37    30    31    1
    38    30    29    1
    39    28    29    1
