@<TRIPOS>MOLECULE
81567_out_ligand_01.pdbqt
 37 40 0 0 0
SMALL
GASTEIGER

@<TRIPOS>ATOM
      1  C         20.8710  -20.8490  -12.4720 C.3     1  UNL1        0.0490
      2  C         19.8210  -21.4200  -11.5590 C.2     1  UNL1       -0.0460
      3  C         18.4780  -21.0420  -11.7410 C.2     1  UNL1        0.0090
      4  C         17.4760  -21.5380  -10.9070 C.2     1  UNL1        0.0250
      5  C         17.8140  -22.4080   -9.8710 C.2     1  UNL1        0.0750
      6  C         19.1390  -22.8010   -9.6670 C.2     1  UNL1        0.0420
      7  C         20.1430  -22.3080  -10.5120 C.2     1  UNL1        0.0390
      8  C         21.5500  -22.7220  -10.2580 C.2     1  UNL1        0.2520
      9  O         21.8470  -23.9050  -10.1730 O.2     1  UNL1       -0.2680
     10  N         22.4430  -21.6850  -10.1210 N.am    1  UNL1       -0.3530
     11  H         22.1080  -20.7310  -10.0920 H       1  UNL1        0.1630
     12  C         23.8330  -21.9090   -9.7900 C.3     1  UNL1        0.1610
     13  C         24.7090  -21.6210  -10.9810 C.2     1  UNL1       -0.0380
     14  C         25.6830  -20.6190  -10.9070 C.2     1  UNL1        0.0090
     15  C         26.4810  -20.3320  -12.0120 C.2     1  UNL1        0.0030
     16  C         26.3170  -21.0420  -13.2030 C.2     1  UNL1        0.0290
     17  C         25.3580  -22.0480  -13.3010 C.2     1  UNL1        0.0350
     18  C         24.5540  -22.3300  -12.1840 C.2     1  UNL1        0.0380
     19  N         25.1350  -22.8180  -14.4630 N.am    1  UNL1       -0.3270
     20  C         24.4520  -22.4450  -15.6020 C.2     1  UNL1        0.2260
     21  O         23.8890  -21.3780  -15.8050 O.2     1  UNL1       -0.2730
     22  H         25.5370  -23.7450  -14.4610 H       1  UNL1        0.1690
     23  C         24.4100  -23.4670  -16.6970 C.3     1  UNL1        0.0780
     24  C         23.1220  -23.8520  -17.3900 C.3     1  UNL1        0.0150
     25  C         24.1930  -23.1230  -18.1520 C.3     1  UNL1        0.0150
     26  S         16.5310  -23.0110   -8.8010 S.O2    1  UNL1        0.2450
     27  O         15.7920  -24.0260   -9.5260 O.2     1  UNL1       -0.2060
     28  O         15.8870  -21.8570   -8.2150 O.2     1  UNL1       -0.2060
     29  N         17.4610  -23.8360   -7.6320 N.pl3   1  UNL1       -0.1810
     30  H         16.9530  -24.6880   -7.3950 H       1  UNL1        0.1460
     31  C         17.7300  -23.0610   -6.4580 C.2     1  UNL1        0.0230
     32  C         18.7930  -22.1550   -6.4650 C.2     1  UNL1        0.0270
     33  C         19.0370  -21.3630   -5.3420 C.2     1  UNL1        0.0440
     34  C         18.2080  -21.4770   -4.2320 C.2     1  UNL1        0.1160
     35  F         18.4430  -20.7180   -3.1550 F       1  UNL1       -0.2060
     36  C         17.1350  -22.3620   -4.2240 C.2     1  UNL1        0.0440
     37  C         16.8870  -23.1550   -5.3470 C.2     1  UNL1        0.0270
@<TRIPOS>BOND
     1    25    24    1
     2    25    23    1
     3    24    23    1
     4    23    20    1
     5    21    20    2
     6    20    19   am
     7    19    22    1
     8    19    17    1
     9    17    16    2
    10    17    18    1
    11    16    15    1
    12     1     2    1
    13    18    13    2
    14    15    14    2
    15     3     2    2
    16     3     4    1
    17     2     7    1
    18    13    14    1
    19    13    12    1
    20     4     5    2
    21     7     8    1
    22     7     6    2
    23     8     9    2
    24     8    10   am
    25    10    11    1
    26    10    12    1
    27     5     6    1
    28     5    26    1
    29    27    26    2
    30    26    28    2
    31    26    29    1
    32    29    30    1
    33    29    31    1
    34    32    31    2
    35    32    33    1
    36    31    37    1
    37    37    36    2
    38    33    34    2
    39    34    36    1
    40    34    35    1
