@<TRIPOS>MOLECULE
81606_out_ligand_01.pdbqt
 37 40 0 0 0
SMALL
GASTEIGER

@<TRIPOS>ATOM
      1  C         17.0780  -22.8190   -9.0790 C.2     1  UNL1        0.0800
      2  C         16.3840  -21.9760   -9.9580 C.2     1  UNL1        0.0250
      3  C         17.0490  -21.4140  -11.0490 C.2     1  UNL1        0.0030
      4  C         18.4000  -21.6870  -11.2560 C.2     1  UNL1        0.0170
      5  C         19.0830  -22.5320  -10.3710 C.2     1  UNL1        0.0330
      6  C         18.4270  -23.1150   -9.2850 C.2     1  UNL1        0.0420
      7  S         16.2300  -23.5390   -7.6880 S.O2    1  UNL1        0.2630
      8  O         15.3410  -22.5310   -7.1480 O.2     1  UNL1       -0.2000
      9  O         15.7230  -24.8220   -8.1290 O.2     1  UNL1       -0.2000
     10  N         17.4630  -23.8350   -6.5730 N.pl3   1  UNL1       -0.2800
     11  H         18.2120  -24.4090   -6.9930 H       1  UNL1        0.1790
     12  C         17.9420  -22.7610   -5.7470 C.2     1  UNL1        0.0580
     13  C         18.9210  -21.8990   -6.2480 C.2     1  UNL1        0.0310
     14  C         19.4110  -20.8540   -5.4620 C.2     1  UNL1        0.0020
     15  C         18.9200  -20.6600   -4.1720 C.2     1  UNL1        0.0010
     16  C         17.9410  -21.5120   -3.6600 C.2     1  UNL1        0.0190
     17  C         17.4520  -22.5730   -4.4370 C.2     1  UNL1        0.0590
     18  C         16.4140  -23.4890   -3.8930 C.2     1  UNL1        0.2510
     19  N         15.1110  -23.0810   -3.9530 N.am    1  UNL1       -0.3660
     20  H         14.4930  -23.5830   -3.3160 H       1  UNL1        0.1590
     21  H         14.8840  -22.0970   -3.9970 H       1  UNL1        0.1590
     22  O         16.7240  -24.5440   -3.3460 O.2     1  UNL1       -0.2680
     23  C         20.5310  -22.7680  -10.5530 C.2     1  UNL1        0.2560
     24  O         21.0330  -23.7110   -9.9550 O.2     1  UNL1       -0.2670
     25  N         21.1350  -21.8540  -11.3900 N.am    1  UNL1       -0.3230
     26  H         20.5260  -21.1980  -11.8610 H       1  UNL1        0.1690
     27  C         22.5020  -21.7780  -11.7310 C.2     1  UNL1        0.0370
     28  C         23.4180  -21.7660  -10.6720 C.2     1  UNL1        0.0320
     29  C         24.7920  -21.7090  -10.9230 C.2     1  UNL1        0.0420
     30  C         25.2690  -21.6660  -12.2340 C.2     1  UNL1        0.1020
     31  C         24.3560  -21.6310  -13.2970 C.2     1  UNL1        0.1040
     32  O         26.6350  -21.6570  -12.3500 O.2     1  UNL1       -0.3480
     33  C         22.9800  -21.7160  -13.0420 C.2     1  UNL1        0.0690
     34  O         24.6950  -21.5310  -14.6250 O.2     1  UNL1       -0.3480
     35  C         25.8120  -20.6680  -14.8550 C.3     1  UNL1        0.1780
     36  C         27.1200  -21.4290  -14.7230 C.3     1  UNL1        0.0530
     37  C         27.1200  -22.3390  -13.5080 C.3     1  UNL1        0.1780
@<TRIPOS>BOND
     1    35    36    1
     2    35    34    1
     3    36    37    1
     4    34    31    1
     5    37    32    1
     6    31    33    1
     7    31    30    2
     8    33    27    2
     9    32    30    1
    10    30    29    1
    11    26    25    1
    12    27    25    1
    13    27    28    1
    14    25    23   am
    15     4     3    2
    16     4     5    1
    17     3     2    1
    18    29    28    2
    19    23     5    1
    20    23    24    2
    21     5     6    2
    22     2     1    2
    23     6     1    1
    24     1     7    1
    25     9     7    2
    26     7     8    2
    27     7    10    1
    28    11    10    1
    29    10    12    1
    30    13    12    2
    31    13    14    1
    32    12    17    1
    33    14    15    2
    34    17    18    1
    35    17    16    2
    36    15    16    1
    37    21    19    1
    38    19    18   am
    39    19    20    1
    40    18    22    2
