@<TRIPOS>MOLECULE
81873_out_ligand_01.pdbqt
 36 39 0 0 0
SMALL
GASTEIGER

@<TRIPOS>ATOM
      1  C         22.8450  -23.1690   -8.9850 C.3     1  UNL1        0.1070
      2  C         22.1140  -22.1750   -8.1150 C.2     1  UNL1        0.2180
      3  N         20.8570  -22.5790   -7.7400 N.am    1  UNL1       -0.3570
      4  H         20.5250  -23.5040   -7.9990 H       1  UNL1        0.1620
      5  O         22.6140  -21.1030   -7.7850 O.2     1  UNL1       -0.2740
      6  C         20.0020  -21.7980   -6.8740 C.3     1  UNL1        0.1670
      7  C         18.8730  -22.6650   -6.3900 C.ar    1  UNL1        0.0370
      8  C         18.7320  -23.9440   -7.1420 C.ar    1  UNL1        0.2700
      9  N         17.7150  -24.7640   -6.7580 N.ar    1  UNL1       -0.2430
     10  O         19.5060  -24.2480   -8.0470 O.2     1  UNL1       -0.2660
     11  N         16.8220  -24.5120   -5.7720 N.ar    1  UNL1       -0.1760
     12  H         17.6060  -25.6410   -7.2580 H       1  UNL1        0.1920
     13  C         16.9390  -23.3910   -5.1240 C.ar    1  UNL1        0.0610
     14  C         18.0080  -22.3700   -5.3940 C.ar    1  UNL1       -0.0190
     15  C         15.8860  -23.1530   -4.0460 C.3     1  UNL1        0.0570
     16  C         14.7620  -22.2770   -4.5700 C.3     1  UNL1        0.0110
     17  C         18.1080  -21.1290   -4.5420 C.3     1  UNL1        0.0370
     18  C         18.6590  -21.4200   -3.1530 C.3     1  UNL1        0.0100
     19  C         21.9640  -23.6140  -10.1440 C.3     1  UNL1        0.0510
     20  C         22.0130  -22.6470  -11.2870 C.ar    1  UNL1       -0.0180
     21  C         20.9570  -21.8900  -11.7840 C.ar    1  UNL1        0.0500
     22  N         21.4420  -21.1630  -12.8450 N.ar    1  UNL1       -0.3540
     23  C         22.7740  -21.4290  -13.0580 C.ar    1  UNL1        0.0430
     24  H         20.8970  -20.5120  -13.3920 H       1  UNL1        0.1660
     25  C         23.6530  -20.9220  -14.0220 C.2     1  UNL1        0.0300
     26  C         23.1610  -22.3600  -12.0960 C.ar    1  UNL1       -0.0010
     27  C         24.9720  -21.3860  -14.0040 C.2     1  UNL1        0.0020
     28  C         25.3910  -22.3200  -13.0610 C.2     1  UNL1        0.0010
     29  C         24.4970  -22.8150  -12.1040 C.2     1  UNL1        0.0140
     30  C         19.5580  -21.8100  -11.3720 C.2     1  UNL1       -0.0090
     31  C         18.8290  -20.6300  -11.5820 C.2     1  UNL1        0.0170
     32  C         17.4890  -20.5560  -11.2040 C.2     1  UNL1        0.0430
     33  C         16.8780  -21.6600  -10.6200 C.2     1  UNL1        0.1160
     34  F         15.5930  -21.5810  -10.2510 F       1  UNL1       -0.2060
     35  C         17.5840  -22.8360  -10.4030 C.2     1  UNL1        0.0430
     36  C         18.9280  -22.9100  -10.7770 C.2     1  UNL1        0.0170
@<TRIPOS>BOND
     1    25    27    1
     2    25    23    2
     3    27    28    2
     4    24    22    1
     5    28    29    1
     6    23    22   ar
     7    23    26   ar
     8    22    21   ar
     9    29    26    2
    10    26    20   ar
    11    21    30    1
    12    21    20   ar
    13    31    30    2
    14    31    32    1
    15    30    36    1
    16    20    19    1
    17    32    33    2
    18    36    35    2
    19    33    35    1
    20    33    34    1
    21    19     1    1
    22     1     2    1
    23     2     5    2
    24     2     3   am
    25    10     8    2
    26     4     3    1
    27     3     6    1
    28    12     9    1
    29     8     9   ar
    30     8     7   ar
    31     6     7    1
    32     9    11   ar
    33     7    14   ar
    34    11    13   ar
    35    14    13   ar
    36    14    17    1
    37    13    15    1
    38    16    15    1
    39    17    18    1
