@<TRIPOS>MOLECULE
81937_out_ligand_01.pdbqt
 34 38 0 0 0
SMALL
GASTEIGER

@<TRIPOS>ATOM
      1  C         22.5870  -23.0840  -10.6240 C.2     1  UNL1        0.0340
      2  C         21.4300  -22.4690  -11.1010 C.2     1  UNL1        0.0300
      3  C         20.2980  -22.3360  -10.2840 C.2     1  UNL1        0.0170
      4  C         20.3000  -22.8150   -8.9680 C.2     1  UNL1        0.0100
      5  C         21.4640  -23.4370   -8.4970 C.2     1  UNL1        0.0170
      6  C         22.5930  -23.5690   -9.3120 C.2     1  UNL1        0.0300
      7  N         23.7620  -23.2660  -11.3820 N.am    1  UNL1       -0.3270
      8  C         24.0880  -22.6820  -12.5880 C.2     1  UNL1        0.2270
      9  O         23.4130  -21.8310  -13.1650 O.2     1  UNL1       -0.2730
     10  H         24.4250  -23.9130  -10.9860 H       1  UNL1        0.1690
     11  C         25.4280  -23.1150  -13.2010 C.3     1  UNL1        0.0900
     12  C         25.2350  -24.1800  -14.2890 C.3     1  UNL1        0.0450
     13  C         24.9960  -23.6150  -15.6900 C.3     1  UNL1        0.2720
     14  N         26.0100  -22.6250  -16.0520 N.3     1  UNL1        0.0850
     15  C         25.8010  -22.1360  -17.4150 C.3     1  UNL1        0.3090
     16  C         26.0890  -21.5060  -15.1030 C.3     1  UNL1        0.2820
     17  C         26.3730  -21.9900  -13.6670 C.3     1  UNL1        0.0630
     18  C         26.5030  -20.8610  -12.6840 C.2     1  UNL1       -0.0150
     19  C         26.2310  -20.9080  -11.2950 C.2     1  UNL1        0.1480
     20  N         26.4450  -19.7420  -10.6860 N.2     1  UNL1       -0.1850
     21  N         26.8320  -18.9290  -11.6820 N.pl3   1  UNL1       -0.2850
     22  C         27.1210  -17.5450  -11.3990 C.3     1  UNL1        0.1790
     23  C         26.9060  -19.5550  -12.8930 C.2     1  UNL1        0.1200
     24  C         19.1400  -22.6990   -8.0760 C.ar    1  UNL1        0.1390
     25  N         19.1880  -22.5070   -6.7690 N.ar    1  UNL1       -0.2280
     26  C         17.8870  -22.4560   -6.3360 C.ar    1  UNL1        0.0880
     27  C         17.3820  -22.2740   -5.0430 C.2     1  UNL1        0.0760
     28  C         17.0090  -22.6130   -7.4000 C.ar    1  UNL1        0.0630
     29  C         15.9970  -22.2600   -4.8840 C.2     1  UNL1        0.1180
     30  F         15.4840  -22.0890   -3.6580 F       1  UNL1       -0.2060
     31  C         15.1280  -22.4180   -5.9630 C.2     1  UNL1        0.0440
     32  C         15.6190  -22.6000   -7.2610 C.2     1  UNL1        0.0350
     33  N         17.8270  -22.7620   -8.4900 N.ar    1  UNL1       -0.3380
     34  H         17.5160  -22.8840   -9.4400 H       1  UNL1        0.1670
@<TRIPOS>BOND
     1    15    14    1
     2    14    13    1
     3    14    16    1
     4    13    12    1
     5    16    17    1
     6    12    11    1
     7    17    11    1
     8    17    18    1
     9    11     8    1
    10     9     8    2
    11    23    18    2
    12    23    21    1
    13    18    19    1
    14     8     7   am
    15    21    22    1
    16    21    20    1
    17     7    10    1
    18     7     1    1
    19    19    20    2
    20     2     1    2
    21     2     3    1
    22     1     6    1
    23     3     4    2
    24    34    33    1
    25     6     5    2
    26     4     5    1
    27     4    24    1
    28    33    24   ar
    29    33    28   ar
    30    24    25   ar
    31    28    32    1
    32    28    26   ar
    33    32    31    2
    34    25    26   ar
    35    26    27    1
    36    31    29    1
    37    27    29    2
    38    29    30    1
