@<TRIPOS>MOLECULE
82582_out_ligand_01.pdbqt
 35 39 0 0 0
SMALL
GASTEIGER

@<TRIPOS>ATOM
      1  N         21.9830  -21.8980  -11.1730 N.pl3   1  UNL1       -0.2810
      2  C         23.1650  -22.3720  -10.9090 C.ar    1  UNL1        0.1620
      3  C         23.4570  -23.2560   -9.7310 C.ar    1  UNL1        0.0820
      4  C         22.5620  -23.6460   -8.8010 C.3     1  UNL1        0.0320
      5  C         24.8770  -23.7630   -9.5580 C.ar    1  UNL1        0.2830
      6  O         25.1650  -24.5060   -8.6250 O.2     1  UNL1       -0.2650
      7  N         25.8330  -23.3700  -10.4730 N.ar    1  UNL1       -0.1820
      8  C         25.4820  -22.6030  -11.4420 C.ar    1  UNL1        0.2020
      9  S         26.6280  -22.0670  -12.6390 S.2     1  UNL1       -0.0100
     10  C         25.3070  -21.1810  -13.4180 C.ar    1  UNL1        0.1920
     11  N         24.1420  -21.2850  -12.8380 N.ar    1  UNL1       -0.1380
     12  N         24.2470  -22.0890  -11.7190 N.ar    1  UNL1       -0.1880
     13  H         22.0850  -21.3340  -12.0290 H       1  UNL1        0.1880
     14  C         21.1410  -23.3000   -8.7260 C.2     1  UNL1       -0.0350
     15  C         20.6770  -22.4190   -7.7400 C.2     1  UNL1        0.0140
     16  C         19.3190  -22.1090   -7.6570 C.2     1  UNL1        0.0380
     17  C         18.4280  -22.7020   -8.5510 C.2     1  UNL1        0.0790
     18  C         18.8750  -23.5670   -9.5460 C.2     1  UNL1        0.0380
     19  C         20.2340  -23.8730   -9.6280 C.2     1  UNL1        0.0140
     20  O         17.0660  -22.3780   -8.5390 O.3     1  UNL1       -0.2750
     21  C         16.2250  -23.3640   -8.0640 C.2     1  UNL1        0.3010
     22  O         15.6660  -24.2410   -8.7070 O.2     1  UNL1       -0.2590
     23  C         15.9990  -23.1810   -6.6140 C.2     1  UNL1        0.0780
     24  C         14.9690  -22.3180   -6.2100 C.2     1  UNL1        0.0210
     25  C         14.7140  -22.1150   -4.8510 C.2     1  UNL1        0.0010
     26  C         15.4800  -22.7760   -3.8900 C.2     1  UNL1        0.0030
     27  C         16.4950  -23.6440   -4.2870 C.2     1  UNL1        0.0430
     28  C         16.7480  -23.8460   -5.6440 C.2     1  UNL1        0.1320
     29  F         17.7110  -24.7170   -5.9780 F       1  UNL1       -0.2050
     30  N         25.5470  -20.4530  -14.5620 N.pl3   1  UNL1       -0.3550
     31  C         24.7600  -20.7010  -15.7830 C.3     1  UNL1        0.1510
     32  C         25.6290  -20.4880  -17.0290 C.3     1  UNL1        0.1870
     33  O         26.1720  -19.1650  -17.1370 O.3     1  UNL1       -0.3880
     34  C         26.3130  -18.5010  -15.8760 C.3     1  UNL1        0.1870
     35  C         26.6140  -19.4520  -14.7090 C.3     1  UNL1        0.1510
@<TRIPOS>BOND
     1    33    32    1
     2    33    34    1
     3    32    31    1
     4    34    35    1
     5    31    30    1
     6    35    30    1
     7    30    10    1
     8    10    11   ar
     9    10     9   ar
    10    11    12   ar
    11     9     8   ar
    12    13     1    1
    13    12     8   ar
    14    12     2   ar
    15     8     7   ar
    16     1     2    1
    17     2     3   ar
    18     7     5   ar
    19     3     5   ar
    20     3     4    1
    21    19    18    1
    22    19    14    2
    23     5     6    2
    24    18    17    2
    25     4    14    1
    26    14    15    1
    27    22    21    2
    28    17    20    1
    29    17    16    1
    30    20    21    1
    31    21    23    1
    32    15    16    2
    33    23    24    2
    34    23    28    1
    35    24    25    1
    36    29    28    1
    37    28    27    2
    38    25    26    2
    39    27    26    1
