@<TRIPOS>MOLECULE
83077_out_ligand_01.pdbqt
 37 40 0 0 0
SMALL
GASTEIGER

@<TRIPOS>ATOM
      1  C         20.7430  -21.7350  -11.9320 C.2     1  UNL1        0.0170
      2  C         19.6020  -21.2130  -12.5260 C.2     1  UNL1        0.1340
      3  N         18.3760  -21.2020  -11.9700 N.2     1  UNL1       -0.2300
      4  C         18.2880  -21.7160  -10.7460 C.cat   1  UNL1        0.1990
      5  N         19.3080  -22.2570  -10.0760 N.2     1  UNL1       -0.2220
      6  C         20.5360  -22.2570  -10.6560 C.2     1  UNL1        0.0560
      7  C         21.6480  -22.9470   -9.8660 C.3     1  UNL1        0.0570
      8  C         22.7760  -21.9910   -9.4030 C.3     1  UNL1        0.0140
      9  C         22.8060  -21.7600   -7.8860 C.3     1  UNL1        0.0210
     10  C         21.4130  -21.6690   -7.2770 C.3     1  UNL1        0.1260
     11  N         20.5570  -22.8000   -7.6280 N.am    1  UNL1       -0.3510
     12  C         19.2750  -22.8180   -7.0890 C.2     1  UNL1        0.2200
     13  C         21.0570  -23.7070   -8.6670 C.3     1  UNL1        0.1360
     14  O         18.9140  -22.0030   -6.2390 O.2     1  UNL1       -0.2730
     15  C         18.3330  -23.8920   -7.6010 C.3     1  UNL1        0.1070
     16  C         17.5190  -24.5310   -6.4780 C.3     1  UNL1        0.0470
     17  C         16.3750  -23.6330   -6.0670 C.2     1  UNL1       -0.0580
     18  C         15.6040  -22.9760   -7.0380 C.2     1  UNL1        0.0100
     19  C         14.5650  -22.1260   -6.6540 C.2     1  UNL1        0.0430
     20  C         14.3010  -21.9310   -5.3040 C.2     1  UNL1        0.1160
     21  F         13.3050  -21.1130   -4.9370 F       1  UNL1       -0.2060
     22  C         15.0580  -22.5690   -4.3270 C.2     1  UNL1        0.0430
     23  C         16.0960  -23.4200   -4.7070 C.2     1  UNL1        0.0100
     24  C         22.0170  -21.7330  -12.6590 C.2     1  UNL1       -0.0210
     25  C         22.2590  -20.7870  -13.6710 C.2     1  UNL1        0.0120
     26  C         23.4790  -20.7580  -14.3490 C.2     1  UNL1        0.0020
     27  C         24.4810  -21.6750  -14.0300 C.2     1  UNL1        0.0170
     28  C         24.2620  -22.6310  -13.0300 C.2     1  UNL1        0.0320
     29  C         23.0380  -22.6430  -12.3420 C.2     1  UNL1        0.0290
     30  C         25.2930  -23.6310  -12.6390 C.2     1  UNL1        0.2490
     31  N         25.7210  -23.6390  -11.3400 N.am    1  UNL1       -0.3660
     32  H         26.4940  -24.2620  -11.1350 H       1  UNL1        0.1590
     33  H         25.5520  -22.8830  -10.6950 H       1  UNL1        0.1590
     34  O         25.7740  -24.4060  -13.4570 O.2     1  UNL1       -0.2680
     35  N         17.0440  -21.7490  -10.1510 N.pl3   1  UNL1       -0.2710
     36  H         16.3750  -22.1500  -10.7920 H       1  UNL1        0.1270
     37  H         17.1190  -22.1760   -9.2380 H       1  UNL1        0.1270
@<TRIPOS>BOND
     1    26    27    2
     2    26    25    1
     3    27    28    1
     4    25    24    2
     5    34    30    2
     6    28    30    1
     7    28    29    2
     8    24    29    1
     9    24     1    1
    10    30    31   am
    11     2     3    1
    12     2     1    2
    13     3     4    2
    14     1     6    1
    15    31    32    1
    16    31    33    1
    17    36    35    1
    18     4    35    1
    19     4     5    1
    20     6     5    2
    21     6     7    1
    22    35    37    1
    23     7     8    1
    24     7    13    1
    25     8     9    1
    26    13    11    1
    27     9    10    1
    28    11    10    1
    29    11    12   am
    30    15    12    1
    31    15    16    1
    32    12    14    2
    33    18    19    1
    34    18    17    2
    35    19    20    2
    36    16    17    1
    37    17    23    1
    38    20    21    1
    39    20    22    1
    40    23    22    2
