@<TRIPOS>MOLECULE
83280_out_ligand_01.pdbqt
 38 41 0 0 0
SMALL
GASTEIGER

@<TRIPOS>ATOM
      1  C         19.2370  -22.2820  -10.5160 C.2     1  UNL1        0.0870
      2  C         20.6040  -22.6210  -10.5390 C.2     1  UNL1        0.0550
      3  C         21.4930  -21.9640  -11.3990 C.2     1  UNL1        0.0360
      4  C         21.0120  -20.9290  -12.2020 C.2     1  UNL1        0.0300
      5  C         19.6620  -20.5630  -12.1600 C.2     1  UNL1        0.0100
      6  C         18.7470  -21.2410  -11.3340 C.2     1  UNL1       -0.0390
      7  C         17.3130  -20.7960  -11.3600 C.3     1  UNL1        0.0500
      8  N         22.8280  -22.4090  -11.4040 N.am    1  UNL1       -0.3260
      9  C         23.8460  -22.0160  -10.5470 C.2     1  UNL1        0.2420
     10  O         23.7420  -21.2820   -9.5630 O.2     1  UNL1       -0.2710
     11  H         23.0630  -23.1150  -12.1050 H       1  UNL1        0.1690
     12  C         25.1960  -22.6390  -10.8900 C.3     1  UNL1        0.2550
     13  N         25.3170  -22.7570  -12.3310 N.ar    1  UNL1       -0.2450
     14  N         25.2480  -24.0560  -12.8340 N.ar    1  UNL1       -0.2600
     15  C         25.2810  -24.3380  -14.1780 C.ar    1  UNL1        0.2710
     16  H         24.9740  -24.8140  -12.2080 H       1  UNL1        0.1900
     17  O         25.1710  -25.4880  -14.5950 O.2     1  UNL1       -0.2660
     18  C         25.4480  -23.1940  -15.0970 C.ar    1  UNL1        0.0490
     19  C         25.5790  -23.4240  -16.4740 C.2     1  UNL1        0.0180
     20  C         25.4550  -21.8910  -14.6010 C.ar    1  UNL1        0.0490
     21  C         25.7320  -22.3430  -17.3520 C.2     1  UNL1        0.0010
     22  C         25.7440  -21.0390  -16.8580 C.2     1  UNL1        0.0010
     23  C         25.6010  -20.8090  -15.4850 C.2     1  UNL1        0.0180
     24  C         25.3240  -21.6400  -13.1500 C.ar    1  UNL1        0.2730
     25  O         25.2480  -20.4930  -12.7080 O.2     1  UNL1       -0.2660
     26  S         18.1840  -23.2320   -9.4170 S.O2    1  UNL1        0.2630
     27  O         17.0280  -23.6690  -10.1720 O.2     1  UNL1       -0.2000
     28  O         18.9970  -24.1970   -8.7090 O.2     1  UNL1       -0.2000
     29  N         17.6980  -22.0830   -8.2690 N.pl3   1  UNL1       -0.2800
     30  H         17.2500  -21.2760   -8.6920 H       1  UNL1        0.1790
     31  C         17.2570  -22.5170   -6.9840 C.2     1  UNL1        0.0480
     32  C         16.0880  -23.2810   -6.9000 C.2     1  UNL1        0.0310
     33  C         15.5770  -23.6630   -5.6620 C.2     1  UNL1        0.0090
     34  C         16.2380  -23.2970   -4.4860 C.2     1  UNL1       -0.0610
     35  C         15.6520  -23.6650   -3.1530 C.3     1  UNL1        0.0480
     36  C         17.4130  -22.5340   -4.5710 C.2     1  UNL1        0.0150
     37  C         17.9470  -22.1550   -5.8150 C.2     1  UNL1       -0.0340
     38  C         19.2000  -21.3200   -5.8280 C.3     1  UNL1        0.0500
@<TRIPOS>BOND
     1    21    22    2
     2    21    19    1
     3    22    23    1
     4    19    18    2
     5    23    20    2
     6    18    20   ar
     7    18    15   ar
     8    20    24   ar
     9    17    15    2
    10    15    14   ar
    11    24    25    2
    12    24    13   ar
    13    14    13   ar
    14    14    16    1
    15    13    12    1
    16     4     5    2
    17     4     3    1
    18     5     6    1
    19    11     8    1
    20     8     3    1
    21     8     9   am
    22     3     2    2
    23     7     6    1
    24     6     1    2
    25    12     9    1
    26     9    10    2
    27     2     1    1
    28     1    26    1
    29    27    26    2
    30    26    28    2
    31    26    29    1
    32    30    29    1
    33    29    31    1
    34    31    32    2
    35    31    37    1
    36    32    33    1
    37    38    37    1
    38    37    36    2
    39    33    34    2
    40    36    34    1
    41    34    35    1
