@<TRIPOS>MOLECULE
83307_out_ligand_01.pdbqt
 35 38 0 0 0
SMALL
GASTEIGER

@<TRIPOS>ATOM
      1  C         20.0680  -23.3570   -7.8280 C.2     1  UNL1        0.0320
      2  C         20.7480  -22.1840   -7.4870 C.2     1  UNL1        0.0190
      3  C         22.0240  -21.9270   -8.0020 C.2     1  UNL1        0.0300
      4  C         22.6410  -22.8440   -8.8540 C.2     1  UNL1        0.0340
      5  C         21.9640  -24.0270   -9.1800 C.2     1  UNL1        0.0300
      6  C         20.6860  -24.2880   -8.6700 C.2     1  UNL1        0.0190
      7  N         23.9230  -22.6660   -9.4070 N.am    1  UNL1       -0.3270
      8  C         24.2470  -22.0930  -10.6240 C.2     1  UNL1        0.2270
      9  O         23.4710  -21.6590  -11.4690 O.2     1  UNL1       -0.2730
     10  H         24.6990  -23.0500   -8.8730 H       1  UNL1        0.1690
     11  C         25.7390  -22.0410  -10.8590 C.3     1  UNL1        0.1650
     12  C         26.1180  -20.9860  -11.8710 C.ar    1  UNL1        0.0740
     13  N         26.3450  -19.7920  -11.4080 N.ar    1  UNL1       -0.1750
     14  N         26.6800  -18.8150  -12.2920 N.ar    1  UNL1       -0.2430
     15  C         26.7870  -18.9550  -13.6560 C.ar    1  UNL1        0.2720
     16  H         26.8170  -17.8810  -11.9160 H       1  UNL1        0.1920
     17  O         27.0580  -18.0130  -14.3910 O.2     1  UNL1       -0.2660
     18  C         26.5650  -20.3100  -14.1870 C.ar    1  UNL1        0.0460
     19  C         26.6920  -20.5560  -15.5600 C.2     1  UNL1        0.0180
     20  C         26.2430  -21.3400  -13.3050 C.ar    1  UNL1        0.0060
     21  C         26.5030  -21.8480  -16.0490 C.2     1  UNL1        0.0010
     22  C         26.1950  -22.8860  -15.1710 C.2     1  UNL1        0.0010
     23  C         26.0660  -22.6380  -13.8000 C.2     1  UNL1        0.0140
     24  C         18.7160  -23.5960   -7.2450 C.2     1  UNL1        0.2560
     25  N         18.1790  -22.5230   -6.5650 N.am    1  UNL1       -0.3210
     26  H         18.7570  -21.7040   -6.4100 H       1  UNL1        0.1690
     27  O         18.2090  -24.7020   -7.3890 O.2     1  UNL1       -0.2670
     28  C         16.9080  -22.4230   -5.9540 C.2     1  UNL1        0.0680
     29  C         15.7140  -22.3110   -6.6700 C.2     1  UNL1        0.0320
     30  C         14.4960  -22.2060   -5.9950 C.2     1  UNL1        0.0020
     31  C         14.4650  -22.2100   -4.6040 C.2     1  UNL1        0.0030
     32  C         15.6510  -22.3190   -3.8750 C.2     1  UNL1        0.0390
     33  C         16.8760  -22.4270   -4.5420 C.2     1  UNL1        0.0950
     34  O         18.1010  -22.5330   -3.9240 O.2     1  UNL1       -0.3540
     35  C         18.5320  -21.4170   -3.1550 C.3     1  UNL1        0.2100
@<TRIPOS>BOND
     1    21    19    1
     2    21    22    2
     3    19    18    2
     4    22    23    1
     5    17    15    2
     6    18    15   ar
     7    18    20   ar
     8    23    20    2
     9    15    14   ar
    10    20    12   ar
    11    14    16    1
    12    14    13   ar
    13    12    13   ar
    14    12    11    1
    15     9     8    2
    16    11     8    1
    17     8     7   am
    18     7    10    1
    19     7     4    1
    20     5     4    2
    21     5     6    1
    22     4     3    1
    23     6     1    2
    24     3     2    2
    25     1     2    1
    26     1    24    1
    27    27    24    2
    28    24    25   am
    29    29    30    1
    30    29    28    2
    31    25    26    1
    32    25    28    1
    33    30    31    2
    34    28    33    1
    35    31    32    1
    36    33    34    1
    37    33    32    2
    38    34    35    1
