@<TRIPOS>MOLECULE
83304_out_ligand_01.pdbqt
 37 39 0 0 0
SMALL
GASTEIGER

@<TRIPOS>ATOM
      1  C         15.5730  -22.4920   -9.6670 C.3     1  UNL1        0.0500
      2  C         17.0430  -22.7980   -9.5980 C.2     1  UNL1       -0.0390
      3  C         17.8790  -22.2750  -10.5940 C.2     1  UNL1        0.0100
      4  C         19.2550  -22.5220  -10.5830 C.2     1  UNL1        0.0300
      5  C         19.8360  -23.3070   -9.5830 C.2     1  UNL1        0.0360
      6  C         19.0130  -23.8580   -8.6020 C.2     1  UNL1        0.0540
      7  C         17.6290  -23.6040   -8.6030 C.2     1  UNL1        0.0830
      8  N         21.2340  -23.4810   -9.6400 N.am    1  UNL1       -0.3270
      9  C         22.2010  -22.8530   -8.8760 C.2     1  UNL1        0.2260
     10  O         21.9930  -22.0000   -8.0160 O.2     1  UNL1       -0.2730
     11  H         21.5630  -24.1650  -10.3100 H       1  UNL1        0.1690
     12  C         23.6360  -23.2330   -9.2290 C.3     1  UNL1        0.1410
     13  C         24.1680  -22.6560  -10.5220 C.2     1  UNL1       -0.0490
     14  C         23.8940  -23.2760  -11.7460 C.2     1  UNL1        0.0100
     15  C         24.3980  -22.7420  -12.9360 C.2     1  UNL1        0.0300
     16  C         25.1790  -21.5810  -12.9270 C.2     1  UNL1        0.0350
     17  C         25.4510  -20.9640  -11.7050 C.2     1  UNL1        0.0300
     18  C         24.9460  -21.4930  -10.5130 C.2     1  UNL1        0.0100
     19  N         25.6550  -21.1100  -14.1660 N.am    1  UNL1       -0.3140
     20  C         24.9190  -20.7670  -15.2680 C.2     1  UNL1        0.2960
     21  N         25.7110  -20.2920  -16.2730 N.am    1  UNL1       -0.2540
     22  O         23.7120  -20.8430  -15.4340 O.2     1  UNL1       -0.2540
     23  H         26.4440  -19.6530  -16.0000 H       1  UNL1        0.1280
     24  H         25.1590  -19.9560  -17.0540 H       1  UNL1        0.1280
     25  H         26.6510  -21.1560  -14.3200 H       1  UNL1        0.1700
     26  S         16.6640  -24.3350   -7.2890 S.O2    1  UNL1        0.2460
     27  O         15.5230  -25.0030   -7.8790 O.2     1  UNL1       -0.2060
     28  O         17.5380  -25.0540   -6.3880 O.2     1  UNL1       -0.2060
     29  N         16.0480  -22.9750   -6.4800 N.pl3   1  UNL1       -0.1810
     30  H         15.0680  -23.1300   -6.2470 H       1  UNL1        0.1460
     31  C         16.8710  -22.3830   -5.4810 C.2     1  UNL1        0.0240
     32  C         16.6050  -22.6170   -4.1310 C.2     1  UNL1        0.0240
     33  C         17.4470  -22.0830   -3.1530 C.2     1  UNL1        0.0030
     34  C         18.5570  -21.3240   -3.5280 C.2     1  UNL1        0.0240
     35  C         18.8190  -21.1040   -4.8800 C.2     1  UNL1        0.0350
     36 CL         20.1940  -20.1770   -5.3440 Cl      1  UNL1       -0.0840
     37  C         17.9810  -21.6290   -5.8610 C.2     1  UNL1        0.0480
@<TRIPOS>BOND
     1    24    21    1
     2    21    23    1
     3    21    20   am
     4    22    20    2
     5    20    19   am
     6    25    19    1
     7    19    16    1
     8    15    16    2
     9    15    14    1
    10    16    17    1
    11    14    13    2
    12    17    18    2
    13     3     4    1
    14     3     2    2
    15     4     5    2
    16    13    18    1
    17    13    12    1
    18    11     8    1
    19     1     2    1
    20     8     5    1
    21     8     9   am
    22     2     7    1
    23     5     6    1
    24    12     9    1
    25     9    10    2
    26     7     6    2
    27     7    26    1
    28    27    26    2
    29    26    29    1
    30    26    28    2
    31    29    30    1
    32    29    31    1
    33    37    31    2
    34    37    35    1
    35    31    32    1
    36    36    35    1
    37    35    34    2
    38    32    33    2
    39    34    33    1
