@<TRIPOS>MOLECULE
83477_out_ligand_01.pdbqt
 35 38 0 0 0
SMALL
GASTEIGER

@<TRIPOS>ATOM
      1  C         23.5450  -21.7320  -10.4490 C.ar    1  UNL1        0.1920
      2  N         24.7690  -21.2680  -10.5370 N.ar    1  UNL1       -0.1230
      3  N         25.0440  -21.0600  -11.8620 N.ar    1  UNL1       -0.1340
      4  C         23.9790  -21.3940  -12.5650 C.ar    1  UNL1        0.1350
      5  N         22.9870  -21.8060  -11.6980 N.ar    1  UNL1       -0.3110
      6  S         22.7370  -22.1710   -8.9890 S.3     1  UNL1       -0.0810
      7  C         22.2520  -23.8840   -9.3500 C.3     1  UNL1        0.1850
      8  C         21.0170  -24.2960   -8.5650 C.2     1  UNL1        0.2310
      9  N         20.4470  -23.2550   -7.8530 N.am    1  UNL1       -0.3270
     10  H         21.0170  -22.4150   -7.7420 H       1  UNL1        0.1690
     11  O         20.6040  -25.4540   -8.6140 O.2     1  UNL1       -0.2720
     12  C         19.2110  -23.2480   -7.1810 C.2     1  UNL1        0.0340
     13  C         18.8530  -22.0770   -6.5100 C.2     1  UNL1        0.0300
     14  C         17.6110  -21.9740   -5.8690 C.2     1  UNL1        0.0100
     15  C         16.6870  -23.0350   -5.8750 C.2     1  UNL1       -0.0510
     16  C         17.0700  -24.2030   -6.5540 C.2     1  UNL1        0.0100
     17  C         18.3120  -24.3110   -7.1960 C.2     1  UNL1        0.0300
     18  C         15.3050  -22.8860   -5.2140 C.3     1  UNL1       -0.0240
     19  C         15.5120  -22.4040   -3.7640 C.3     1  UNL1        0.0190
     20  C         14.3890  -21.8670   -5.9320 C.3     1  UNL1        0.0190
     21  C         14.5330  -24.2260   -5.1910 C.3     1  UNL1        0.0190
     22  C         21.6320  -22.2030  -12.0360 C.3     1  UNL1        0.1370
     23  C         20.6750  -21.0090  -12.0750 C.3     1  UNL1        0.0590
     24  C         19.3220  -21.3530  -11.5090 C.2     1  UNL1       -0.0570
     25  C         18.2700  -20.4280  -11.5640 C.2     1  UNL1        0.0070
     26  C         17.0190  -20.7480  -11.0350 C.2     1  UNL1        0.0010
     27  C         16.8060  -21.9940  -10.4500 C.2     1  UNL1        0.0000
     28  C         17.8450  -22.9210  -10.3890 C.2     1  UNL1        0.0010
     29  C         19.0980  -22.6020  -10.9160 C.2     1  UNL1        0.0070
     30  C         23.8750  -21.3420  -14.0550 C.3     1  UNL1        0.1260
     31  C         24.9550  -22.1150  -14.7590 C.2     1  UNL1       -0.0110
     32  C         25.4050  -23.4000  -14.5120 C.2     1  UNL1        0.0150
     33  C         26.4400  -23.7960  -15.4070 C.2     1  UNL1        0.0080
     34  C         26.7340  -22.8120  -16.3240 C.2     1  UNL1        0.0500
     35  S         25.7680  -21.4170  -16.1010 S.3     1  UNL1       -0.1060
@<TRIPOS>BOND
     1    34    35    1
     2    34    33    2
     3    35    31    1
     4    33    32    1
     5    31    32    2
     6    31    30    1
     7    30     4    1
     8     4     3   ar
     9     4     5   ar
    10    23    22    1
    11    23    24    1
    12    22     5    1
    13     3     2   ar
    14     5     1   ar
    15    25    24    2
    16    25    26    1
    17    24    29    1
    18    26    27    2
    19    29    28    2
    20     2     1   ar
    21    27    28    1
    22     1     6    1
    23     7     6    1
    24     7     8    1
    25    11     8    2
    26     8     9   am
    27     9    10    1
    28     9    12    1
    29    17    12    2
    30    17    16    1
    31    12    13    1
    32    16    15    2
    33    13    14    2
    34    20    18    1
    35    15    14    1
    36    15    18    1
    37    18    21    1
    38    18    19    1
