@<TRIPOS>MOLECULE
83639_out_ligand_01.pdbqt
 39 45 0 0 0
SMALL
GASTEIGER

@<TRIPOS>ATOM
      1  C         23.2480  -22.7960   -9.5540 C.ar    1  UNL1        0.2310
      2  N         23.2620  -22.1020   -8.4370 N.ar    1  UNL1       -0.1140
      3  N         21.9490  -21.9880   -8.0300 N.ar    1  UNL1       -0.1190
      4  C         21.2190  -22.6220   -8.9260 C.ar    1  UNL1        0.2240
      5  O         21.9890  -23.1620   -9.9300 O.2     1  UNL1       -0.2620
      6  C         19.7910  -22.8580   -8.9070 C.ar    1  UNL1        0.1430
      7  N         19.3560  -23.6740   -7.9910 N.ar    1  UNL1       -0.1640
      8  N         18.0060  -23.8800   -7.8300 N.ar    1  UNL1       -0.2290
      9  C         17.0270  -23.2320   -8.5690 C.ar    1  UNL1        0.2750
     10  O         15.8190  -23.3470   -8.3750 O.2     1  UNL1       -0.2660
     11  C         17.5050  -22.3630   -9.6590 C.ar    1  UNL1        0.0460
     12  C         16.5680  -21.7440  -10.5010 C.2     1  UNL1        0.0180
     13  C         18.8720  -22.1770   -9.8570 C.ar    1  UNL1        0.0150
     14  C         16.9970  -20.9450  -11.5560 C.2     1  UNL1        0.0010
     15  C         18.3580  -20.7720  -11.7770 C.2     1  UNL1        0.0010
     16  C         19.2940  -21.3910  -10.9390 C.2     1  UNL1        0.0150
     17  C         17.6160  -24.7050   -6.6870 C.3     1  UNL1        0.1930
     18  C         17.1240  -23.8680   -5.5280 C.2     1  UNL1       -0.0380
     19  C         17.9790  -22.9520   -4.8960 C.2     1  UNL1        0.0090
     20  C         17.5160  -22.1610   -3.8430 C.2     1  UNL1        0.0010
     21  C         16.1930  -22.2710   -3.4170 C.2     1  UNL1        0.0000
     22  C         15.3300  -23.1690   -4.0450 C.2     1  UNL1        0.0010
     23  C         15.7930  -23.9630   -5.0960 C.2     1  UNL1        0.0090
     24  S         24.6720  -23.1630  -10.4790 S.3     1  UNL1       -0.0730
     25  C         25.3740  -21.4910  -10.6270 C.3     1  UNL1        0.1850
     26  C         25.5860  -21.0870  -12.0780 C.2     1  UNL1        0.2280
     27  O         25.9220  -19.9450  -12.3740 O.2     1  UNL1       -0.2730
     28  N         25.3430  -22.0860  -13.0000 N.am    1  UNL1       -0.3510
     29  H         25.2870  -23.0280  -12.6250 H       1  UNL1        0.1630
     30  C         25.5800  -21.9660  -14.4420 C.3     1  UNL1        0.0340
     31  C         26.9220  -21.2510  -14.7470 C.3     1  UNL1        0.0350
     32  C         27.1190  -21.0950  -16.2640 C.3     1  UNL1       -0.0120
     33  C         27.1130  -22.4860  -16.9200 C.3     1  UNL1        0.0090
     34  C         25.9690  -20.2550  -16.8420 C.3     1  UNL1        0.0090
     35  C         25.7710  -23.1920  -16.6570 C.3     1  UNL1       -0.0120
     36  C         24.6290  -22.3400  -17.2340 C.3     1  UNL1        0.0090
     37  C         25.5700  -23.3500  -15.1400 C.3     1  UNL1        0.0350
     38  C         24.6250  -20.9510  -16.5740 C.3     1  UNL1       -0.0120
     39  C         24.4370  -21.1120  -15.0580 C.3     1  UNL1        0.0350
@<TRIPOS>BOND
     1    36    35    1
     2    36    38    1
     3    33    35    1
     4    33    32    1
     5    34    38    1
     6    34    32    1
     7    35    37    1
     8    38    39    1
     9    32    31    1
    10    37    30    1
    11    39    30    1
    12    31    30    1
    13    30    28    1
    14    28    29    1
    15    28    26   am
    16    27    26    2
    17    26    25    1
    18    15    14    2
    19    15    16    1
    20    14    12    1
    21    16    13    2
    22    25    24    1
    23    12    11    2
    24    24     1    1
    25     5     1   ar
    26     5     4   ar
    27    13    11   ar
    28    13     6   ar
    29    11     9   ar
    30     1     2   ar
    31     4     6    1
    32     4     3   ar
    33     6     7   ar
    34     9    10    2
    35     9     8   ar
    36     2     3   ar
    37     7     8   ar
    38     8    17    1
    39    17    18    1
    40    18    23    2
    41    18    19    1
    42    23    22    1
    43    19    20    2
    44    22    21    2
    45    20    21    1
