@<TRIPOS>MOLECULE
83870_out_ligand_01.pdbqt
 34 37 0 0 0
SMALL
GASTEIGER

@<TRIPOS>ATOM
      1  N         20.8140  -23.1430   -9.7110 N.ar    1  UNL1       -0.2900
      2  C         22.1620  -22.9770  -10.0170 C.ar    1  UNL1        0.3330
      3  O         23.0330  -23.5780   -9.3800 O.2     1  UNL1       -0.2460
      4  N         22.4690  -22.1170  -11.0570 N.ar    1  UNL1       -0.2570
      5  C         21.5280  -21.5560  -11.9030 C.ar    1  UNL1        0.2640
      6  O         21.8220  -21.0350  -12.9780 O.2     1  UNL1       -0.2670
      7  C         20.1180  -21.6620  -11.5050 C.ar    1  UNL1        0.0590
      8  C         19.1360  -20.9880  -12.2500 C.2     1  UNL1        0.0190
      9  C         17.7980  -21.0740  -11.8770 C.2     1  UNL1        0.0010
     10  C         17.4490  -21.8230  -10.7580 C.2     1  UNL1        0.0020
     11  C         18.4330  -22.4960  -10.0220 C.2     1  UNL1        0.0310
     12  C         19.7850  -22.4400  -10.3950 C.ar    1  UNL1        0.0550
     13  C         20.5170  -24.0360   -8.5930 C.3     1  UNL1        0.2370
     14  C         19.7260  -23.2680   -7.5270 C.2     1  UNL1        0.2400
     15  O         20.2060  -22.2740   -6.9830 O.2     1  UNL1       -0.2710
     16  N         18.5090  -23.8700   -7.2300 N.am    1  UNL1       -0.3260
     17  H         18.3380  -24.7820   -7.6560 H       1  UNL1        0.1690
     18  C         17.5350  -23.4400   -6.3090 C.2     1  UNL1        0.0350
     19  C         17.6760  -23.5440   -4.9200 C.2     1  UNL1        0.0320
     20  C         16.6590  -23.0880   -4.0740 C.2     1  UNL1        0.0440
     21  C         15.5100  -22.5240   -4.6180 C.2     1  UNL1        0.1160
     22  F         14.5440  -22.0830   -3.8050 F       1  UNL1       -0.2060
     23  C         15.3500  -22.4080   -5.9970 C.2     1  UNL1        0.0440
     24  C         16.3610  -22.8690   -6.8420 C.2     1  UNL1        0.0320
     25  C         23.8820  -21.9220  -11.3770 C.3     1  UNL1        0.2390
     26  C         24.3370  -22.7750  -12.5640 C.2     1  UNL1        0.2360
     27  O         24.5140  -23.9870  -12.4650 O.2     1  UNL1       -0.2720
     28  N         24.6540  -22.0610  -13.7060 N.am    1  UNL1       -0.3550
     29  H         24.8750  -21.0790  -13.5560 H       1  UNL1        0.1620
     30  C         25.2330  -22.6990  -14.8680 C.3     1  UNL1        0.0840
     31  C         26.5400  -22.0220  -15.2820 C.3     1  UNL1        0.0250
     32  C         26.6560  -22.3500  -16.7570 C.3     1  UNL1        0.0020
     33  C         25.2340  -22.1620  -17.2600 C.3     1  UNL1        0.0020
     34  C         24.3380  -22.6320  -16.1160 C.3     1  UNL1        0.0250
@<TRIPOS>BOND
     1    33    32    1
     2    33    34    1
     3    32    31    1
     4    34    30    1
     5    31    30    1
     6    30    28    1
     7    28    29    1
     8    28    26   am
     9     6     5    2
    10    26    27    2
    11    26    25    1
    12     8     9    1
    13     8     7    2
    14     5     7   ar
    15     5     4   ar
    16     9    10    2
    17     7    12   ar
    18    25     4    1
    19     4     2   ar
    20    10    11    1
    21    12    11    2
    22    12     1   ar
    23     2     1   ar
    24     2     3    2
    25     1    13    1
    26    13    14    1
    27    17    16    1
    28    14    16   am
    29    14    15    2
    30    16    18    1
    31    24    18    2
    32    24    23    1
    33    18    19    1
    34    23    21    2
    35    19    20    2
    36    21    20    1
    37    21    22    1
