@<TRIPOS>MOLECULE
83921_out_ligand_01.pdbqt
 32 35 0 0 0
SMALL
GASTEIGER

@<TRIPOS>ATOM
      1  C         26.6660  -22.8120  -13.5960 C.3     1  UNL1        0.0480
      2  C         25.2910  -22.2110  -13.5420 C.2     1  UNL1       -0.0610
      3  C         24.9070  -21.2380  -14.4700 C.2     1  UNL1        0.0090
      4  C         23.6230  -20.6820  -14.4590 C.2     1  UNL1        0.0310
      5  C         22.7270  -21.1440  -13.4890 C.2     1  UNL1        0.0430
      6  N         21.4200  -20.7880  -13.2410 N.pl3   1  UNL1       -0.3520
      7  C         20.9180  -21.5080  -12.1870 C.2     1  UNL1        0.0890
      8  C         19.5830  -21.3460  -11.7110 C.2     1  UNL1        0.2230
      9  N         19.0710  -22.0250  -10.7060 N.2     1  UNL1       -0.2030
     10  C         17.7910  -21.5440  -10.6370 C.2     1  UNL1        0.1580
     11  N         17.4970  -20.5930  -11.5340 N.4     1  UNL1       -0.1110
     12  O         18.6830  -20.4630  -12.2550 O.2     1  UNL1       -0.1890
     13  C         21.9210  -22.3450  -11.7450 C.2     1  UNL1        0.0480
     14  C         23.0670  -22.1230  -12.5570 C.2     1  UNL1       -0.0070
     15  C         24.3660  -22.6680  -12.5880 C.2     1  UNL1        0.0200
     16  H         20.9090  -20.0940  -13.7690 H       1  UNL1        0.1660
     17  C         16.8160  -22.0200   -9.6260 C.3     1  UNL1        0.1030
     18  C         16.8290  -23.5390   -9.4240 C.3     1  UNL1        0.1330
     19  N         16.7040  -23.9690   -8.0200 N.am    1  UNL1       -0.3520
     20  C         15.4000  -24.4460   -7.5860 C.3     1  UNL1        0.1520
     21  C         17.7820  -24.2410   -7.1800 C.2     1  UNL1        0.2540
     22  O         17.7000  -24.8470   -6.1160 O.2     1  UNL1       -0.2670
     23  C         19.1220  -23.7720   -7.5770 C.2     1  UNL1        0.0470
     24  C         19.8790  -24.6020   -8.4120 C.2     1  UNL1        0.0180
     25  C         21.1560  -24.2060   -8.8080 C.2     1  UNL1        0.0010
     26  C         21.6770  -22.9940   -8.3620 C.2     1  UNL1        0.0010
     27  C         20.9290  -22.1790   -7.5080 C.2     1  UNL1        0.0170
     28  C         19.6430  -22.5620   -7.0900 C.2     1  UNL1        0.0630
     29  C         18.8450  -21.6870   -6.1590 C.3     1  UNL1        0.4180
     30  F         17.6300  -21.3220   -6.6430 F       1  UNL1       -0.1660
     31  F         18.5910  -22.2890   -4.9600 F       1  UNL1       -0.1660
     32  F         19.4990  -20.5330   -5.8450 F       1  UNL1       -0.1660
@<TRIPOS>BOND
     1     3     4    1
     2     3     2    2
     3     4     5    2
     4    16     6    1
     5     1     2    1
     6     2    15    1
     7     5     6    1
     8     5    14    1
     9     6     7    1
    10    15    14    2
    11    14    13    1
    12    12     8    1
    13    12    11    1
    14     7    13    2
    15     7     8    1
    16     8     9    2
    17    11    10    1
    18     9    10    2
    19    10    17    1
    20    17    18    1
    21    18    19    1
    22    25    24    1
    23    25    26    2
    24    24    23    2
    25    26    27    1
    26    19    20    1
    27    19    21   am
    28    23    21    1
    29    23    28    1
    30    27    28    2
    31    21    22    2
    32    28    29    1
    33    30    29    1
    34    29    32    1
    35    29    31    1
