@<TRIPOS>MOLECULE
84158_out_ligand_01.pdbqt
 37 41 0 0 0
SMALL
GASTEIGER

@<TRIPOS>ATOM
      1  N         24.2000  -22.5890  -10.6760 N.ar    1  UNL1       -0.2880
      2  C         23.3230  -22.0240  -11.5910 C.ar    1  UNL1        0.1720
      3  N         23.4300  -22.1450  -12.8730 N.ar    1  UNL1       -0.2240
      4  C         24.4890  -22.8920  -13.3930 C.ar    1  UNL1        0.0750
      5  C         24.5840  -23.0590  -14.7770 C.2     1  UNL1        0.0320
      6  C         25.6370  -23.7920  -15.3330 C.2     1  UNL1        0.0020
      7  C         26.6030  -24.3620  -14.5060 C.2     1  UNL1        0.0010
      8  C         26.5160  -24.2020  -13.1240 C.2     1  UNL1        0.0190
      9  C         25.4560  -23.4680  -12.5780 C.ar    1  UNL1        0.0610
     10  C         25.3210  -23.2850  -11.1250 C.ar    1  UNL1        0.2620
     11  O         26.1970  -23.7380  -10.3910 O.2     1  UNL1       -0.2670
     12  C         24.0460  -22.4910   -9.2180 C.3     1  UNL1        0.1730
     13  C         22.6340  -22.8090   -8.7580 C.2     1  UNL1       -0.0400
     14  C         22.0160  -24.0180   -9.1100 C.2     1  UNL1        0.0100
     15  C         20.7220  -24.3170   -8.6700 C.2     1  UNL1        0.0170
     16  C         20.0260  -23.4050   -7.8670 C.2     1  UNL1        0.0320
     17  C         20.6220  -22.1850   -7.5380 C.2     1  UNL1        0.0170
     18  C         21.9160  -21.8910   -7.9760 C.2     1  UNL1        0.0100
     19  C         18.6530  -23.6820   -7.3640 C.2     1  UNL1        0.2510
     20  O         18.2660  -24.8350   -7.2170 O.2     1  UNL1       -0.2680
     21  N         17.8610  -22.5800   -7.1170 N.am    1  UNL1       -0.3540
     22  H         18.1480  -21.6920   -7.5060 H       1  UNL1        0.1620
     23  C         16.4570  -22.7210   -6.7710 C.3     1  UNL1        0.1550
     24  C         16.1460  -22.5780   -5.2800 C.3     1  UNL1        0.1390
     25  C         15.5880  -23.8360   -4.6350 C.3     1  UNL1        0.0350
     26  C         15.9540  -23.6240   -3.1880 C.3     1  UNL1        0.0290
     27  C         17.3180  -22.9760   -3.2980 C.3     1  UNL1        0.1680
     28  O         17.3600  -22.2850   -4.5550 O.3     1  UNL1       -0.3840
     29  S         21.9790  -21.0710  -10.9930 S.3     1  UNL1       -0.0870
     30  C         20.7450  -21.4060  -12.2830 C.3     1  UNL1        0.1210
     31  C         19.3670  -21.5730  -11.6850 C.2     1  UNL1       -0.0480
     32  C         18.5020  -20.4700  -11.5720 C.2     1  UNL1        0.0110
     33  C         17.2370  -20.6180  -11.0010 C.2     1  UNL1        0.0430
     34  C         16.8350  -21.8700  -10.5440 C.2     1  UNL1        0.1160
     35  F         15.6210  -22.0160   -9.9960 F       1  UNL1       -0.2060
     36  C         17.6740  -22.9720  -10.6460 C.2     1  UNL1        0.0430
     37  C         18.9420  -22.8270  -11.2120 C.2     1  UNL1        0.0110
@<TRIPOS>BOND
     1     6     5    1
     2     6     7    2
     3     5     4    2
     4     7     8    1
     5     4     3   ar
     6     4     9   ar
     7     8     9    2
     8     3     2   ar
     9     9    10   ar
    10    30    31    1
    11    30    29    1
    12    31    32    2
    13    31    37    1
    14     2    29    1
    15     2     1   ar
    16    32    33    1
    17    37    36    2
    18    10     1   ar
    19    10    11    2
    20    33    34    2
    21     1    12    1
    22    36    34    1
    23    34    35    1
    24    12    13    1
    25    14    13    2
    26    14    15    1
    27    13    18    1
    28    15    16    2
    29    18    17    2
    30    16    17    1
    31    16    19    1
    32    22    21    1
    33    19    20    2
    34    19    21   am
    35    21    23    1
    36    23    24    1
    37    24    25    1
    38    24    28    1
    39    25    26    1
    40    28    27    1
    41    27    26    1
