@<TRIPOS>MOLECULE
84397_out_ligand_01.pdbqt
 32 37 0 0 0
SMALL
GASTEIGER

@<TRIPOS>ATOM
      1  C         23.2830  -21.5940  -13.0510 C.2     1  UNL1        0.1900
      2  N         24.3690  -22.2130  -12.5660 N.2     1  UNL1       -0.2090
      3  C         24.2920  -22.8930  -11.4030 C.3     1  UNL1        0.1260
      4  C         23.0550  -22.9160  -10.7490 C.ar    1  UNL1        0.0770
      5  S         22.6140  -23.6700   -9.2700 S.2     1  UNL1       -0.0640
      6  C         21.0110  -23.1150   -9.3820 C.ar    1  UNL1        0.1120
      7  N         20.1200  -23.4100   -8.4100 N.ar    1  UNL1       -0.2390
      8  C         18.8730  -22.9110   -8.5820 C.ar    1  UNL1        0.0750
      9  C         18.5190  -22.1790   -9.7030 C.ar    1  UNL1       -0.0210
     10  C         19.4710  -21.8960  -10.6910 C.ar    1  UNL1       -0.0340
     11  C         20.7810  -22.3700  -10.5310 C.ar    1  UNL1        0.0370
     12  C         21.9760  -22.2510  -11.3170 C.ar    1  UNL1        0.0930
     13  N         22.0730  -21.5730  -12.4870 N.pl3   1  UNL1       -0.2210
     14  C         18.8680  -21.0670  -11.7920 C.3     1  UNL1        0.0400
     15  C         17.3760  -21.3330  -11.5750 C.3     1  UNL1        0.0090
     16  C         17.1940  -21.5780  -10.0710 C.3     1  UNL1        0.0420
     17  N         25.4090  -23.5560  -10.9020 N.3     1  UNL1       -0.2700
     18  H         25.4270  -23.5900   -9.8860 H       1  UNL1        0.1290
     19  C         26.6870  -23.1660  -11.4830 C.3     1  UNL1        0.1590
     20  C         26.8410  -23.6230  -12.8940 C.2     1  UNL1        0.0650
     21  C         27.1210  -22.9760  -14.0790 C.2     1  UNL1        0.0360
     22  C         27.1210  -23.9700  -15.0870 C.2     1  UNL1        0.0270
     23  C         26.8390  -25.1570  -14.4550 C.2     1  UNL1        0.1420
     24  O         26.6640  -24.9590  -13.1240 O.2     1  UNL1       -0.3260
     25  S         23.5150  -20.7310  -14.5910 S.3     1  UNL1       -0.0950
     26  C         25.1530  -20.0150  -14.3160 C.3     1  UNL1        0.0990
     27  C         17.9320  -23.2300   -7.4940 C.2     1  UNL1       -0.0070
     28  C         16.8870  -24.1560   -7.6660 C.2     1  UNL1        0.0140
     29  C         16.0040  -24.4500   -6.6220 C.2     1  UNL1        0.0010
     30  C         16.1460  -23.8180   -5.3890 C.2     1  UNL1        0.0000
     31  C         17.1630  -22.8850   -5.2010 C.2     1  UNL1        0.0010
     32  C         18.0440  -22.5930   -6.2460 C.2     1  UNL1        0.0140
@<TRIPOS>BOND
     1    22    23    2
     2    22    21    1
     3    25    26    1
     4    25     1    1
     5    23    24    1
     6    21    20    2
     7    24    20    1
     8     1     2    2
     9     1    13    1
    10    20    19    1
    11     2     3    1
    12    13    12    1
    13    14    15    1
    14    14    10    1
    15    15    16    1
    16    19    17    1
    17     3    17    1
    18     3     4    1
    19    12     4   ar
    20    12    11   ar
    21    17    18    1
    22     4     5   ar
    23    10    11   ar
    24    10     9   ar
    25    11     6   ar
    26    16     9    1
    27     9     8   ar
    28     6     5   ar
    29     6     7   ar
    30     8     7   ar
    31     8    27    1
    32    28    27    2
    33    28    29    1
    34    27    32    1
    35    29    30    2
    36    32    31    2
    37    30    31    1
