@<TRIPOS>MOLECULE
84699_out_ligand_01.pdbqt
 33 37 0 0 0
SMALL
GASTEIGER

@<TRIPOS>ATOM
      1  C         24.5800  -21.7800  -12.3320 C.2     1  UNL1        0.1260
      2  N         24.3470  -21.3220  -13.5850 N.2     1  UNL1       -0.2280
      3  C         23.0820  -21.1000  -13.9650 C.2     1  UNL1        0.2350
      4  N         21.9750  -21.2480  -13.2370 N.2     1  UNL1       -0.2400
      5  C         22.1990  -21.6790  -11.9670 C.ar    1  UNL1        0.0920
      6  C         23.4760  -21.9440  -11.4830 C.ar    1  UNL1        0.0770
      7  S         23.4220  -22.4370   -9.8370 S.2     1  UNL1       -0.0640
      8  C         21.7280  -22.3210   -9.7790 C.ar    1  UNL1        0.1120
      9  N         21.0660  -22.6060   -8.6360 N.ar    1  UNL1       -0.2390
     10  C         19.7200  -22.4770   -8.6880 C.ar    1  UNL1        0.0750
     11  C         19.0550  -22.0770   -9.8360 C.ar    1  UNL1       -0.0210
     12  C         19.7810  -21.7830  -10.9990 C.ar    1  UNL1       -0.0340
     13  C         21.1780  -21.9080  -10.9850 C.ar    1  UNL1        0.0370
     14  C         18.8660  -21.3050  -12.0940 C.3     1  UNL1        0.0400
     15  C         17.5070  -21.7900  -11.5810 C.3     1  UNL1        0.0090
     16  C         17.5980  -21.7990  -10.0490 C.3     1  UNL1        0.0420
     17  N         25.9110  -22.0190  -11.9000 N.pl3   1  UNL1       -0.2620
     18  C         26.8020  -21.0550  -12.5970 C.3     1  UNL1        0.1280
     19  C         26.2840  -19.6230  -12.3480 C.3     1  UNL1        0.1270
     20  C         27.1200  -18.8920  -11.3120 C.3     1  UNL1        0.0400
     21  O         26.3290  -18.8830  -13.5720 O.3     1  UNL1       -0.3950
     22  H         27.0470  -18.2280  -13.4420 H       1  UNL1        0.2100
     23  C         26.2610  -23.4440  -12.1610 C.3     1  UNL1        0.1280
     24  C         25.8960  -23.9060  -13.5920 C.3     1  UNL1        0.1270
     25  C         27.1210  -24.2350  -14.4360 C.3     1  UNL1        0.0400
     26  O         24.9970  -25.0160  -13.5650 O.3     1  UNL1       -0.3950
     27  H         25.2070  -25.5530  -12.7830 H       1  UNL1        0.2100
     28  C         19.0320  -22.7700   -7.4210 C.2     1  UNL1       -0.0070
     29  C         18.4060  -24.0120   -7.2230 C.2     1  UNL1        0.0140
     30  C         17.7490  -24.3080   -6.0260 C.2     1  UNL1        0.0010
     31  C         17.6990  -23.3580   -5.0080 C.2     1  UNL1        0.0000
     32  C         18.2960  -22.1140   -5.1900 C.2     1  UNL1        0.0010
     33  C         18.9530  -21.8210   -6.3880 C.2     1  UNL1        0.0140
@<TRIPOS>BOND
     1    25    24    1
     2     3     2    1
     3     3     4    2
     4    24    26    1
     5    24    23    1
     6     2     1    2
     7    21    22    1
     8    21    19    1
     9    26    27    1
    10     4     5    1
    11    18    19    1
    12    18    17    1
    13    19    20    1
    14     1    17    1
    15     1     6    1
    16    23    17    1
    17    14    15    1
    18    14    12    1
    19     5     6   ar
    20     5    13   ar
    21    15    16    1
    22     6     7   ar
    23    12    13   ar
    24    12    11   ar
    25    13     8   ar
    26    16    11    1
    27     7     8   ar
    28    11    10   ar
    29     8     9   ar
    30    10     9   ar
    31    10    28    1
    32    28    29    2
    33    28    33    1
    34    29    30    1
    35    33    32    2
    36    30    31    2
    37    32    31    1
