@<TRIPOS>MOLECULE
84704_out_ligand_01.pdbqt
 33 38 0 0 0
SMALL
GASTEIGER

@<TRIPOS>ATOM
      1  C         23.2460  -21.7780  -13.1680 C.2     1  UNL1        0.1900
      2  N         24.3830  -22.2860  -12.6710 N.2     1  UNL1       -0.2090
      3  C         24.3940  -22.8300  -11.4380 C.3     1  UNL1        0.1260
      4  C         23.1880  -22.8450  -10.7290 C.ar    1  UNL1        0.0770
      5  S         22.8490  -23.4550   -9.1570 S.2     1  UNL1       -0.0640
      6  C         21.2140  -23.0050   -9.2570 C.ar    1  UNL1        0.1120
      7  N         20.3800  -23.2420   -8.2220 N.ar    1  UNL1       -0.2390
      8  C         19.0960  -22.8510   -8.3970 C.ar    1  UNL1        0.0750
      9  C         18.6580  -22.2400   -9.5620 C.ar    1  UNL1       -0.0210
     10  C         19.5580  -22.0030  -10.6110 C.ar    1  UNL1       -0.0340
     11  C         20.8960  -22.4010  -10.4660 C.ar    1  UNL1        0.0370
     12  C         22.0490  -22.3050  -11.3140 C.ar    1  UNL1        0.0930
     13  N         22.0610  -21.7590  -12.5560 N.pl3   1  UNL1       -0.2210
     14  C         18.8830  -21.2750  -11.7390 C.3     1  UNL1        0.0400
     15  C         17.4080  -21.5250  -11.4190 C.3     1  UNL1        0.0090
     16  C         17.3120  -21.6690   -9.8940 C.3     1  UNL1        0.0420
     17  N         25.5730  -23.3370  -10.9000 N.3     1  UNL1       -0.2720
     18  H         25.4870  -24.2930  -10.5720 H       1  UNL1        0.1290
     19  C         26.7850  -23.0560  -11.6490 C.3     1  UNL1        0.1320
     20  C         26.8650  -21.5700  -11.9110 C.2     1  UNL1       -0.0450
     21  C         26.7140  -20.6470  -10.8670 C.2     1  UNL1        0.0080
     22  C         26.7740  -19.2750  -11.1210 C.2     1  UNL1        0.0010
     23  C         26.9770  -18.8140  -12.4200 C.2     1  UNL1        0.0000
     24  C         27.1200  -19.7220  -13.4680 C.2     1  UNL1        0.0010
     25  C         27.0620  -21.0920  -13.2150 C.2     1  UNL1        0.0080
     26  S         23.3600  -21.1040  -14.8120 S.3     1  UNL1       -0.0950
     27  C         24.5390  -22.2620  -15.5480 C.3     1  UNL1        0.0990
     28  C         18.2190  -23.1040   -7.2450 C.2     1  UNL1       -0.0070
     29  C         18.3330  -22.3650   -6.0560 C.2     1  UNL1        0.0140
     30  C         17.4930  -22.6160   -4.9680 C.2     1  UNL1        0.0010
     31  C         16.5180  -23.6060   -5.0540 C.2     1  UNL1        0.0000
     32  C         16.3760  -24.3390   -6.2290 C.2     1  UNL1        0.0010
     33  C         17.2160  -24.0870   -7.3150 C.2     1  UNL1        0.0140
@<TRIPOS>BOND
     1    27    26    1
     2    26     1    1
     3    24    25    1
     4    24    23    2
     5    25    20    2
     6     1     2    2
     7     1    13    1
     8     2     3    1
     9    13    12    1
    10    23    22    1
    11    20    19    1
    12    20    21    1
    13    14    15    1
    14    14    10    1
    15    19    17    1
    16     3    17    1
    17     3     4    1
    18    15    16    1
    19    12     4   ar
    20    12    11   ar
    21    22    21    2
    22    17    18    1
    23     4     5   ar
    24    10    11   ar
    25    10     9   ar
    26    11     6   ar
    27    16     9    1
    28     9     8   ar
    29     6     5   ar
    30     6     7   ar
    31     8     7   ar
    32     8    28    1
    33    33    28    2
    34    33    32    1
    35    28    29    1
    36    32    31    2
    37    29    30    2
    38    31    30    1
