@<TRIPOS>MOLECULE
889_out_ligand_01.pdbqt
 34 36 0 0 0
SMALL
GASTEIGER

@<TRIPOS>ATOM
      1  C         20.7840  -21.9940   -7.3040 C.2     1  UNL1        0.0360
      2  C         20.7060  -21.0240   -6.2940 C.2     1  UNL1        0.0290
      3  C         19.5280  -20.8380   -5.5670 C.2     1  UNL1        0.0040
      4  C         18.4110  -21.6220   -5.8440 C.2     1  UNL1        0.0250
      5  C         18.4870  -22.5880   -6.8480 C.2     1  UNL1        0.0820
      6  C         19.6670  -22.7840   -7.5740 C.2     1  UNL1        0.0540
      7  S         17.0650  -23.5980   -7.1870 S.O2    1  UNL1        0.2630
      8  O         15.9020  -22.7780   -6.9210 O.2     1  UNL1       -0.2000
      9  O         17.2360  -24.8830   -6.5510 O.2     1  UNL1       -0.2000
     10  N         17.1100  -23.8070   -8.8450 N.pl3   1  UNL1       -0.2810
     11  H         16.6510  -24.6620   -9.1510 H       1  UNL1        0.1790
     12  C         17.4040  -22.7870   -9.7920 C.2     1  UNL1        0.0430
     13  C         16.4880  -21.8310  -10.2240 C.2     1  UNL1        0.0300
     14  C         16.8680  -20.8470  -11.1390 C.2     1  UNL1        0.0030
     15  C         18.1800  -20.7950  -11.6040 C.2     1  UNL1        0.0160
     16  C         19.1300  -21.7100  -11.1440 C.2     1  UNL1        0.0500
     17  C         18.7270  -22.7080  -10.2390 C.2     1  UNL1        0.0460
     18  C         20.5540  -21.6450  -11.6260 C.3     1  UNL1        0.4170
     19  F         20.6540  -21.1130  -12.8740 F       1  UNL1       -0.1660
     20  F         21.1460  -22.8680  -11.6920 F       1  UNL1       -0.1660
     21  F         21.3530  -20.8890  -10.8300 F       1  UNL1       -0.1660
     22  N         22.0110  -22.1150   -7.9870 N.am    1  UNL1       -0.3250
     23  C         22.4560  -23.1740   -8.7570 C.2     1  UNL1        0.2460
     24  O         21.8430  -24.2080   -9.0040 O.2     1  UNL1       -0.2710
     25  H         22.6270  -21.3060   -7.9710 H       1  UNL1        0.1690
     26  C         23.8780  -22.9600   -9.2970 C.3     1  UNL1        0.2780
     27  O         24.0180  -23.1090  -10.7040 O.2     1  UNL1       -0.3420
     28  C         24.6470  -22.1120  -11.4000 C.2     1  UNL1        0.0690
     29  C         24.2400  -21.9980  -12.7310 C.2     1  UNL1        0.0380
     30  C         24.8250  -21.0540  -13.5760 C.2     1  UNL1        0.0220
     31  C         25.8260  -20.2210  -13.0840 C.2     1  UNL1        0.0110
     32 BR         26.6520  -18.9640  -14.2280 Br      1  UNL1       -0.0510
     33  C         26.2340  -20.3170  -11.7560 C.2     1  UNL1        0.0220
     34  C         25.6420  -21.2620  -10.9120 C.2     1  UNL1        0.0380
@<TRIPOS>BOND
     1    32    31    1
     2    30    31    2
     3    30    29    1
     4    31    33    1
     5    19    18    1
     6    29    28    2
     7    33    34    2
     8    20    18    1
     9    18    16    1
    10    18    21    1
    11    15    16    2
    12    15    14    1
    13    28    34    1
    14    28    27    1
    15    16    17    1
    16    14    13    2
    17    27    26    1
    18    17    12    2
    19    13    12    1
    20    12    10    1
    21    26    23    1
    22    11    10    1
    23    24    23    2
    24    10     7    1
    25    23    22   am
    26    22    25    1
    27    22     1    1
    28     6     1    2
    29     6     5    1
    30     1     2    1
    31     7     8    2
    32     7     5    1
    33     7     9    2
    34     5     4    2
    35     2     3    2
    36     4     3    1
