@<TRIPOS>MOLECULE
9102_out_ligand_01.pdbqt
 33 36 0 0 0
SMALL
GASTEIGER

@<TRIPOS>ATOM
      1  C         19.8740  -21.5170  -11.9340 C.2     1  UNL1       -0.0350
      2  C         19.1530  -20.4080  -11.4840 C.2     1  UNL1        0.0140
      3  C         18.0270  -20.5890  -10.6760 C.2     1  UNL1        0.0370
      4  C         17.6060  -21.8720  -10.3160 C.2     1  UNL1        0.0680
      5  C         18.3290  -22.9780  -10.7620 C.2     1  UNL1        0.0370
      6  C         19.4570  -22.8010  -11.5710 C.2     1  UNL1        0.0140
      7  C         21.0410  -21.3370  -12.7990 C.3     1  UNL1        0.0320
      8  C         22.3130  -21.6990  -12.5440 C.ar    1  UNL1        0.0820
      9  C         23.3500  -21.3690  -13.6190 C.ar    1  UNL1        0.2830
     10  C         22.7970  -22.3760  -11.2880 C.ar    1  UNL1        0.1660
     11  N         24.6660  -21.7740  -13.4330 N.ar    1  UNL1       -0.1890
     12  O         23.0170  -20.7610  -14.6320 O.2     1  UNL1       -0.2650
     13  C         24.9940  -22.3250  -12.3150 C.ar    1  UNL1        0.1630
     14  C         26.3240  -22.8280  -11.9920 C.2     1  UNL1        0.0870
     15  N         24.1440  -22.5460  -11.2860 N.ar    1  UNL1       -0.1790
     16  C         26.0940  -23.3730  -10.7900 C.2     1  UNL1        0.0770
     17  C         27.0830  -24.0740   -9.9270 C.3     1  UNL1        0.0790
     18  O         24.7810  -23.2850  -10.2960 O.3     1  UNL1       -0.2320
     19  N         22.0170  -22.7570  -10.3250 N.pl3   1  UNL1       -0.2810
     20  H         22.5600  -22.7850   -9.4550 H       1  UNL1        0.1880
     21  O         16.4910  -21.9050   -9.5270 O.2     1  UNL1       -0.3510
     22  C         15.8360  -23.1610   -9.3780 C.3     1  UNL1        0.1780
     23  C         15.6120  -23.4540   -7.8930 C.3     1  UNL1        0.0530
     24  C         16.2850  -24.7500   -7.4420 C.3     1  UNL1        0.1780
     25  O         17.0070  -24.5200   -6.2260 O.2     1  UNL1       -0.3510
     26  C         18.0000  -23.5960   -6.4280 C.2     1  UNL1        0.0750
     27  C         18.9600  -23.8760   -7.4020 C.2     1  UNL1        0.0370
     28  C         19.9910  -22.9730   -7.6350 C.2     1  UNL1        0.0030
     29  C         20.0640  -21.7970   -6.8900 C.2     1  UNL1        0.0070
     30  C         19.1140  -21.5150   -5.8910 C.2     1  UNL1       -0.0530
     31  C         19.2550  -20.2460   -5.0950 C.3     1  UNL1        0.0490
     32  C         18.0790  -22.4410   -5.6330 C.2     1  UNL1       -0.0230
     33  C         17.0620  -22.1810   -4.5540 C.3     1  UNL1        0.0520
@<TRIPOS>BOND
     1    12     9    2
     2     9    11   ar
     3     9     8   ar
     4    11    13   ar
     5     7     8    1
     6     7     1    1
     7     8    10   ar
     8    13    14    1
     9    13    15   ar
    10    14    16    2
    11     1     6    2
    12     1     2    1
    13     6     5    1
    14     2     3    2
    15    10    15   ar
    16    10    19    1
    17    15    18    1
    18    16    18    1
    19    16    17    1
    20     5     4    2
    21     3     4    1
    22    19    20    1
    23     4    21    1
    24    21    22    1
    25    22    23    1
    26    23    24    1
    27    28    27    1
    28    28    29    2
    29    24    25    1
    30    27    26    2
    31    29    30    1
    32    26    25    1
    33    26    32    1
    34    30    32    2
    35    30    31    1
    36    32    33    1
