@<TRIPOS>MOLECULE
914_out_ligand_01.pdbqt
 43 46 0 0 0
SMALL
GASTEIGER

@<TRIPOS>ATOM
      1  C         20.1490  -23.9250   -9.0200 C.ar    1  UNL1        0.1610
      2  N         21.4180  -24.3160   -8.7780 N.ar    1  UNL1       -0.1310
      3  N         22.4620  -23.8040   -9.4950 N.ar    1  UNL1       -0.1470
      4  C         22.2390  -22.8890  -10.4620 C.ar    1  UNL1        0.1000
      5  C         20.9450  -22.4110  -10.7460 C.ar    1  UNL1        0.0090
      6  C         20.6710  -21.4170  -11.7210 C.2     1  UNL1        0.0150
      7  C         19.3730  -20.9690  -11.9660 C.2     1  UNL1        0.0010
      8  C         18.3170  -21.4940  -11.2380 C.2     1  UNL1        0.0010
      9  C         18.5610  -22.4670  -10.2670 C.2     1  UNL1        0.0160
     10  C         19.8690  -22.9480  -10.0030 C.ar    1  UNL1        0.0240
     11  C         23.4570  -22.4660  -11.1680 C.2     1  UNL1       -0.0030
     12  C         24.7180  -22.6470  -10.5860 C.2     1  UNL1        0.0140
     13  C         25.8830  -22.2610  -11.2580 C.2     1  UNL1        0.0090
     14  C         25.8280  -21.6850  -12.5370 C.2     1  UNL1       -0.0390
     15  C         27.1200  -21.3130  -13.2080 C.3     1  UNL1        0.0500
     16  C         24.5620  -21.5010  -13.1260 C.2     1  UNL1        0.0860
     17  C         23.3950  -21.9000  -12.4500 C.2     1  UNL1        0.0390
     18  S         24.3650  -20.7840  -14.7500 S.O2    1  UNL1        0.2600
     19  O         25.4510  -19.8550  -14.9790 O.2     1  UNL1       -0.2000
     20  O         22.9870  -20.3650  -14.8730 O.2     1  UNL1       -0.2000
     21  N         24.5630  -22.0760  -15.7780 N.3     1  UNL1       -0.3040
     22  H         23.9580  -22.8750  -15.5710 H       1  UNL1        0.1730
     23  C         25.1180  -22.0350  -17.1470 C.3     1  UNL1        0.0540
     24  C         24.6260  -20.7650  -17.8550 C.3     1  UNL1        0.0410
     25  C         26.6440  -22.1110  -17.1710 C.3     1  UNL1        0.0410
     26  C         24.5530  -23.2890  -17.8720 C.3     1  UNL1        0.1940
     27  O         23.1360  -23.3930  -17.6990 O.3     1  UNL1       -0.3980
     28  H         22.9710  -24.0520  -17.0030 H       1  UNL1        0.2090
     29  N         19.0730  -24.5260   -8.3060 N.pl3   1  UNL1       -0.3390
     30  H         19.3050  -25.5030   -8.1590 H       1  UNL1        0.1670
     31  C         18.3700  -23.9770   -7.2120 C.2     1  UNL1        0.0340
     32  C         17.1090  -24.4810   -6.8840 C.2     1  UNL1        0.0320
     33  C         16.3580  -23.9290   -5.8400 C.2     1  UNL1        0.0400
     34  C         16.8370  -22.8340   -5.1100 C.2     1  UNL1        0.0840
     35  C         18.0890  -22.2870   -5.4560 C.2     1  UNL1        0.0670
     36  C         18.8340  -22.8620   -6.5050 C.2     1  UNL1        0.0490
     37  O         16.1360  -22.2530   -4.0820 O.2     1  UNL1       -0.3550
     38  C         14.7320  -22.0810   -4.2400 C.3     1  UNL1        0.2100
     39  C         18.7070  -21.0940   -4.7920 C.2     1  UNL1        0.2520
     40  N         18.5570  -20.9530   -3.4440 N.am    1  UNL1       -0.3660
     41  H         18.9510  -20.1360   -3.0000 H       1  UNL1        0.1590
     42  H         17.9920  -21.5980   -2.9060 H       1  UNL1        0.1590
     43  O         19.3400  -20.2550   -5.4230 O.2     1  UNL1       -0.2680
@<TRIPOS>BOND
     1    26    27    1
     2    26    23    1
     3    24    23    1
     4    27    28    1
     5    25    23    1
     6    23    21    1
     7    21    22    1
     8    21    18    1
     9    19    18    2
    10    20    18    2
    11    18    16    1
    12    15    14    1
    13    16    14    2
    14    16    17    1
    15    14    13    1
    16    17    11    2
    17     7     6    2
    18     7     8    1
    19     6     5    1
    20    13    12    2
    21     8     9    2
    22    11    12    1
    23    11     4    1
    24     5     4   ar
    25     5    10   ar
    26     4     3   ar
    27     9    10    1
    28    10     1   ar
    29     3     2   ar
    30     1     2   ar
    31     1    29    1
    32    29    30    1
    33    29    31    1
    34    31    32    2
    35    31    36    1
    36    32    33    1
    37    36    35    2
    38    33    34    2
    39    35    34    1
    40    35    39    1
    41    43    39    2
    42    34    37    1
    43    39    40   am
    44    38    37    1
    45    40    41    1
    46    40    42    1
