@<TRIPOS>MOLECULE
9201_out_ligand_01.pdbqt
 38 41 0 0 0
SMALL
GASTEIGER

@<TRIPOS>ATOM
      1  C         17.4020  -20.5760  -11.6620 C.3     1  UNL1        0.0790
      2  C         18.1720  -21.6210  -10.9610 C.ar    1  UNL1        0.0780
      3  O         19.5360  -21.5610  -11.0660 O.2     1  UNL1       -0.2940
      4  C         19.9800  -22.6220  -10.3150 C.ar    1  UNL1        0.1800
      5  N         19.0120  -23.3190   -9.7510 N.ar    1  UNL1       -0.2240
      6  C         17.8500  -22.7010  -10.1640 C.ar    1  UNL1        0.0840
      7  C         21.4240  -22.8090  -10.2200 C.2     1  UNL1        0.0190
      8  C         21.9700  -23.4340   -9.0910 C.2     1  UNL1        0.0160
      9  C         23.3460  -23.6120   -8.9730 C.2     1  UNL1        0.0030
     10  C         24.1990  -23.1750   -9.9880 C.2     1  UNL1        0.0290
     11  C         23.6800  -22.5600  -11.1270 C.2     1  UNL1        0.0350
     12  C         22.2920  -22.3840  -11.2380 C.2     1  UNL1        0.0450
     13  N         24.4750  -22.1160  -12.2020 N.am    1  UNL1       -0.3270
     14  C         25.4560  -21.1390  -12.1720 C.2     1  UNL1        0.2220
     15  O         25.7470  -20.4280  -11.2160 O.2     1  UNL1       -0.2730
     16  H         24.2440  -22.5100  -13.1070 H       1  UNL1        0.1690
     17  C         26.1800  -20.9770  -13.5010 C.3     1  UNL1        0.1080
     18  C         25.3030  -20.3070  -14.5590 C.3     1  UNL1        0.0490
     19  C         24.9730  -21.2070  -15.7210 C.2     1  UNL1       -0.0400
     20  C         24.8740  -22.5930  -15.5640 C.2     1  UNL1        0.0100
     21  C         24.6260  -23.3950  -16.6760 C.2     1  UNL1        0.0200
     22  C         24.4820  -22.7840  -17.9110 C.2     1  UNL1        0.1160
     23  N         24.5740  -21.4510  -18.0980 N.2     1  UNL1       -0.2730
     24  C         24.8000  -20.6920  -17.0030 C.2     1  UNL1        0.1230
     25  C         16.5140  -23.2020   -9.7450 C.3     1  UNL1        0.1840
     26  N         16.4360  -23.2030   -8.3000 N.am    1  UNL1       -0.3550
     27  C         15.8610  -24.2460   -7.6090 C.2     1  UNL1        0.2220
     28  O         15.3030  -25.1920   -8.1500 O.2     1  UNL1       -0.2730
     29  H         16.9900  -22.5270   -7.7940 H       1  UNL1        0.1620
     30  C         15.8990  -24.0590   -6.0950 C.3     1  UNL1        0.0820
     31  C         15.1590  -22.7880   -5.6910 C.3     1  UNL1        0.0400
     32  C         15.3740  -22.4280   -4.2230 C.3     1  UNL1        0.1690
     33  O         16.5760  -22.9470   -3.6570 O.3     1  UNL1       -0.3850
     34  C         17.6880  -23.0220   -4.5540 C.3     1  UNL1        0.1250
     35  C         17.3660  -24.0610   -5.6340 C.3     1  UNL1        0.0460
     36  C         18.1560  -21.6220   -5.0460 C.3     1  UNL1        0.0060
     37  C         18.8050  -20.8410   -3.8920 C.3     1  UNL1        0.0120
     38  C         19.1390  -21.7020   -6.2150 C.3     1  UNL1        0.0120
@<TRIPOS>BOND
     1    23    22    2
     2    23    24    1
     3    22    21    1
     4    24    19    2
     5    21    20    2
     6    19    20    1
     7    19    18    1
     8    18    17    1
     9    17    14    1
    10    16    13    1
    11    13    14   am
    12    13    11    1
    13    14    15    2
    14     1     2    1
    15    12    11    1
    16    12     7    2
    17    11    10    2
    18     3     2   ar
    19     3     4   ar
    20     2     6   ar
    21     4     7    1
    22     4     5   ar
    23     7     8    1
    24     6     5   ar
    25     6    25    1
    26    10     9    1
    27    25    26    1
    28     8     9    2
    29    26    29    1
    30    26    27   am
    31    28    27    2
    32    27    30    1
    33    38    36    1
    34    30    31    1
    35    30    35    1
    36    31    32    1
    37    35    34    1
    38    36    34    1
    39    36    37    1
    40    34    33    1
    41    32    33    1
