@<TRIPOS>MOLECULE
9278_out_ligand_01.pdbqt
 33 36 0 0 0
SMALL
GASTEIGER

@<TRIPOS>ATOM
      1  C         18.8660  -22.0290  -10.3060 C.2     1  UNL1        0.0760
      2  C         18.9540  -21.0670  -11.3310 C.2     1  UNL1        0.1590
      3  N         20.2020  -20.7250  -11.6200 N.2     1  UNL1       -0.1640
      4  N         20.9800  -21.5520  -10.8530 N.pl3   1  UNL1       -0.0630
      5  C         20.1910  -22.2480   -9.9190 C.2     1  UNL1        0.0750
      6  C         22.4060  -21.6370  -11.1040 C.cat   1  UNL1        0.7500
      7  N         23.2460  -21.4360  -10.0650 N.2     1  UNL1       -0.0730
      8  C         24.5630  -21.4390  -10.3340 C.2     1  UNL1        0.1450
      9  C         25.0980  -21.6350  -11.5900 C.2     1  UNL1       -0.0140
     10  C         26.5780  -21.6020  -11.7940 C.3     1  UNL1        0.0520
     11  C         24.1690  -21.8780  -12.5930 C.2     1  UNL1        0.0930
     12  N         22.8350  -21.8570  -12.3640 N.2     1  UNL1       -0.0600
     13  C         24.5160  -22.1710  -13.9960 C.2     1  UNL1       -0.0060
     14  C         25.0070  -23.4430  -14.3570 C.2     1  UNL1        0.0170
     15  C         25.3680  -23.7310  -15.6770 C.2     1  UNL1        0.0430
     16  C         25.2440  -22.7460  -16.6490 C.2     1  UNL1        0.1160
     17  F         25.5920  -23.0190  -17.9140 F       1  UNL1       -0.2060
     18  C         24.7710  -21.4800  -16.3240 C.2     1  UNL1        0.0430
     19  C         24.4150  -21.1910  -15.0020 C.2     1  UNL1        0.0170
     20  C         20.7720  -23.0470   -8.7710 C.3     1  UNL1        0.0310
     21  C         20.2860  -24.4960   -8.7910 C.3     1  UNL1        0.0160
     22  C         20.5240  -22.3960   -7.4070 C.3     1  UNL1        0.0160
     23  C         17.6560  -22.6520   -9.7920 C.2     1  UNL1        0.2550
     24  N         17.2030  -22.1280   -8.6060 N.am    1  UNL1       -0.3510
     25  H         17.8390  -21.5920   -8.0260 H       1  UNL1        0.1630
     26  O         17.0740  -23.5640  -10.3700 O.2     1  UNL1       -0.2680
     27  C         16.0720  -22.7340   -7.9350 C.3     1  UNL1        0.1900
     28  C         16.2220  -22.5250   -6.4590 C.2     1  UNL1        0.0920
     29  S         14.8890  -22.7780   -5.4000 S.3     1  UNL1       -0.0830
     30  C         15.8800  -22.3390   -4.0720 C.2     1  UNL1        0.0780
     31  C         17.1580  -22.0260   -4.5100 C.2     1  UNL1        0.0380
     32  C         18.3170  -21.6420   -3.6620 C.3     1  UNL1        0.0710
     33  N         17.3360  -22.1100   -5.8810 N.2     1  UNL1       -0.2490
@<TRIPOS>BOND
     1    17    16    1
     2    16    18    2
     3    16    15    1
     4    18    19    1
     5    15    14    2
     6    19    13    2
     7    14    13    1
     8    13    11    1
     9    11    12    2
    10    11     9    1
    11    12     6    1
    12    10     9    1
    13     3     2    2
    14     3     4    1
    15     9     8    2
    16     2     1    1
    17     6     4    1
    18     6     7    2
    19     4     5    1
    20    26    23    2
    21     8     7    1
    22     1     5    2
    23     1    23    1
    24     5    20    1
    25    23    24   am
    26    21    20    1
    27    20    22    1
    28    24    25    1
    29    24    27    1
    30    27    28    1
    31    28    33    2
    32    28    29    1
    33    33    31    1
    34    29    30    1
    35    31    30    2
    36    31    32    1
