@<TRIPOS>MOLECULE
9281_out_ligand_01.pdbqt
 35 38 0 0 0
SMALL
GASTEIGER

@<TRIPOS>ATOM
      1  C         20.9220  -24.5410   -8.9190 C.3     1  UNL1        0.0790
      2  C         20.4490  -23.5040   -7.9830 C.ar    1  UNL1        0.0780
      3  O         19.2190  -23.6830   -7.4140 O.2     1  UNL1       -0.2940
      4  C         19.0620  -22.6040   -6.5780 C.ar    1  UNL1        0.1820
      5  N         20.0880  -21.7730   -6.5890 N.ar    1  UNL1       -0.2240
      6  C         20.9760  -22.3310   -7.4890 C.ar    1  UNL1        0.0840
      7  C         17.8210  -22.5230   -5.7970 C.2     1  UNL1        0.0440
      8  C         17.9470  -22.6380   -4.3940 C.2     1  UNL1        0.0180
      9  C         16.8390  -22.5740   -3.5530 C.2     1  UNL1        0.0010
     10  C         15.5780  -22.3890   -4.1010 C.2     1  UNL1        0.0020
     11  C         15.4250  -22.2650   -5.4850 C.2     1  UNL1        0.0300
     12  C         16.5280  -22.3270   -6.3510 C.2     1  UNL1        0.0490
     13  N         16.3790  -22.1790   -7.7540 N.am    1  UNL1       -0.3260
     14  C         15.9150  -23.1000   -8.6780 C.2     1  UNL1        0.2220
     15  O         15.5780  -24.2560   -8.4520 O.2     1  UNL1       -0.2730
     16  H         16.6640  -21.2770   -8.1220 H       1  UNL1        0.1690
     17  C         15.8870  -22.5040  -10.0830 C.3     1  UNL1        0.1070
     18  C         17.1490  -21.7150  -10.4280 C.3     1  UNL1       -0.0060
     19  C         17.0770  -21.0600  -11.8070 C.3     1  UNL1        0.0050
     20  C         18.5300  -20.7390  -12.1490 C.3     1  UNL1        0.0000
     21  C         19.3850  -21.6960  -11.3170 C.3     1  UNL1        0.0000
     22  C         18.4040  -22.5790  -10.5540 C.3     1  UNL1        0.0050
     23  C         22.2800  -21.6830   -7.7840 C.3     1  UNL1        0.1840
     24  N         22.4050  -21.5270   -9.2160 N.am    1  UNL1       -0.3510
     25  C         23.3560  -22.2120   -9.9360 C.2     1  UNL1        0.2550
     26  O         24.0850  -23.0660   -9.4370 O.2     1  UNL1       -0.2680
     27  H         21.9700  -20.7020   -9.6170 H       1  UNL1        0.1630
     28  C         23.4840  -21.8910  -11.3850 C.2     1  UNL1        0.0730
     29  C         22.3080  -21.8020  -12.1530 C.2     1  UNL1        0.0200
     30  C         22.3680  -21.4900  -13.5150 C.2     1  UNL1        0.0040
     31  C         23.6020  -21.2690  -14.1220 C.2     1  UNL1        0.0450
     32  C         24.7640  -21.3630  -13.3640 C.2     1  UNL1        0.1550
     33  F         25.9490  -21.1470  -13.9560 F       1  UNL1       -0.2030
     34  C         24.7120  -21.6700  -12.0080 C.2     1  UNL1        0.1700
     35  F         25.8650  -21.7490  -11.3210 F       1  UNL1       -0.2020
@<TRIPOS>BOND
     1    31    30    2
     2    31    32    1
     3    33    32    1
     4    30    29    1
     5    32    34    2
     6    29    28    2
     7    20    19    1
     8    20    21    1
     9    34    28    1
    10    34    35    1
    11    19    18    1
    12    28    25    1
    13    21    22    1
    14    22    18    1
    15    18    17    1
    16    17    14    1
    17    25    26    2
    18    25    24   am
    19    27    24    1
    20    24    23    1
    21     1     2    1
    22    14    15    2
    23    14    13   am
    24    16    13    1
    25     2     6   ar
    26     2     3   ar
    27    23     6    1
    28    13    12    1
    29     6     5   ar
    30     3     4   ar
    31     5     4   ar
    32     4     7    1
    33    12     7    2
    34    12    11    1
    35     7     8    1
    36    11    10    2
    37     8     9    2
    38    10     9    1
