@<TRIPOS>MOLECULE
9332_out_ligand_01.pdbqt
 29 32 0 0 0
SMALL
GASTEIGER

@<TRIPOS>ATOM
      1  C         21.6170  -22.4950  -10.9980 C.2     1  UNL1       -0.0290
      2  C         21.2260  -21.6230  -12.0270 C.2     1  UNL1        0.0090
      3  C         19.9490  -21.0640  -12.0380 C.2     1  UNL1        0.0020
      4  C         19.0490  -21.3630  -11.0180 C.2     1  UNL1        0.0150
      5  C         19.4250  -22.2160   -9.9740 C.2     1  UNL1        0.0110
      6  C         20.7050  -22.7920   -9.9720 C.2     1  UNL1        0.0240
      7  C         18.4400  -22.5040   -8.8980 C.ar    1  UNL1        0.1410
      8  N         18.6490  -22.1130   -7.6840 N.ar    1  UNL1       -0.2340
      9  C         17.7040  -22.3950   -6.7190 C.ar    1  UNL1        0.0480
     10  C         16.5720  -23.0880   -6.9620 C.ar    1  UNL1        0.0350
     11  C         18.1160  -21.8840   -5.3490 C.3     1  UNL1        0.0600
     12  C         16.3860  -23.5910   -8.3480 C.ar    1  UNL1        0.2550
     13  C         15.4420  -23.3970   -6.0130 C.3     1  UNL1        0.0460
     14  O         15.4490  -24.3140   -8.6740 O.2     1  UNL1       -0.2680
     15  N         17.3270  -23.2140   -9.2540 N.ar    1  UNL1       -0.3070
     16  H         17.2160  -23.6030  -10.1770 H       1  UNL1        0.1700
     17  C         15.2520  -22.4180   -4.8560 C.3     1  UNL1        0.0050
     18  C         16.2620  -22.5820   -3.7280 C.3     1  UNL1        0.0010
     19  C         17.7100  -22.7670   -4.1700 C.3     1  UNL1        0.0060
     20  C         22.9960  -23.1240  -11.0190 C.3     1  UNL1        0.3110
     21  N         24.0180  -22.2520  -11.6180 N.3     1  UNL1        0.0940
     22  C         24.7070  -21.4550  -10.6020 C.3     1  UNL1        0.3100
     23  C         25.0060  -23.0210  -12.4040 C.3     1  UNL1        0.3320
     24  C         24.8590  -22.8940  -13.9080 C.2     1  UNL1        0.0800
     25  C         24.2770  -21.7570  -14.4660 C.2     1  UNL1        0.1450
     26  N         24.1170  -21.5860  -15.8000 N.2     1  UNL1       -0.2700
     27  C         24.5640  -22.6040  -16.5670 C.2     1  UNL1        0.1350
     28  C         25.1390  -23.7410  -16.0280 C.2     1  UNL1        0.1360
     29  N         25.2950  -23.9130  -14.6960 N.2     1  UNL1       -0.2610
@<TRIPOS>BOND
     1    27    28    2
     2    27    26    1
     3    28    29    1
     4    26    25    2
     5    29    24    2
     6    25    24    1
     7    24    23    1
     8    23    21    1
     9     3     2    1
    10     3     4    2
    11     2     1    2
    12    21    20    1
    13    21    22    1
    14    20     1    1
    15     4     5    1
    16     1     6    1
    17    16    15    1
    18     5     6    2
    19     5     7    1
    20    15     7   ar
    21    15    12   ar
    22     7     8   ar
    23    14    12    2
    24    12    10   ar
    25     8     9   ar
    26    10     9   ar
    27    10    13    1
    28     9    11    1
    29    13    17    1
    30    11    19    1
    31    17    18    1
    32    19    18    1
