@<TRIPOS>MOLECULE
9495_out_ligand_01.pdbqt
 32 36 0 0 0
SMALL
GASTEIGER

@<TRIPOS>ATOM
      1  C         20.9050  -22.0870  -11.1810 C.2     1  UNL1        0.0990
      2  C         20.7000  -21.0310  -12.0970 C.2     1  UNL1        0.1600
      3  N         19.4470  -20.5720  -12.1060 N.2     1  UNL1       -0.1750
      4  N         18.8120  -21.3470  -11.1880 N.pl3   1  UNL1       -0.1920
      5  C         17.4640  -21.2700  -10.8190 C.2     1  UNL1        0.1670
      6  C         16.9840  -22.1030   -9.8870 C.2     1  UNL1        0.0850
      7  C         17.9690  -23.0680   -9.3030 C.2     1  UNL1        0.0420
      8  N         19.2320  -23.1460   -9.6270 N.2     1  UNL1       -0.2330
      9  C         19.6670  -22.2740  -10.5930 C.2     1  UNL1        0.1710
     10  C         17.4530  -24.0210   -8.2390 C.3     1  UNL1        0.0810
     11  C         16.1200  -23.5460   -7.6810 C.3     1  UNL1        0.1570
     12  N         16.1830  -23.3080   -6.2510 N.pl3   1  UNL1       -0.2730
     13  N         15.2710  -23.8910   -5.4460 N.2     1  UNL1       -0.1840
     14  C         15.5960  -23.4660   -4.2210 C.2     1  UNL1        0.1480
     15  C         16.7020  -22.6010   -4.2380 C.2     1  UNL1       -0.0150
     16  C         17.0530  -22.5090   -5.5680 C.2     1  UNL1        0.0380
     17  C         17.4090  -21.8740   -3.1540 C.3     1  UNL1        0.0420
     18  C         18.1850  -21.7190   -6.1180 C.3     1  UNL1        0.0590
     19  C         18.6850  -20.7210   -5.0540 C.3     1  UNL1        0.0060
     20  C         18.7740  -21.3530   -3.6490 C.3     1  UNL1        0.0050
     21  O         16.6480  -20.3310  -11.4300 O.2     1  UNL1       -0.3450
     22  H         16.9330  -20.3120  -12.3700 H       1  UNL1        0.2190
     23  C         22.1490  -22.8000  -10.9310 C.2     1  UNL1        0.2610
     24  O         22.2100  -23.6310  -10.0320 O.2     1  UNL1       -0.2670
     25  N         23.1760  -22.4400  -11.7810 N.am    1  UNL1       -0.3230
     26  H         22.9390  -21.7270  -12.4680 H       1  UNL1        0.1690
     27  C         24.4960  -22.9280  -11.8110 C.2     1  UNL1        0.0350
     28  C         24.8660  -23.6920  -12.9260 C.2     1  UNL1        0.0290
     29  C         26.1560  -24.2150  -13.0380 C.2     1  UNL1        0.0020
     30  C         27.0910  -23.9790  -12.0330 C.2     1  UNL1        0.0000
     31  C         26.7320  -23.2210  -10.9200 C.2     1  UNL1        0.0020
     32  C         25.4400  -22.6970  -10.8090 C.2     1  UNL1        0.0290
@<TRIPOS>BOND
     1    29    28    1
     2    29    30    2
     3    28    27    2
     4    26    25    1
     5    22    21    1
     6     3     2    2
     7     3     4    1
     8     2     1    1
     9    30    31    1
    10    27    25    1
    11    27    32    1
    12    25    23   am
    13    21     5    1
    14     4     5    1
    15     4     9    1
    16     1    23    1
    17     1     9    2
    18    23    24    2
    19    31    32    2
    20     5     6    2
    21     9     8    1
    22     6     7    1
    23     8     7    2
    24     7    10    1
    25    10    11    1
    26    11    12    1
    27    12    16    1
    28    12    13    1
    29    18    16    1
    30    18    19    1
    31    16    15    2
    32    13    14    2
    33    19    20    1
    34    15    14    1
    35    15    17    1
    36    20    17    1
