@<TRIPOS>MOLECULE
9655_out_ligand_01.pdbqt
 39 43 0 0 0
SMALL
GASTEIGER

@<TRIPOS>ATOM
      1  O         23.9340  -21.0100   -9.6820 O.2     1  UNL1       -0.2720
      2  C         23.4140  -22.1220   -9.6780 C.2     1  UNL1        0.2320
      3  N         23.4770  -23.0720  -10.6980 N.am    1  UNL1       -0.3200
      4  H         23.1020  -24.0000  -10.5110 H       1  UNL1        0.1690
      5  C         24.0250  -22.9230  -11.9650 C.ar    1  UNL1        0.0930
      6  S         25.4970  -23.6530  -12.3880 S.2     1  UNL1       -0.0750
      7  C         25.5040  -22.9160  -13.9160 C.ar    1  UNL1       -0.0080
      8  C         24.3800  -22.1390  -14.1400 C.ar    1  UNL1       -0.0260
      9  C         26.6670  -23.0650  -14.8510 C.3     1  UNL1        0.0470
     10  C         23.4790  -22.1720  -13.0020 C.ar    1  UNL1        0.0730
     11  C         24.2270  -21.3640  -15.4250 C.3     1  UNL1        0.0410
     12  C         25.5690  -21.1820  -16.1530 C.3     1  UNL1        0.0050
     13  C         26.3310  -22.5100  -16.2410 C.3     1  UNL1        0.0050
     14  C         22.1710  -21.5080  -12.8490 C.2     1  UNL1        0.2590
     15  O         21.9740  -20.4110  -13.3720 O.2     1  UNL1       -0.2670
     16  N         21.2900  -22.1890  -12.0260 N.am    1  UNL1       -0.3230
     17  H         21.6850  -22.9550  -11.5020 H       1  UNL1        0.1690
     18  C         19.9630  -21.8460  -11.7080 C.2     1  UNL1        0.0350
     19  C         19.1460  -22.8600  -11.1820 C.2     1  UNL1        0.0290
     20  C         17.8170  -22.6020  -10.8380 C.2     1  UNL1        0.0020
     21  C         17.2890  -21.3220  -11.0140 C.2     1  UNL1        0.0000
     22  C         18.0920  -20.3100  -11.5360 C.2     1  UNL1        0.0020
     23  C         19.4220  -20.5700  -11.8900 C.2     1  UNL1        0.0290
     24  C         22.6520  -22.6930   -8.4840 C.3     1  UNL1        0.1850
     25  S         21.4620  -23.9880   -8.9170 S.3     1  UNL1       -0.0810
     26  C         20.0810  -23.5050   -7.9070 C.ar    1  UNL1        0.1890
     27  N         18.9570  -24.2300   -7.9310 N.ar    1  UNL1       -0.2270
     28  C         17.9380  -23.8270   -7.1440 C.ar    1  UNL1        0.0460
     29  C         18.0440  -22.7510   -6.2710 C.ar    1  UNL1        0.0000
     30  C         16.6820  -24.6590   -7.2290 C.3     1  UNL1        0.0600
     31  C         19.2530  -22.0510   -6.3080 C.ar    1  UNL1        0.1510
     32  C         16.8980  -22.3340   -5.3890 C.3     1  UNL1        0.0430
     33  N         20.2780  -22.4420   -7.1120 N.ar    1  UNL1       -0.2180
     34  C         15.7880  -23.3840   -5.2800 C.3     1  UNL1        0.0050
     35  C         15.4580  -23.9490   -6.6590 C.3     1  UNL1        0.0060
     36  C         19.4730  -20.8240   -5.4320 C.3     1  UNL1        0.4350
     37  F         18.5700  -19.8190   -5.6340 F       1  UNL1       -0.1650
     38  F         19.4110  -21.1090   -4.0950 F       1  UNL1       -0.1650
     39  F         20.7020  -20.2590   -5.6240 F       1  UNL1       -0.1650
@<TRIPOS>BOND
     1    13    12    1
     2    13     9    1
     3    12    11    1
     4    11     8    1
     5     9     7    1
     6     8     7   ar
     7     8    10   ar
     8     7     6   ar
     9    15    14    2
    10    10    14    1
    11    10     5   ar
    12    14    16   am
    13     6     5   ar
    14    16    18    1
    15    16    17    1
    16     5     3    1
    17    23    18    2
    18    23    22    1
    19    18    19    1
    20    22    21    2
    21    19    20    2
    22    21    20    1
    23     3     4    1
    24     3     2   am
    25     1     2    2
    26     2    24    1
    27    25    24    1
    28    25    26    1
    29    27    26   ar
    30    27    28   ar
    31    26    33   ar
    32    30    28    1
    33    30    35    1
    34    28    29   ar
    35    33    31   ar
    36    35    34    1
    37    31    29   ar
    38    31    36    1
    39    29    32    1
    40    37    36    1
    41    39    36    1
    42    36    38    1
    43    32    34    1
