@<TRIPOS>MOLECULE
9676_out_ligand_01.pdbqt
 33 36 0 0 0
SMALL
GASTEIGER

@<TRIPOS>ATOM
      1  C         27.1210  -23.3280  -11.6560 C.3     1  UNL1        0.1630
      2  N         25.9640  -22.7800  -12.3350 N.ar    1  UNL1       -0.2860
      3  C         25.9540  -22.6270  -13.7170 C.ar    1  UNL1        0.3300
      4  O         26.8930  -22.9330  -14.4530 O.2     1  UNL1       -0.2460
      5  N         24.8110  -22.0920  -14.2840 N.ar    1  UNL1       -0.2730
      6  C         23.6730  -21.6710  -13.6330 C.ar    1  UNL1        0.2800
      7  O         22.7220  -21.1780  -14.2270 O.2     1  UNL1       -0.2650
      8  C         23.7500  -21.8660  -12.2260 C.ar    1  UNL1        0.1660
      9  C         24.8510  -22.3910  -11.6190 C.ar    1  UNL1        0.1860
     10  N         24.7000  -22.4640  -10.2730 N.ar    1  UNL1       -0.0420
     11  C         23.4960  -21.9750  -10.0260 C.ar    1  UNL1        0.7250
     12  N         22.8690  -21.6160  -11.2080 N.ar    1  UNL1       -0.1700
     13  H         24.8280  -21.9790  -15.2850 H       1  UNL1        0.1730
     14  N         22.8850  -21.8140   -8.8170 N.pl3   1  UNL1       -0.1070
     15  H         23.4680  -21.5010   -8.0430 H       1  UNL1        0.2080
     16  N         21.8370  -22.5770   -8.3720 N.2     1  UNL1       -0.1710
     17  C         20.9360  -21.9630   -7.6710 C.2     1  UNL1        0.1550
     18  C         19.7190  -22.6150   -7.1480 C.2     1  UNL1        0.0430
     19  C         18.9570  -21.8540   -6.2530 C.2     1  UNL1        0.1290
     20  F         19.3420  -20.6160   -5.9060 F       1  UNL1       -0.2050
     21  C         17.7810  -22.3460   -5.6880 C.2     1  UNL1        0.0430
     22  C         17.3440  -23.6240   -6.0150 C.2     1  UNL1        0.0050
     23  C         18.0890  -24.3990   -6.9040 C.2     1  UNL1        0.0250
     24  C         19.2750  -23.9040   -7.4740 C.2     1  UNL1        0.0480
     25 CL         20.0910  -24.9760   -8.5550 Cl      1  UNL1       -0.0830
     26  C         21.5250  -21.0900  -11.3660 C.3     1  UNL1        0.1530
     27  C         20.5490  -22.1580  -11.8530 C.3     1  UNL1        0.0590
     28  C         19.1610  -21.9180  -11.3160 C.2     1  UNL1       -0.0570
     29  C         18.4830  -22.9240  -10.6150 C.2     1  UNL1        0.0070
     30  C         17.1890  -22.7020  -10.1410 C.2     1  UNL1        0.0010
     31  C         16.5620  -21.4770  -10.3640 C.2     1  UNL1        0.0000
     32  C         17.2290  -20.4720  -11.0620 C.2     1  UNL1        0.0010
     33  C         18.5230  -20.6910  -11.5380 C.2     1  UNL1        0.0070
@<TRIPOS>BOND
     1    13     5    1
     2     4     3    2
     3     5     3   ar
     4     5     6   ar
     5     7     6    2
     6     3     2   ar
     7     6     8   ar
     8     2     1    1
     9     2     9   ar
    10     8     9   ar
    11     8    12   ar
    12    27    26    1
    13    27    28    1
    14     9    10   ar
    15    33    28    2
    16    33    32    1
    17    26    12    1
    18    28    29    1
    19    12    11   ar
    20    32    31    2
    21    29    30    2
    22    31    30    1
    23    10    11   ar
    24    11    14    1
    25    14    16    1
    26    14    15    1
    27    25    24    1
    28    16    17    2
    29    17    18    1
    30    24    18    2
    31    24    23    1
    32    18    19    1
    33    23    22    2
    34    19    20    1
    35    19    21    2
    36    22    21    1
