@<TRIPOS>MOLECULE
9730_out_ligand_01.pdbqt
 34 37 0 0 0
SMALL
GASTEIGER

@<TRIPOS>ATOM
      1  C         24.0790  -21.6750  -10.3600 C.ar    1  UNL1        0.7260
      2  N         25.1290  -20.9040  -10.5740 N.ar    1  UNL1       -0.0420
      3  C         25.0920  -20.6000  -11.8940 C.ar    1  UNL1        0.1860
      4  C         24.0480  -21.2140  -12.5290 C.ar    1  UNL1        0.1670
      5  C         23.8320  -21.0830  -13.9260 C.ar    1  UNL1        0.2800
      6  O         22.9910  -21.6860  -14.5750 O.2     1  UNL1       -0.2650
      7  N         24.7220  -20.2090  -14.5160 N.ar    1  UNL1       -0.2730
      8  C         25.7900  -19.5650  -13.9220 C.ar    1  UNL1        0.3300
      9  O         26.5040  -18.8350  -14.6090 O.2     1  UNL1       -0.2460
     10  N         25.9910  -19.7980  -12.5670 N.ar    1  UNL1       -0.2860
     11  C         27.0760  -19.1360  -11.8640 C.3     1  UNL1        0.1630
     12  N         23.3860  -21.9000  -11.5430 N.ar    1  UNL1       -0.1660
     13  H         24.6130  -20.0590  -15.5050 H       1  UNL1        0.1730
     14  N         23.6800  -22.2470   -9.1880 N.pl3   1  UNL1       -0.1070
     15  H         23.8140  -23.2540   -9.1210 H       1  UNL1        0.2080
     16  N         22.6080  -21.8280   -8.4410 N.2     1  UNL1       -0.1720
     17  C         21.7560  -22.7610   -8.1280 C.2     1  UNL1        0.1500
     18  C         20.5360  -22.4820   -7.3450 C.2     1  UNL1       -0.0170
     19  C         20.4180  -21.3280   -6.5670 C.2     1  UNL1        0.0150
     20  C         19.2350  -21.0780   -5.8590 C.2     1  UNL1        0.0370
     21  C         18.1680  -21.9790   -5.9320 C.2     1  UNL1        0.0680
     22  C         18.2960  -23.1320   -6.7110 C.2     1  UNL1        0.0370
     23  C         19.4770  -23.3920   -7.4120 C.2     1  UNL1        0.0150
     24  O         16.9540  -21.8450   -5.3170 O.2     1  UNL1       -0.3520
     25  C         15.9570  -22.8190   -5.6160 C.3     1  UNL1        0.1710
     26  C         14.6020  -22.1770   -5.4080 C.3     1  UNL1        0.0340
     27  C         22.2780  -22.8240  -11.7280 C.3     1  UNL1        0.1900
     28  C         20.9330  -22.1720  -11.5490 C.2     1  UNL1       -0.0010
     29  C         20.7110  -20.8560  -11.9870 C.2     1  UNL1        0.0120
     30  C         19.4680  -20.2420  -11.7870 C.2     1  UNL1        0.0010
     31  C         18.4440  -20.9220  -11.1350 C.2     1  UNL1        0.0030
     32  C         18.6530  -22.2240  -10.6900 C.2     1  UNL1        0.0430
     33  C         19.8820  -22.8380  -10.9010 C.2     1  UNL1        0.1240
     34  F         20.0510  -24.0930  -10.4610 F       1  UNL1       -0.2050
@<TRIPOS>BOND
     1    13     7    1
     2     9     8    2
     3     6     5    2
     4     7     5   ar
     5     7     8   ar
     6     5     4   ar
     7     8    10   ar
     8    10     3   ar
     9    10    11    1
    10     4     3   ar
    11     4    12   ar
    12    29    30    1
    13    29    28    2
    14     3     2   ar
    15    30    31    2
    16    27    28    1
    17    27    12    1
    18    28    33    1
    19    12     1   ar
    20    31    32    1
    21    33    32    2
    22    33    34    1
    23     2     1   ar
    24     1    14    1
    25    14    15    1
    26    14    16    1
    27    16    17    2
    28    17    18    1
    29    23    18    2
    30    23    22    1
    31    18    19    1
    32    22    21    2
    33    19    20    2
    34    21    20    1
    35    21    24    1
    36    25    26    1
    37    25    24    1
