@<TRIPOS>MOLECULE
9738_out_ligand_01.pdbqt
 32 35 0 0 0
SMALL
GASTEIGER

@<TRIPOS>ATOM
      1  N         23.6650  -22.0560  -11.6760 N.ar    1  UNL1       -0.1660
      2  C         24.2460  -21.8130  -10.4400 C.ar    1  UNL1        0.7260
      3  N         25.1900  -20.8920  -10.5420 N.ar    1  UNL1       -0.0420
      4  C         25.2550  -20.5900  -11.8630 C.ar    1  UNL1        0.1860
      5  C         24.3360  -21.2850  -12.5920 C.ar    1  UNL1        0.1670
      6  C         24.2130  -21.1320  -13.9990 C.ar    1  UNL1        0.2800
      7  O         23.4230  -21.7390  -14.7130 O.2     1  UNL1       -0.2650
      8  N         25.1020  -20.2130  -14.5120 N.ar    1  UNL1       -0.2730
      9  C         26.0560  -19.4910  -13.8180 C.ar    1  UNL1        0.3300
     10  O         26.7850  -18.7200  -14.4400 O.2     1  UNL1       -0.2460
     11  N         26.1230  -19.6910  -12.4440 N.ar    1  UNL1       -0.2860
     12  C         27.0980  -18.9810  -11.6380 C.3     1  UNL1        0.1630
     13  H         25.0730  -20.0610  -15.5060 H       1  UNL1        0.1730
     14  N         23.8270  -22.4670   -9.3180 N.pl3   1  UNL1       -0.1070
     15  H         24.5750  -22.8440   -8.7350 H       1  UNL1        0.2080
     16  N         22.7520  -22.0900   -8.5520 N.2     1  UNL1       -0.1720
     17  C         21.8310  -22.9880   -8.3820 C.2     1  UNL1        0.1500
     18  C         20.6040  -22.7070   -7.6110 C.2     1  UNL1       -0.0170
     19  C         20.4930  -21.5490   -6.8300 C.2     1  UNL1        0.0160
     20  C         19.3220  -21.3080   -6.1110 C.2     1  UNL1        0.0430
     21  C         18.2760  -22.2210   -6.1790 C.2     1  UNL1        0.1160
     22  F         17.1520  -21.9910   -5.4880 F       1  UNL1       -0.2060
     23  C         18.3760  -23.3740   -6.9530 C.2     1  UNL1        0.0430
     24  C         19.5450  -23.6210   -7.6750 C.2     1  UNL1        0.0160
     25  C         22.4800  -22.8630  -11.9330 C.3     1  UNL1        0.1860
     26  C         21.1990  -22.0950  -11.7150 C.2     1  UNL1       -0.0390
     27  C         21.1350  -20.7150  -11.9570 C.2     1  UNL1        0.0090
     28  C         19.9480  -20.0150  -11.7470 C.2     1  UNL1        0.0010
     29  C         18.8130  -20.6820  -11.2890 C.2     1  UNL1        0.0070
     30  C         18.8530  -22.0570  -11.0380 C.2     1  UNL1       -0.0610
     31  C         17.6430  -22.7660  -10.5030 C.3     1  UNL1        0.0480
     32  C         20.0530  -22.7520  -11.2360 C.2     1  UNL1        0.0150
@<TRIPOS>BOND
     1    13     8    1
     2     7     6    2
     3     8     6   ar
     4     8     9   ar
     5    10     9    2
     6     6     5   ar
     7     9    11   ar
     8     5     4   ar
     9     5     1   ar
    10    11     4   ar
    11    11    12    1
    12    27    28    1
    13    27    26    2
    14    25    26    1
    15    25     1    1
    16     4     3   ar
    17    28    29    2
    18    26    32    1
    19     1     2   ar
    20    29    30    1
    21    32    30    2
    22    30    31    1
    23     3     2   ar
    24     2    14    1
    25    14    15    1
    26    14    16    1
    27    16    17    2
    28    17    18    1
    29    24    18    2
    30    24    23    1
    31    18    19    1
    32    23    21    2
    33    19    20    2
    34    21    20    1
    35    21    22    1
