@<TRIPOS>MOLECULE
tr13184_out_ligand_01.pdbqt
 34 36 0 0 0
SMALL
GASTEIGER

@<TRIPOS>ATOM
      1  C         18.5670  -23.2320   -6.6630 C.ar    1  UNL1        0.1590
      2  N         18.6760  -24.3500   -7.3270 N.ar    1  UNL1       -0.1410
      3  N         19.7690  -24.5570   -8.1760 N.ar    1  UNL1       -0.1240
      4  C         20.6110  -23.5990   -8.3620 C.ar    1  UNL1        0.1910
      5  N         20.5690  -22.3990   -7.7440 N.ar    1  UNL1       -0.2990
      6  C         19.6400  -22.1600   -6.7820 C.ar    1  UNL1        0.2790
      7  O         19.6910  -21.1930   -6.0410 O.2     1  UNL1       -0.2650
      8  H         21.3100  -21.7270   -7.8630 H       1  UNL1        0.1710
      9  S         21.9620  -23.7860   -9.4400 S.3     1  UNL1       -0.0760
     10  C         22.1280  -22.0550  -10.0350 C.3     1  UNL1        0.1430
     11  C         23.2680  -21.3150   -9.3480 C.3     1  UNL1        0.0310
     12  C         22.2650  -22.0710  -11.5630 C.2     1  UNL1        0.2360
     13  O         21.2890  -21.9950  -12.3020 O.2     1  UNL1       -0.2720
     14  N         23.5930  -22.1170  -11.9680 N.am    1  UNL1       -0.3260
     15  H         24.2900  -22.1900  -11.2340 H       1  UNL1        0.1690
     16  C         24.0960  -22.0560  -13.2830 C.2     1  UNL1        0.0340
     17  C         24.8840  -23.1310  -13.7140 C.2     1  UNL1        0.0300
     18  C         25.4340  -23.1440  -15.0000 C.2     1  UNL1        0.0090
     19  C         25.1960  -22.0880  -15.8810 C.2     1  UNL1       -0.0620
     20  C         25.8120  -22.0800  -17.2490 C.3     1  UNL1        0.0480
     21  C         24.4200  -21.0090  -15.4470 C.2     1  UNL1        0.0090
     22  C         23.8690  -20.9970  -14.1600 C.2     1  UNL1        0.0300
     23  C         17.3910  -23.0320   -5.7630 C.2     1  UNL1        0.0270
     24  C         17.5130  -23.3660   -4.4060 C.2     1  UNL1        0.0160
     25  C         16.4270  -23.2230   -3.5490 C.2     1  UNL1        0.0020
     26  C         15.2270  -22.7110   -4.0330 C.2     1  UNL1        0.0090
     27  C         15.0860  -22.3220   -5.3790 C.2     1  UNL1       -0.0340
     28  C         16.1650  -22.5220   -6.2690 C.2     1  UNL1        0.0530
     29  C         13.7830  -21.6690   -5.7540 C.3     1  UNL1        0.0500
     30  N         16.0990  -22.1760   -7.6460 N.am    1  UNL1       -0.3260
     31  C         15.8030  -23.0260   -8.6910 C.2     1  UNL1        0.2180
     32  C         15.8430  -22.3300  -10.0290 C.3     1  UNL1        0.1170
     33  O         15.5810  -24.2300   -8.6130 O.2     1  UNL1       -0.2740
     34  H         16.6500  -21.3550   -7.9060 H       1  UNL1        0.1690
@<TRIPOS>BOND
     1    20    19    1
     2    19    21    2
     3    19    18    1
     4    21    22    1
     5    18    17    2
     6    22    16    2
     7    17    16    1
     8    16    14    1
     9    13    12    2
    10    14    12   am
    11    14    15    1
    12    12    10    1
    13    10     9    1
    14    10    11    1
    15    32    31    1
    16     9     4    1
    17    31    33    2
    18    31    30   am
    19     4     3   ar
    20     4     5   ar
    21     3     2   ar
    22    34    30    1
    23     8     5    1
    24     5     6   ar
    25    30    28    1
    26     2     1   ar
    27     6     1   ar
    28     6     7    2
    29     1    23    1
    30    28    23    2
    31    28    27    1
    32    23    24    1
    33    29    27    1
    34    27    26    2
    35    24    25    2
    36    26    25    1
