@<TRIPOS>MOLECULE
tr13350_out_ligand_01.pdbqt
 35 37 0 0 0
SMALL
GASTEIGER

@<TRIPOS>ATOM
      1  C         18.8020  -23.1720   -7.1890 C.ar    1  UNL1        0.1590
      2  N         19.0010  -24.2280   -7.9300 N.ar    1  UNL1       -0.1410
      3  N         20.2300  -24.4150   -8.5670 N.ar    1  UNL1       -0.1240
      4  C         21.1630  -23.5390   -8.4020 C.ar    1  UNL1        0.1910
      5  N         21.0680  -22.4420   -7.6260 N.ar    1  UNL1       -0.2990
      6  C         19.9140  -22.1550   -6.9720 C.ar    1  UNL1        0.2790
      7  O         19.7820  -21.1850   -6.2450 O.2     1  UNL1       -0.2650
      8  H         21.8270  -21.7790   -7.5940 H       1  UNL1        0.1710
      9  S         22.6990  -23.6990   -9.1940 S.3     1  UNL1       -0.0810
     10  C         22.9310  -21.9480   -9.6240 C.3     1  UNL1        0.1850
     11  C         24.0190  -21.7490  -10.6860 C.2     1  UNL1        0.2310
     12  O         24.9120  -20.9130  -10.5720 O.2     1  UNL1       -0.2720
     13  N         23.8480  -22.6200  -11.7570 N.am    1  UNL1       -0.3260
     14  H         23.0520  -23.2400  -11.7010 H       1  UNL1        0.1690
     15  C         24.6600  -22.7630  -12.9130 C.2     1  UNL1        0.0410
     16  C         25.7520  -23.6370  -12.9480 C.2     1  UNL1        0.0300
     17  C         26.5300  -23.7720  -14.0960 C.2     1  UNL1        0.0030
     18  C         26.2250  -23.0350  -15.2340 C.2     1  UNL1        0.0070
     19  C         25.1400  -22.1470  -15.2400 C.2     1  UNL1       -0.0540
     20  C         24.8630  -21.3810  -16.5080 C.3     1  UNL1        0.0490
     21  C         24.3500  -21.9960  -14.0710 C.2     1  UNL1       -0.0290
     22  C         23.1840  -21.0350  -14.0570 C.3     1  UNL1        0.0510
     23  C         17.4820  -23.0030   -6.5150 C.2     1  UNL1        0.0270
     24  C         17.3090  -23.4960   -5.2100 C.2     1  UNL1        0.0230
     25  C         16.0750  -23.3820   -4.5600 C.2     1  UNL1       -0.0610
     26  C         15.0220  -22.7430   -5.2190 C.2     1  UNL1        0.0090
     27  C         15.9080  -23.8840   -3.1560 C.3     1  UNL1        0.0480
     28  C         15.1900  -22.2330   -6.5110 C.2     1  UNL1        0.0310
     29  C         16.4170  -22.3400   -7.1740 C.2     1  UNL1        0.0470
     30  N         16.6270  -21.7940   -8.4650 N.am    1  UNL1       -0.3260
     31  C         16.4220  -22.3830   -9.7000 C.2     1  UNL1        0.2210
     32  O         16.0500  -23.5320   -9.9070 O.2     1  UNL1       -0.2730
     33  H         16.9090  -20.8120   -8.4760 H       1  UNL1        0.1690
     34  C         16.7240  -21.4100  -10.8310 C.3     1  UNL1        0.0980
     35  C         18.1600  -21.5060  -11.3190 C.3     1  UNL1        0.0140
@<TRIPOS>BOND
     1    20    19    1
     2    19    18    2
     3    19    21    1
     4    18    17    1
     5    17    16    2
     6    21    22    1
     7    21    15    2
     8    16    15    1
     9    15    13    1
    10    13    14    1
    11    13    11   am
    12    35    34    1
    13    34    31    1
    14    11    12    2
    15    11    10    1
    16    32    31    2
    17    31    30   am
    18    10     9    1
    19     9     4    1
    20     3     4   ar
    21     3     2   ar
    22    33    30    1
    23    30    29    1
    24     4     5   ar
    25     2     1   ar
    26     5     8    1
    27     5     6   ar
    28     1     6   ar
    29     1    23    1
    30    29    23    2
    31    29    28    1
    32     6     7    2
    33    23    24    1
    34    28    26    2
    35    26    25    1
    36    24    25    2
    37    25    27    1
