@<TRIPOS>MOLECULE
tr13522_out_ligand_01.pdbqt
 35 38 0 0 0
SMALL
GASTEIGER

@<TRIPOS>ATOM
      1  C         23.2880  -22.3670  -11.5970 C.ar    1  UNL1        0.1070
      2  N         22.5510  -22.5730  -10.5440 N.ar    1  UNL1       -0.1600
      3  N         21.2490  -22.1920  -10.8330 N.ar    1  UNL1       -0.1890
      4  C         20.2240  -22.3060   -9.9150 C.ar    1  UNL1        0.1620
      5  N         20.4390  -22.7510   -8.7120 N.pl3   1  UNL1       -0.2810
      6  C         18.8710  -21.8730  -10.4050 C.ar    1  UNL1        0.0820
      7  C         17.7130  -21.9920   -9.7240 C.3     1  UNL1        0.0320
      8  C         18.7780  -21.2780  -11.7980 C.ar    1  UNL1        0.2830
      9  O         17.7140  -20.8280  -12.2130 O.2     1  UNL1       -0.2650
     10  N         19.9130  -21.2570  -12.5830 N.ar    1  UNL1       -0.1820
     11  C         21.0160  -21.6890  -12.0860 C.ar    1  UNL1        0.2010
     12  S         22.4950  -21.6860  -13.0150 S.2     1  UNL1       -0.0320
     13  H         21.4440  -22.9750   -8.6630 H       1  UNL1        0.1880
     14  C         17.5080  -22.5590   -8.3870 C.2     1  UNL1       -0.0320
     15  C         16.9620  -23.8410   -8.2630 C.2     1  UNL1        0.0140
     16  C         16.7330  -24.3840   -6.9990 C.2     1  UNL1        0.0420
     17  C         17.0350  -23.6340   -5.8620 C.2     1  UNL1        0.1220
     18  C         17.6060  -22.3590   -5.9670 C.2     1  UNL1        0.1030
     19  C         17.8190  -21.8170   -7.2380 C.2     1  UNL1        0.0510
     20  O         16.8480  -24.1890   -4.6220 O.2     1  UNL1       -0.2300
     21  S         15.4250  -23.9710   -3.8490 S.3     1  UNL1        0.2660
     22  C         14.3840  -23.7630   -5.2740 C.3     1  UNL1        0.1940
     23  O         15.4800  -22.6990   -3.1550 O.3     1  UNL1       -0.1990
     24  O         15.0170  -25.1770   -3.1540 O.3     1  UNL1       -0.1990
     25  O         17.8910  -21.7260   -4.7850 O.2     1  UNL1       -0.3530
     26  C         18.9670  -20.7950   -4.8110 C.3     1  UNL1        0.2100
     27  C         24.7710  -22.6940  -11.6270 C.3     1  UNL1        0.0790
     28  C         25.2660  -23.3090  -10.3030 C.3     1  UNL1        0.0120
     29  C         26.5970  -24.0360  -10.4560 C.3     1  UNL1        0.0060
     30  C         25.5790  -21.4970  -12.1150 C.2     1  UNL1       -0.0480
     31  C         26.0340  -20.4870  -11.2550 C.2     1  UNL1        0.0080
     32  C         26.7470  -19.3940  -11.7540 C.2     1  UNL1        0.0010
     33  C         27.0120  -19.2930  -13.1180 C.2     1  UNL1        0.0000
     34  C         26.5600  -20.2820  -13.9860 C.2     1  UNL1        0.0010
     35  C         25.8470  -21.3750  -13.4900 C.2     1  UNL1        0.0080
@<TRIPOS>BOND
     1    34    35    1
     2    34    33    2
     3    35    30    2
     4    33    32    1
     5    12    11   ar
     6    12     1   ar
     7    10    11   ar
     8    10     8   ar
     9     9     8    2
    10    30    27    1
    11    30    31    1
    12    11     3   ar
    13     8     6   ar
    14    32    31    2
    15    27     1    1
    16    27    28    1
    17     1     2   ar
    18     3     2   ar
    19     3     4   ar
    20    29    28    1
    21     6     4   ar
    22     6     7    1
    23     4     5    1
    24     7    14    1
    25     5    13    1
    26    14    15    2
    27    14    19    1
    28    15    16    1
    29    19    18    2
    30    16    17    2
    31    18    17    1
    32    18    25    1
    33    17    20    1
    34    22    21    1
    35    26    25    1
    36    20    21    1
    37    21    23    1
    38    21    24    1
