@<TRIPOS>MOLECULE
tr13737_out_ligand_01.pdbqt
 34 37 0 0 0
SMALL
GASTEIGER

@<TRIPOS>ATOM
      1  C         18.8330  -23.2240   -7.0520 C.ar    1  UNL1        0.1590
      2  N         19.0610  -24.2680   -7.8000 N.ar    1  UNL1       -0.1410
      3  N         20.2890  -24.4090   -8.4560 N.ar    1  UNL1       -0.1240
      4  C         21.1640  -23.4660   -8.3670 C.ar    1  UNL1        0.1910
      5  N         21.0020  -22.3320   -7.6540 N.ar    1  UNL1       -0.2990
      6  C         19.8970  -22.1490   -6.8840 C.ar    1  UNL1        0.2790
      7  O         19.7730  -21.2240   -6.0990 O.2     1  UNL1       -0.2650
      8  H         21.7280  -21.6230   -7.6370 H       1  UNL1        0.1710
      9  S         22.6980  -23.6170   -9.1700 S.3     1  UNL1       -0.0810
     10  C         23.1060  -21.8600   -9.3770 C.3     1  UNL1        0.1850
     11  C         23.9890  -21.6680  -10.6060 C.2     1  UNL1        0.2310
     12  O         24.9740  -20.9310  -10.5650 O.2     1  UNL1       -0.2720
     13  N         23.5590  -22.3870  -11.7100 N.am    1  UNL1       -0.3260
     14  H         22.7590  -22.9960  -11.5860 H       1  UNL1        0.1690
     15  C         24.1410  -22.4100  -12.9980 C.2     1  UNL1        0.0370
     16  C         25.1110  -23.4110  -13.2410 C.2     1  UNL1        0.0320
     17  C         25.7480  -23.5190  -14.4820 C.2     1  UNL1        0.0420
     18  C         25.3930  -22.6210  -15.4610 C.2     1  UNL1        0.1050
     19  C         24.4500  -21.6480  -15.2350 C.2     1  UNL1        0.1070
     20  O         25.9040  -22.5700  -16.7190 O.2     1  UNL1       -0.3230
     21  C         23.8090  -21.5140  -14.0190 C.2     1  UNL1        0.0690
     22  O         24.2440  -20.8640  -16.3290 O.2     1  UNL1       -0.3230
     23  C         25.1570  -21.4640  -17.2710 C.3     1  UNL1        0.3520
     24  C         17.5230  -23.1150   -6.3420 C.2     1  UNL1        0.0270
     25  C         17.4030  -23.6200   -5.0360 C.2     1  UNL1        0.0160
     26  C         16.1840  -23.5570   -4.3620 C.2     1  UNL1        0.0010
     27  C         15.0810  -22.9830   -4.9830 C.2     1  UNL1        0.0020
     28  C         15.1920  -22.4580   -6.2730 C.2     1  UNL1        0.0300
     29  C         16.4080  -22.5010   -6.9680 C.2     1  UNL1        0.0470
     30  N         16.5520  -21.9390   -8.2630 N.am    1  UNL1       -0.3270
     31  C         16.2640  -22.5100   -9.4860 C.2     1  UNL1        0.2180
     32  C         16.4840  -21.5610  -10.6390 C.3     1  UNL1        0.1170
     33  O         15.8980  -23.6630   -9.6940 O.2     1  UNL1       -0.2740
     34  H         16.8630  -20.9660   -8.2750 H       1  UNL1        0.1690
@<TRIPOS>BOND
     1    23    20    1
     2    23    22    1
     3    20    18    1
     4    22    19    1
     5    18    19    2
     6    18    17    1
     7    19    21    1
     8    17    16    2
     9    21    15    2
    10    16    15    1
    11    15    13    1
    12    13    14    1
    13    13    11   am
    14    32    31    1
    15    11    12    2
    16    11    10    1
    17    33    31    2
    18    31    30   am
    19    10     9    1
    20     9     4    1
    21     3     4   ar
    22     3     2   ar
    23     4     5   ar
    24    34    30    1
    25    30    29    1
    26     2     1   ar
    27     5     8    1
    28     5     6   ar
    29     1     6   ar
    30     1    24    1
    31    29    24    2
    32    29    28    1
    33     6     7    2
    34    24    25    1
    35    28    27    2
    36    25    26    2
    37    27    26    1
