@<TRIPOS>MOLECULE
tr13256_out_ligand_01.pdbqt
 35 38 0 0 0
SMALL
GASTEIGER

@<TRIPOS>ATOM
      1  N         21.8760  -22.8680  -10.8530 N.ar    1  UNL1       -0.2570
      2  C         21.1110  -21.9280  -11.5230 C.ar    1  UNL1        0.2640
      3  O         21.5880  -21.1220  -12.3200 O.2     1  UNL1       -0.2670
      4  C         19.6770  -21.8840  -11.2100 C.ar    1  UNL1        0.0590
      5  C         18.8360  -21.0290  -11.9440 C.2     1  UNL1        0.0190
      6  C         17.4720  -20.9910  -11.6690 C.2     1  UNL1        0.0010
      7  C         16.9550  -21.8080  -10.6720 C.2     1  UNL1        0.0020
      8  C         17.7990  -22.6540   -9.9400 C.2     1  UNL1        0.0310
      9  C         19.1790  -22.6970  -10.1920 C.ar    1  UNL1        0.0550
     10  N         20.0810  -23.5140   -9.4550 N.ar    1  UNL1       -0.2900
     11  C         21.4250  -23.6320   -9.7900 C.ar    1  UNL1        0.3330
     12  O         22.1710  -24.3900   -9.1600 O.2     1  UNL1       -0.2460
     13  C         19.6180  -24.3530   -8.3520 C.3     1  UNL1        0.2370
     14  C         18.9620  -23.4930   -7.2630 C.2     1  UNL1        0.2400
     15  O         19.5120  -22.4720   -6.8540 O.2     1  UNL1       -0.2710
     16  N         17.7330  -23.9870   -6.8420 N.am    1  UNL1       -0.3260
     17  H         17.3520  -24.7720   -7.3640 H       1  UNL1        0.1690
     18  C         16.8910  -23.4620   -5.8370 C.2     1  UNL1        0.0370
     19  C         17.1510  -23.5640   -4.4670 C.2     1  UNL1        0.0290
     20  C         16.2610  -23.0160   -3.5280 C.2     1  UNL1        0.0050
     21  C         15.1010  -22.3710   -3.9550 C.2     1  UNL1        0.0420
     22  C         14.8440  -22.2720   -5.3160 C.2     1  UNL1        0.1180
     23  F         13.7310  -21.6520   -5.7320 F       1  UNL1       -0.2060
     24  C         15.7240  -22.8060   -6.2560 C.2     1  UNL1        0.0710
     25  C         23.2770  -23.0150  -11.2460 C.3     1  UNL1        0.2390
     26  C         24.1160  -21.7560  -11.0050 C.2     1  UNL1        0.2360
     27  O         24.1360  -21.1940   -9.9090 O.2     1  UNL1       -0.2720
     28  N         24.9650  -21.4040  -12.0380 N.am    1  UNL1       -0.3540
     29  H         25.1850  -22.1410  -12.7050 H       1  UNL1        0.1620
     30  C         25.9960  -20.4060  -11.8490 C.3     1  UNL1        0.1870
     31  C         26.2010  -19.6870  -13.1320 C.2     1  UNL1        0.0700
     32  C         25.6230  -19.8080  -14.3820 C.2     1  UNL1        0.0360
     33  C         26.2150  -18.8110  -15.1940 C.2     1  UNL1        0.0270
     34  C         27.1210  -18.1520  -14.3920 C.2     1  UNL1        0.1420
     35  O         27.1190  -18.6760  -13.1380 O.2     1  UNL1       -0.3250
@<TRIPOS>BOND
     1    33    34    2
     2    33    32    1
     3    34    35    1
     4    32    31    2
     5    35    31    1
     6    31    30    1
     7    29    28    1
     8     3     2    2
     9    28    30    1
    10    28    26   am
    11     5     6    1
    12     5     4    2
    13     6     7    2
    14     2     4   ar
    15     2     1   ar
    16    25    26    1
    17    25     1    1
    18     4     9   ar
    19    26    27    2
    20     1    11   ar
    21     7     8    1
    22     9     8    2
    23     9    10   ar
    24    11    10   ar
    25    11    12    2
    26    10    13    1
    27    13    14    1
    28    17    16    1
    29    14    15    2
    30    14    16   am
    31    16    18    1
    32    24    18    2
    33    24    22    1
    34    18    19    1
    35    23    22    1
    36    22    21    2
    37    19    20    2
    38    21    20    1
