@<TRIPOS>MOLECULE
tr13758_out_ligand_01.pdbqt
 34 36 0 0 0
SMALL
GASTEIGER

@<TRIPOS>ATOM
      1  C         18.7940  -23.1980   -7.1470 C.ar    1  UNL1        0.1590
      2  N         19.0240  -24.2380   -7.8980 N.ar    1  UNL1       -0.1410
      3  N         20.2660  -24.3960   -8.5220 N.ar    1  UNL1       -0.1240
      4  C         21.1550  -23.4700   -8.4050 C.ar    1  UNL1        0.1910
      5  N         20.9960  -22.3420   -7.6820 N.ar    1  UNL1       -0.2990
      6  C         19.8780  -22.1480   -6.9370 C.ar    1  UNL1        0.2790
      7  O         19.7550  -21.2290   -6.1430 O.2     1  UNL1       -0.2650
      8  H         21.7380  -21.6500   -7.6370 H       1  UNL1        0.1710
      9  S         22.7030  -23.6390   -9.1740 S.3     1  UNL1       -0.0810
     10  C         23.0230  -21.9020   -9.5910 C.3     1  UNL1        0.1850
     11  C         24.1020  -21.8050  -10.6680 C.2     1  UNL1        0.2310
     12  O         25.0200  -20.9920  -10.5650 O.2     1  UNL1       -0.2720
     13  N         23.9010  -22.6910  -11.7150 N.am    1  UNL1       -0.3260
     14  H         23.1100  -23.3140  -11.6290 H       1  UNL1        0.1690
     15  C         24.6890  -22.8640  -12.8830 C.2     1  UNL1        0.0410
     16  C         25.7670  -23.7540  -12.9230 C.2     1  UNL1        0.0300
     17  C         26.5240  -23.9140  -14.0820 C.2     1  UNL1        0.0030
     18  C         26.2100  -23.1890  -15.2240 C.2     1  UNL1        0.0070
     19  C         25.1350  -22.2890  -15.2260 C.2     1  UNL1       -0.0540
     20  C         24.8460  -21.5390  -16.5000 C.3     1  UNL1        0.0490
     21  C         24.3700  -22.1090  -14.0450 C.2     1  UNL1       -0.0290
     22  C         23.2150  -21.1340  -14.0300 C.3     1  UNL1        0.0510
     23  C         17.4610  -23.0660   -6.4800 C.2     1  UNL1        0.0270
     24  C         17.2880  -23.5630   -5.1760 C.2     1  UNL1        0.0230
     25  C         16.0510  -23.4740   -4.5280 C.2     1  UNL1       -0.0610
     26  C         14.9780  -22.8890   -5.2000 C.2     1  UNL1        0.0090
     27  C         15.8760  -24.0480   -3.1530 C.3     1  UNL1        0.0480
     28  C         15.1430  -22.3680   -6.4870 C.2     1  UNL1        0.0310
     29  C         16.3790  -22.4330   -7.1410 C.2     1  UNL1        0.0470
     30  N         16.5740  -21.8730   -8.4290 N.am    1  UNL1       -0.3270
     31  C         16.3510  -22.4490   -9.6630 C.2     1  UNL1        0.2180
     32  C         16.6160  -21.4800  -10.7890 C.3     1  UNL1        0.1170
     33  O         15.9970  -23.6010   -9.8900 O.2     1  UNL1       -0.2740
     34  H         16.8660  -20.8940   -8.4340 H       1  UNL1        0.1690
@<TRIPOS>BOND
     1    20    19    1
     2    19    18    2
     3    19    21    1
     4    18    17    1
     5    17    16    2
     6    21    22    1
     7    21    15    2
     8    16    15    1
     9    15    13    1
    10    13    14    1
    11    13    11   am
    12    32    31    1
    13    11    12    2
    14    11    10    1
    15    33    31    2
    16    31    30   am
    17    10     9    1
    18     9     4    1
    19     3     4   ar
    20     3     2   ar
    21    34    30    1
    22    30    29    1
    23     4     5   ar
    24     2     1   ar
    25     5     8    1
    26     5     6   ar
    27     1     6   ar
    28     1    23    1
    29    29    28    1
    30    29    23    2
    31     6     7    2
    32    28    26    2
    33    23    24    1
    34    26    25    1
    35    24    25    2
    36    25    27    1
