@<TRIPOS>MOLECULE
tr13124_out_ligand_01.pdbqt
 37 39 0 0 0
SMALL
GASTEIGER

@<TRIPOS>ATOM
      1  C         20.6640  -22.8750  -10.1890 C.2     1  UNL1        0.0190
      2  C         20.8340  -22.1630  -11.3850 C.2     1  UNL1        0.0160
      3  C         19.7430  -21.5480  -12.0000 C.2     1  UNL1        0.0030
      4  C         18.4780  -21.6390  -11.4190 C.2     1  UNL1        0.0390
      5  C         18.3090  -22.3390  -10.2110 C.2     1  UNL1        0.1370
      6  C         19.4060  -22.9410   -9.5750 C.2     1  UNL1        0.1240
      7  C         21.8380  -23.4990   -9.5480 C.2     1  UNL1        0.1530
      8  N         23.1030  -23.3360   -9.8080 N.2     1  UNL1       -0.1830
      9  N         23.4980  -22.6640  -10.9370 N.am    1  UNL1       -0.2430
     10  C         24.8440  -22.4320  -11.2250 C.2     1  UNL1        0.2710
     11  O         25.8010  -22.9370  -10.6450 O.2     1  UNL1       -0.2660
     12  H         22.8740  -21.8930  -11.1550 H       1  UNL1        0.1920
     13  C         25.0930  -21.4620  -12.3300 C.2     1  UNL1        0.0330
     14  C         26.1670  -20.5670  -12.3060 C.2     1  UNL1        0.0190
     15  C         26.3560  -19.6700  -13.3650 C.2     1  UNL1        0.0300
     16  C         25.4760  -19.6500  -14.4550 C.2     1  UNL1        0.0340
     17  C         24.3970  -20.5340  -14.4660 C.2     1  UNL1        0.0300
     18  C         24.2020  -21.4320  -13.4080 C.2     1  UNL1        0.0190
     19  N         25.7430  -18.7160  -15.4790 N.am    1  UNL1       -0.3270
     20  C         26.3130  -18.9620  -16.7190 C.2     1  UNL1        0.2210
     21  O         26.6890  -20.0460  -17.1470 O.2     1  UNL1       -0.2730
     22  H         25.4940  -17.7560  -15.2810 H       1  UNL1        0.1690
     23  C         26.4280  -17.6840  -17.5360 C.3     1  UNL1        0.0980
     24  C         26.3960  -16.4350  -16.6750 C.3     1  UNL1        0.0140
     25  O         19.2760  -23.6610   -8.3810 O.3     1  UNL1       -0.2710
     26  C         19.4600  -22.8730   -7.2630 C.2     1  UNL1        0.3000
     27  O         20.3770  -22.0930   -7.0600 O.2     1  UNL1       -0.2590
     28  C         18.2860  -22.9990   -6.3820 C.2     1  UNL1        0.0610
     29  C         17.4030  -24.0550   -6.6550 C.2     1  UNL1        0.0190
     30  C         16.2720  -24.2470   -5.8610 C.2     1  UNL1        0.0010
     31  C         16.0140  -23.3820   -4.7990 C.2     1  UNL1        0.0020
     32  C         16.8820  -22.3200   -4.5360 C.2     1  UNL1        0.0250
     33  C         18.0190  -22.1210   -5.3270 C.2     1  UNL1        0.0500
     34 CL         19.0000  -20.7460   -4.9780 Cl      1  UNL1       -0.0830
     35  N         16.9620  -22.4100   -9.6460 N.pl3   1  UNL1       -0.1130
     36  O         16.5910  -21.4600   -8.9410 O.2     1  UNL1       -0.5320
     37  O         16.2620  -23.3980   -9.9090 O.2     1  UNL1       -0.5320
@<TRIPOS>BOND
     1    23    20    1
     2    23    24    1
     3    21    20    2
     4    20    19   am
     5    19    22    1
     6    19    16    1
     7    17    16    2
     8    17    18    1
     9    16    15    1
    10    18    13    2
    11    15    14    2
    12    13    14    1
    13    13    10    1
    14     3     4    2
    15     3     2    1
    16     4     5    1
    17     2     1    2
    18    10     9   am
    19    10    11    2
    20    12     9    1
    21     9     8    1
    22     5    35    1
    23     5     6    2
    24     1     6    1
    25     1     7    1
    26    37    35    2
    27     8     7    2
    28    35    36    2
    29     6    25    1
    30    25    26    1
    31    26    27    2
    32    26    28    1
    33    29    28    2
    34    29    30    1
    35    28    33    1
    36    30    31    2
    37    33    34    1
    38    33    32    2
    39    31    32    1
