@<TRIPOS>MOLECULE
./work/result_pdbqt/22_ligand_01.pdbqt
 40 43 0 0 0
SMALL
GASTEIGER

@<TRIPOS>ATOM
      1  N         21.0130  -22.9100   -8.2690 N.am    1  UNL1       -0.3250
      2  C         22.1940  -22.1860   -8.2490 C.2     1  UNL1        0.2340
      3  O         22.4690  -21.2640   -7.4870 O.2     1  UNL1       -0.2720
      4  H         20.9280  -23.6150   -8.9880 H       1  UNL1        0.1690
      5  C         23.2010  -22.6710   -9.2770 C.3     1  UNL1        0.0930
      6  C         22.5020  -23.3370  -10.4610 C.3     1  UNL1        0.0380
      7  C         22.3980  -22.4270  -11.6560 C.ar    1  UNL1       -0.0050
      8  C         23.4820  -22.0490  -12.5170 C.ar    1  UNL1        0.0150
      9  C         22.9660  -21.2050  -13.4990 C.ar    1  UNL1        0.0570
     10  C         24.8600  -22.3490  -12.5490 C.2     1  UNL1        0.0310
     11  N         21.6260  -21.0650  -13.2410 N.ar    1  UNL1       -0.3540
     12  C         23.7470  -20.6520  -14.5220 C.2     1  UNL1        0.0190
     13  C         21.2600  -21.7730  -12.1170 C.ar    1  UNL1        0.0530
     14  H         20.9900  -20.5170  -13.8010 H       1  UNL1        0.1660
     15  C         25.1070  -20.9680  -14.5340 C.2     1  UNL1        0.0310
     16  C         25.6470  -21.7980  -13.5600 C.2     1  UNL1        0.1400
     17  F         26.9570  -22.0770  -13.5930 F       1  UNL1       -0.2040
     18  C         19.8880  -21.7430  -11.6160 C.2     1  UNL1        0.0150
     19  C         19.1400  -20.5590  -11.6350 C.2     1  UNL1        0.0040
     20  C         17.8250  -20.5440  -11.1650 C.2     1  UNL1        0.0300
     21  C         17.2610  -21.7140  -10.6730 C.2     1  UNL1        0.1400
     22  C         17.9870  -22.8990  -10.6400 C.2     1  UNL1        0.0300
     23  F         16.0000  -21.7020  -10.2270 F       1  UNL1       -0.2040
     24  C         19.3020  -22.9140  -11.1110 C.2     1  UNL1        0.0040
     25  C         19.8870  -22.7370   -7.4370 C.2     1  UNL1        0.0590
     26  C         18.7490  -23.5470   -7.4740 C.2     1  UNL1        0.0220
     27  C         17.6880  -23.3140   -6.5890 C.2     1  UNL1        0.0570
     28  C         17.7300  -22.2460   -5.6890 C.2     1  UNL1        0.0090
     29  C         18.8530  -21.4160   -5.6690 C.2     1  UNL1        0.0570
     30  C         19.9310  -21.6750   -6.5260 C.2     1  UNL1        0.0220
     31  C         16.5030  -24.2030   -6.6440 C.2     1  UNL1        0.2510
     32  N         16.0460  -24.5310   -7.8910 N.am    1  UNL1       -0.3660
     33  H         16.2760  -23.9620   -8.6940 H       1  UNL1        0.1590
     34  H         15.1530  -25.0040   -7.9080 H       1  UNL1        0.1590
     35  O         15.9470  -24.6050   -5.6340 O.2     1  UNL1       -0.2680
     36  C         18.9520  -20.2630   -4.7400 C.2     1  UNL1        0.2510
     37  O         19.4040  -19.1860   -5.1070 O.2     1  UNL1       -0.2680
     38  N         18.4880  -20.4420   -3.4670 N.am    1  UNL1       -0.3660
     39  H         17.8420  -21.1840   -3.2370 H       1  UNL1        0.1590
     40  H         18.4410  -19.6070   -2.8950 H       1  UNL1        0.1590
@<TRIPOS>BOND
     1    15    12    2
     2    15    16    1
     3    12     9    1
     4    14    11    1
     5    17    16    1
     6    16    10    2
     7     9    11   ar
     8     9     8   ar
     9    11    13   ar
    10    10     8    1
    11     8     7   ar
    12    13     7   ar
    13    13    18    1
    14     7     6    1
    15    19    18    2
    16    19    20    1
    17    18    24    1
    18    20    21    2
    19    24    22    2
    20    21    22    1
    21    21    23    1
    22     6     5    1
    23     5     2    1
    24     4     1    1
    25    33    32    1
    26     1     2   am
    27     1    25    1
    28     2     3    2
    29    34    32    1
    30    32    31   am
    31    26    25    2
    32    26    27    1
    33    25    30    1
    34    31    27    1
    35    31    35    2
    36    27    28    2
    37    30    29    2
    38    28    29    1
    39    29    36    1
    40    37    36    2
    41    36    38   am
    42    38    39    1
    43    38    40    1
