@<TRIPOS>MOLECULE
./work/result_pdbqt/29_ligand_01.pdbqt
 36 40 0 0 0
SMALL
GASTEIGER

@<TRIPOS>ATOM
      1  C         21.2990  -21.2450  -12.4470 C.2     1  UNL1        0.1500
      2  C         22.0660  -21.1260  -13.6040 C.2     1  UNL1        0.0650
      3  C         23.3630  -21.6390  -13.6650 C.2     1  UNL1        0.0190
      4  C         23.8670  -22.2370  -12.4950 C.ar    1  UNL1        0.1590
      5  N         25.0610  -22.8180  -12.2340 N.ar    1  UNL1       -0.2320
      6  C         25.0180  -23.1220  -10.9520 C.ar    1  UNL1        0.0580
      7  C         26.2260  -23.7790  -10.3270 C.3     1  UNL1        0.0720
      8  C         23.8230  -22.7270  -10.3350 C.ar    1  UNL1        0.0670
      9  N         23.0400  -22.2310  -11.3580 N.ar    1  UNL1       -0.2150
     10  N         21.7690  -21.7850  -11.2940 N.2     1  UNL1       -0.1470
     11  N         19.9970  -20.7500  -12.5080 N.pl3   1  UNL1       -0.3230
     12  H         19.8250  -20.2610  -13.3750 H       1  UNL1        0.1690
     13  C         18.9030  -21.1120  -11.7750 C.2     1  UNL1        0.1510
     14  C         18.6190  -22.2580  -11.0140 C.2     1  UNL1        0.0780
     15  C         17.3190  -22.1080  -10.5510 C.2     1  UNL1        0.0270
     16  C         16.3860  -22.9610   -9.7300 C.3     1  UNL1        0.0700
     17  N         16.9470  -20.8870  -11.0390 N.pl3   1  UNL1       -0.2810
     18  N         17.8840  -20.2960  -11.7770 N.2     1  UNL1       -0.1570
     19  H         16.0230  -20.4730  -10.9340 H       1  UNL1        0.1890
     20  C         24.1280  -21.5290  -14.9730 C.3     1  UNL1        0.2770
     21  N         24.7890  -20.1470  -15.1930 N.4     1  UNL1       -0.0630
     22  C         25.8370  -19.8560  -14.0900 C.3     1  UNL1        0.2610
     23  C         26.5580  -18.5330  -14.4060 C.3     1  UNL1        0.1950
     24  O         27.1210  -18.5580  -15.7140 O.3     1  UNL1       -0.3880
     25  C         26.1620  -18.7240  -16.7540 C.3     1  UNL1        0.1950
     26  C         25.4160  -20.0620  -16.6050 C.3     1  UNL1        0.2610
     27  H         24.0620  -19.4430  -15.1450 H       1  UNL1        0.2800
     28  C         23.4210  -22.7120   -8.8660 C.3     1  UNL1        0.1030
     29  C         21.9840  -23.0900   -8.5140 C.2     1  UNL1       -0.0140
     30  C         21.4350  -24.2980   -8.9530 C.2     1  UNL1        0.0120
     31  C         20.1610  -24.6770   -8.5320 C.2     1  UNL1        0.0240
     32  C         19.4040  -23.8400   -7.7130 C.2     1  UNL1        0.0360
     33 CL         17.8480  -24.3340   -7.1480 Cl      1  UNL1       -0.0840
     34  C         19.9360  -22.6240   -7.2940 C.2     1  UNL1        0.0660
     35  C         21.2300  -22.2670   -7.6640 C.2     1  UNL1        0.1240
     36  F         21.7650  -21.1440   -7.1400 F       1  UNL1       -0.2050
@<TRIPOS>BOND
     1    25    26    1
     2    25    24    1
     3    26    21    1
     4    24    23    1
     5    21    27    1
     6    21    20    1
     7    21    22    1
     8    20     3    1
     9    23    22    1
    10     3     2    2
    11     3     4    1
    12     2     1    1
    13    12    11    1
    14    11     1    1
    15    11    13    1
    16     4     5   ar
    17     4     9   ar
    18     1    10    2
    19     5     6   ar
    20    18    13    2
    21    18    17    1
    22    13    14    1
    23     9    10    1
    24     9     8   ar
    25    17    19    1
    26    17    15    1
    27    14    15    2
    28     6     8   ar
    29     6     7    1
    30    15    16    1
    31     8    28    1
    32    30    31    1
    33    30    29    2
    34    28    29    1
    35    31    32    2
    36    29    35    1
    37    32    34    1
    38    32    33    1
    39    35    34    2
    40    35    36    1
